data_image0
_chemical_formula_structural       Sm2H32C48N4O14
_chemical_formula_sum              "Sm2 H32 C48 N4 O14"
_cell_length_a       10.214303957213717
_cell_length_b       10.841626513662963
_cell_length_c       11.384657444107347
_cell_angle_alpha    107.63956887950415
_cell_angle_beta     92.85303526576334
_cell_angle_gamma    111.82516410864966

_space_group_name_H-M_alt    "P 1"
_space_group_IT_number       1

loop_
  _space_group_symop_operation_xyz
  'x, y, z'

loop_
  _atom_site_type_symbol
  _atom_site_label
  _atom_site_symmetry_multiplicity
  _atom_site_fract_x
  _atom_site_fract_y
  _atom_site_fract_z
  _atom_site_occupancy
  Sm  Sm1       1.0  0.5861146054653402  0.49613761509220217  0.32608885402172666  1.0000
  Sm  Sm2       1.0  0.41388305903208794  0.5038607130044569  0.6739119677219634  1.0000
  H   H1        1.0  0.39828447270687656  0.4298366466377458  0.06650172719570688  1.0000
  H   H2        1.0  0.6017150334420266  0.5701637896797392  0.9334980169657926  1.0000
  H   H3        1.0  0.5342199762889165  0.5779668448699411  0.11088971080734211  1.0000
  H   H4        1.0  0.4657809579977652  0.4220346479110476  0.8891112709474244  1.0000
  H   H5        1.0  0.9739281915602049  0.8635440771903903  0.39570668337847087  1.0000
  H   H6        1.0  0.02607418918641711  0.1364584770895547  0.6042972949258498  1.0000
  H   H7        1.0  0.8475470313643497  0.9391963198727001  0.06782899365014577  1.0000
  H   H8        1.0  0.15245100562736266  0.06080519907343528  0.9321754014487028  1.0000
  H   H9        1.0  0.6207944737601565  0.08169405985549359  0.3364877628912168  1.0000
  H   H10       1.0  0.3792060195295832  0.9183063736149818  0.6635128956045903  1.0000
  H   H11       1.0  0.4260768746680625  0.1631059530826491  0.6598958214087034  1.0000
  H   H12       1.0  0.5739245966014437  0.8368944750230797  0.34010487194326805  1.0000
  H   H13       1.0  0.1868192368449897  0.09647989560456692  0.4655261913973874  1.0000
  H   H14       1.0  0.813182606918808  0.9035237233506382  0.5344780753097355  1.0000
  H   H15       1.0  0.06439278539733809  0.1679197374005312  0.1329231484229112  1.0000
  H   H16       1.0  0.9356038142955184  0.8320807225643705  0.8670791296045195  1.0000
  H   H17       1.0  0.3959409019062647  0.2004223589527427  0.07037972196106071  1.0000
  H   H18       1.0  0.6040583552174894  0.7995727700826761  0.92961847561795  1.0000
  H   H19       1.0  0.4149375076118034  0.0453690984131896  0.864669693910855  1.0000
  H   H20       1.0  0.5850630633416712  0.9546292060360457  0.13532859396691063  1.0000
  H   H21       1.0  0.6595027672922525  0.08080148155502802  0.811727683309492  1.0000
  H   H22       1.0  0.3404999903237351  0.9192021144113266  0.18827046190680358  1.0000
  H   H23       1.0  0.926536436970089  0.21108374645405797  0.8794654288819359  1.0000
  H   H24       1.0  0.07346537014937837  0.7889198624302267  0.12053531991261929  1.0000
  H   H25       1.0  0.1370625871141584  0.38522752888035683  0.0441650217699845  1.0000
  H   H26       1.0  0.8629382420255497  0.6147760853686748  0.9558356921684065  1.0000
  H   H27       1.0  0.23655932988621234  0.559838586825599  0.2644636853457669  1.0000
  H   H28       1.0  0.763439993451982  0.44016609998116957  0.7355381616174057  1.0000
  H   H29       1.0  0.18617936944214364  0.688242159546654  0.4696813955592489  1.0000
  H   H30       1.0  0.8138179887754403  0.31176253547187127  0.5303195022134517  1.0000
  H   H31       1.0  0.9325307679505599  0.6465146779533343  0.4918032326538366  1.0000
  H   H32       1.0  0.06746622693382419  0.3534868287334447  0.5081949712418563  1.0000
  C   C1        1.0  0.7659603580936151  0.7514263497482788  0.19401200336329794  1.0000
  C   C2        1.0  0.23403885801073435  0.2485709183792935  0.8059920827463217  1.0000
  C   C3        1.0  0.8963273261875527  0.8884636797680586  0.22928039252880691  1.0000
  C   C4        1.0  0.10367319458543987  0.11153676125559288  0.7707229044014241  1.0000
  C   C5        1.0  0.9939752803552436  0.9320382881822767  0.3398408978021763  1.0000
  C   C6        1.0  0.006026017264637992  0.06796639293045097  0.6601627778296049  1.0000
  C   C7        1.0  0.9223890028754838  0.9740900822163993  0.15470045556622122  1.0000
  C   C8        1.0  0.0776095802601446  0.0259103745722058  0.8453045306079687  1.0000
  C   C9        1.0  0.5512172494996719  0.27945982050979984  0.4954353360247979  1.0000
  C   C10       1.0  0.4487809563556695  0.72053529374854  0.5045557908729137  1.0000
  C   C11       1.0  0.5253971499779339  0.13482481752469508  0.49752709859488675  1.0000
  C   C12       1.0  0.47460147417709914  0.8651735001717639  0.5024719990486872  1.0000
  C   C13       1.0  0.5677115559515543  0.0440054253007602  0.4072514938647771  1.0000
  C   C14       1.0  0.4322890241630049  0.9559928816662124  0.5927476734911182  1.0000
  C   C15       1.0  0.45766672998495045  0.09040263793360029  0.5905889985869592  1.0000
  C   C16       1.0  0.5423343094487054  0.9095967333793386  0.40941225098418954  1.0000
  C   C17       1.0  0.266937178679825  0.28575940739265343  0.3474206081065105  1.0000
  C   C18       1.0  0.7330638149484231  0.7142399513316421  0.6525762440739271  1.0000
  C   C19       1.0  0.13773470864694562  0.1471879874859923  0.3041679130633881  1.0000
  C   C20       1.0  0.8622653344847818  0.852811384156233  0.6958315426953163  1.0000
  C   C21       1.0  0.1126611869681327  0.06106728979150941  0.3781144163647667  1.0000
  C   C22       1.0  0.8873422585830681  0.9389331326201855  0.6218881056558132  1.0000
  C   C23       1.0  0.0433891978832648  0.10166413307712932  0.1910399906281484  1.0000
  C   C24       1.0  0.956610440895851  0.898334189325503  0.8089626597841502  1.0000
  C   C25       1.0  0.5004127198871515  0.21098147159194264  0.045718256810140176  1.0000
  C   C26       1.0  0.49958699655569916  0.7890147217894495  0.9542820229841169  1.0000
  C   C27       1.0  0.5122113474672148  0.12484383169677221  0.9300259695654988  1.0000
  C   C28       1.0  0.4877902014660265  0.8751544673877234  0.06997235316842414  1.0000
  C   C29       1.0  0.6466325217368692  0.14446293838168597  0.901468721069442  1.0000
  C   C30       1.0  0.35336762654183923  0.8555343117924962  0.09853100250563775  1.0000
  C   C31       1.0  0.7694642491699212  0.2478564824402767  0.9907586365210648  1.0000
  C   C32       1.0  0.2305366851167605  0.7521450103407048  0.00924234523370152  1.0000
  C   C33       1.0  0.7473093588788942  0.3279881305237565  0.1063934326571356  1.0000
  C   C34       1.0  0.2526907025749949  0.6720112461539216  0.893607782057849  1.0000
  C   C35       1.0  0.9124805534765343  0.2725452754532824  0.9695607354608954  1.0000
  C   C36       1.0  0.08751983466623157  0.7274572794852361  0.030439655218529392  1.0000
  C   C37       1.0  0.028446689331488483  0.36875081025333867  0.06043417028555349  1.0000
  C   C38       1.0  0.9715528168174145  0.6312496260641465  0.9395655738759527  1.0000
  C   C39       1.0  0.010193182807185496  0.44782909162167783  0.17974209648995304  1.0000
  C   C40       1.0  0.9898077514794963  0.5521724011593108  0.8202588852648134  1.0000
  C   C41       1.0  0.8695115579347857  0.42896629497846567  0.2028773595365649  1.0000
  C   C42       1.0  0.13048805336109123  0.5710320198709766  0.7971226524413169  1.0000
  C   C43       1.0  0.12712780407695587  0.5440245623143837  0.27797108344189064  1.0000
  C   C44       1.0  0.8728703014174075  0.4559748250927954  0.7220300615607658  1.0000
  C   C45       1.0  0.09993742515938196  0.6148074477919322  0.390813720439077  1.0000
  C   C46       1.0  0.9000614480207931  0.3851961771865859  0.609186923786986  1.0000
  C   C47       1.0  0.9574941700631856  0.5908596182908497  0.4046066888946243  1.0000
  C   C48       1.0  0.04250532692463335  0.4091408155089126  0.5953921757887315  1.0000
  N   N1        1.0  0.6137921273821477  0.31086693760228457  0.13075190571436224  1.0000
  N   N2        1.0  0.38620705207787853  0.6891303204543673  0.8692486624826969  1.0000
  N   N3        1.0  0.8451466793187662  0.501034098764819  0.3139495345873867  1.0000
  N   N4        1.0  0.15485239499427902  0.4989652807598758  0.6860507657932899  1.0000
  O   O1        1.0  0.6887480232791177  0.7009660421496166  0.08556716690355162  1.0000
  O   O2        1.0  0.3112521114634248  0.2990333546698949  0.9144410836365608  1.0000
  O   O3        1.0  0.7391234150683417  0.6946453101762202  0.2781060539807995  1.0000
  O   O4        1.0  0.2608777753176952  0.3053519522573112  0.7218998607974356  1.0000
  O   O5        1.0  0.586682878908576  0.3079757060341066  0.39831106570999  1.0000
  O   O6        1.0  0.4133161427262023  0.6920119690739243  0.6016770583214921  1.0000
  O   O7        1.0  0.5363869244380767  0.3649097542559048  0.5930687085848021  1.0000
  O   O8        1.0  0.4636080913786174  0.6350896064441188  0.40691738072096234  1.0000
  O   O9        1.0  0.3413287981143113  0.31765572524479074  0.2665280282727807  1.0000
  O   O10       1.0  0.6586658591551783  0.682342598804276  0.7334656530772891  1.0000
  O   O11       1.0  0.2949157474532528  0.3610301790335271  0.4632517280723576  1.0000
  O   O12       1.0  0.7050878646733595  0.6389755280006783  0.5367444252274396  1.0000
  O   O13       1.0  0.46006174500504216  0.5103005678449363  0.1410933408483075  1.0000
  O   O14       1.0  0.5399387391236277  0.48969986310780206  0.8589064381693562  1.0000
