data_image0
_chemical_formula_structural       Zn5P2H20C26O14
_chemical_formula_sum              "Zn5 P2 H20 C26 O14"
_cell_length_a       5.34906208057164
_cell_length_b       7.7678205871985755
_cell_length_c       16.74538294875091
_cell_angle_alpha    102.39102238891364
_cell_angle_beta     99.23569694038005
_cell_angle_gamma    90.01578045936706

_space_group_name_H-M_alt    "P 1"
_space_group_IT_number       1

loop_
  _space_group_symop_operation_xyz
  'x, y, z'

loop_
  _atom_site_type_symbol
  _atom_site_label
  _atom_site_symmetry_multiplicity
  _atom_site_fract_x
  _atom_site_fract_y
  _atom_site_fract_z
  _atom_site_occupancy
  Zn  Zn1       1.0  0.29221251130113757  0.1496795260135571  0.07378646926291309  1.0000
  Zn  Zn2       1.0  0.2181862078173609  0.8503685490290422  0.9262468304429206  1.0000
  Zn  Zn3       1.0  0.7913236725077653  0.8562323040266334  0.08243419756867347  1.0000
  Zn  Zn4       1.0  0.7087834473336585  0.14389778595959513  0.9174989469121402  1.0000
  Zn  Zn5       1.0  0.003858607938148901  0.5000715903803653  0.9999674978147156  1.0000
  P   P1        1.0  0.5594271626091826  0.5229749484642171  0.1260472574935321  1.0000
  P   P2        1.0  0.43266576270310236  0.4770627978674399  0.8739192367580912  1.0000
  H   H1        1.0  0.3489750840823476  0.8141581784936776  0.08092219252244351  1.0000
  H   H2        1.0  0.26791233081207366  0.1857980398516617  0.9190428780617239  1.0000
  H   H3        1.0  0.839923541412169  0.25723588288673943  0.062247429861073976  1.0000
  H   H4        1.0  0.7772571685065655  0.7429207994125877  0.9377098700690709  1.0000
  H   H5        1.0  0.26895039606658594  0.7421118133233691  0.24309625624713502  1.0000
  H   H6        1.0  0.025160341551959692  0.2575385136963035  0.7565595096751991  1.0000
  H   H7        1.0  0.3444458156154083  0.8359706463773194  0.3940147078732039  1.0000
  H   H8        1.0  0.9503225792493024  0.16364868740210173  0.6056374792387373  1.0000
  H   H9        1.0  0.043705834128601885  0.554607210981885  0.4035926847471103  1.0000
  H   H10       1.0  0.6405415960221958  0.44540357134543757  0.5967496995444392  1.0000
  H   H11       1.0  0.9707392542811347  0.4681070939267116  0.2530920311644493  1.0000
  H   H12       1.0  0.7173234936040841  0.532178261111639  0.7472635362764918  1.0000
  H   H13       1.0  0.4024810347657136  0.9055684473443365  0.513478646865245  1.0000
  H   H14       1.0  0.8892184802720422  0.09433828701197912  0.48624132166744255  1.0000
  H   H15       1.0  0.4758994190909289  0.9909404318531544  0.6652298672752224  1.0000
  H   H16       1.0  0.8110534432935593  0.009192795990919905  0.3344969602082344  1.0000
  H   H17       1.0  0.15472904483943486  0.6943364940265867  0.6749514494988986  1.0000
  H   H18       1.0  0.4810863907214582  0.30572324081296637  0.3253885663275398  1.0000
  H   H19       1.0  0.0933219817075184  0.6153580878903356  0.5231742419810104  1.0000
  H   H20       1.0  0.5712813773021921  0.38440979211956267  0.4771811223756046  1.0000
  C   C1        1.0  0.6134035977498512  0.5979248325366628  0.23714174244791056  1.0000
  C   C2        1.0  0.3756905659895508  0.4020496566805606  0.7628493237490446  1.0000
  C   C3        1.0  0.44038234873676874  0.7026568352593758  0.2784630966720769  1.0000
  C   C4        1.0  0.1614450448216473  0.29709984854073923  0.7213439713011099  1.0000
  C   C5        1.0  0.4839543424978885  0.7543325604151221  0.36465401082478627  1.0000
  C   C6        1.0  0.11921237490919617  0.24535297279170007  0.6351515991221675  1.0000
  C   C7        1.0  0.6994162487408175  0.702097234308994  0.4127060281605992  1.0000
  C   C8        1.0  0.28696767170063  0.2976846280543698  0.5873026414305897  1.0000
  C   C9        1.0  0.8728518204727677  0.5983136115953303  0.36999914077406265  1.0000
  C   C10       1.0  0.5030770331796788  0.40167027089864155  0.6302052243622853  1.0000
  C   C11       1.0  0.8318374466363209  0.547767802514251  0.2840121705146004  1.0000
  C   C12       1.0  0.5476298344230416  0.45227523487191956  0.716176599633755  1.0000
  C   C13       1.0  0.7415633737916991  0.7529673054968102  0.5045731651720403  1.0000
  C   C14       1.0  0.23759069442562716  0.24684108712041558  0.4954375012680928  1.0000
  C   C15       1.0  0.5702663841277696  0.8590186135737242  0.5474595135960598  1.0000
  C   C16       1.0  0.023258917356244503  0.140873149871851  0.4523908365509541  1.0000
  C   C17       1.0  0.6096248546748058  0.9075212697976981  0.6335460102866648  1.0000
  C   C18       1.0  0.9765893015318241  0.09253784412346992  0.3663016133429906  1.0000
  C   C19       1.0  0.8196956180179172  0.8477785292458012  0.6801998743858776  1.0000
  C   C20       1.0  0.1402658318542507  0.15238748542007133  0.3198197727185743  1.0000
  C   C21       1.0  0.9911224722686003  0.7411124880313908  0.6388451310001813  1.0000
  C   C22       1.0  0.35331901353024614  0.25892459685563557  0.3613512604977061  1.0000
  C   C23       1.0  0.9538171040152008  0.6964567032990914  0.5527668277402  1.0000
  C   C24       1.0  0.4020115256461239  0.30339548894482965  0.447442136029963  1.0000
  C   C25       1.0  0.8633919089371742  0.8956514566936138  0.7724756187853784  1.0000
  C   C26       1.0  0.091726848338503  0.1045772720322518  0.2275425206798189  1.0000
  O   O1        1.0  0.7785197517053533  0.6023831301066382  0.09301126063957811  1.0000
  O   O2        1.0  0.684886183546098  0.3978100652573032  0.9070656483824777  1.0000
  O   O3        1.0  0.3010370336854749  0.5886021861420545  0.09306909907105171  1.0000
  O   O4        1.0  0.207240372345872  0.4113717035291132  0.9067965261794627  1.0000
  O   O5        1.0  0.5826946702303673  0.32071329873359383  0.10559792653520358  1.0000
  O   O6        1.0  0.4764504062809251  0.6793613928367819  0.8943369328882229  1.0000
  O   O7        1.0  0.7468432039358815  0.029416995274175402  0.8060713056193549  1.0000
  O   O8        1.0  0.9409138220909979  0.971098118784539  0.19387144285768437  1.0000
  O   O9        1.0  0.0121703715695105  0.8019286475873174  0.8104116400374012  1.0000
  O   O10       1.0  0.20338550563705124  0.19801083737726802  0.1896977989648008  1.0000
  O   O11       1.0  0.4274982880903764  0.9076754855350444  0.06012280850383428  1.0000
  O   O12       1.0  0.36738431360962653  0.09230916686826869  0.9398233020523179  1.0000
  O   O13       1.0  0.9572467890518082  0.22678568867178234  0.020623953962456185  1.0000
  O   O14       1.0  0.9363172765522165  0.773428711482616  0.9793724638488686  1.0000
