data_image0
_chemical_formula_structural       ZnSiH8C24N4F14
_chemical_formula_sum              "Zn1 Si1 H8 C24 N4 F14"
_cell_length_a       7.715653364885916
_cell_length_b       14.021668801198489
_cell_length_c       14.021549460970203
_cell_angle_alpha    90.00084554735
_cell_angle_beta     89.99779246414353
_cell_angle_gamma    89.9987649492892

_space_group_name_H-M_alt    "P 1"
_space_group_IT_number       1

loop_
  _space_group_symop_operation_xyz
  'x, y, z'

loop_
  _atom_site_type_symbol
  _atom_site_label
  _atom_site_symmetry_multiplicity
  _atom_site_fract_x
  _atom_site_fract_y
  _atom_site_fract_z
  _atom_site_occupancy
  Zn  Zn1       1.0  0.5000185255608187  0.4999961352449631  0.4999973249275626  1.0000
  Si  Si1       1.0  1.4207323246800002e-05  0.500007654487696  0.4999890884152549  1.0000
  H   H1        1.0  0.2280020739613136  0.6629205786609518  0.4999686114646735  1.0000
  H   H2        1.0  0.7720065544498239  0.6629223492456118  0.4999699617562072  1.0000
  H   H3        1.0  0.2280227214813095  0.3370984481916038  0.4999740520481737  1.0000
  H   H4        1.0  0.7720362673371922  0.33707739849718604  0.5001914980213584  1.0000
  H   H5        1.0  0.22800346751502323  0.5000289018920796  0.6629094585433535  1.0000
  H   H6        1.0  0.7720118362808819  0.5000292460794425  0.6629093824071504  1.0000
  H   H7        1.0  0.22802002925630654  0.5000200790330352  0.3370909734276211  1.0000
  H   H8        1.0  0.7720348833795044  0.49980361572983156  0.3370687867964577  1.0000
  C   C1        1.0  0.348776539630407  0.7031490264212722  0.4999669115517235  1.0000
  C   C2        1.0  0.34638854036106886  0.802070219004527  0.49998050426042784  1.0000
  C   C3        1.0  0.49999209503884146  0.8563474421136588  0.49998925693069646  1.0000
  C   C4        1.0  0.6536042597370867  0.80207410509788  0.4999843711242847  1.0000
  C   C5        1.0  0.6512266225005376  0.70315222754035  0.4999686894951977  1.0000
  C   C6        1.0  0.4999836479846635  0.9565872938960496  0.5000042604562296  1.0000
  C   C7        1.0  0.49999248629276133  0.04342779904292371  0.5000267627997488  1.0000
  C   C8        1.0  0.5000112558819366  0.14365909267637994  0.5000681539267262  1.0000
  C   C9        1.0  0.3464133496822156  0.19793884784461813  0.5000188373453796  1.0000
  C   C10       1.0  0.3488000595587337  0.2968607253115818  0.5000295265624501  1.0000
  C   C11       1.0  0.6512488424255025  0.2968475241551758  0.5001532595367664  1.0000
  C   C12       1.0  0.6536186966202848  0.19792347899399937  0.5001453725033898  1.0000
  C   C13       1.0  0.348778613284388  0.5000327625995524  0.7031426727325396  1.0000
  C   C14       1.0  0.3463929889328271  0.5000220957412936  0.8020654314871578  1.0000
  C   C15       1.0  0.4999957134766931  0.50001588109523  0.8563395409150869  1.0000
  C   C16       1.0  0.6536048203208153  0.5000202763816474  0.8020664455984702  1.0000
  C   C17       1.0  0.651231288382405  0.5000323977886579  0.7031437374342104  1.0000
  C   C18       1.0  0.49999221376470615  0.499993798907546  0.956575253269605  1.0000
  C   C19       1.0  0.500004660034854  0.4999670917916532  0.0434158308412478  1.0000
  C   C20       1.0  0.500020601617507  0.49992860631103747  0.14365225605605048  1.0000
  C   C21       1.0  0.34641797373612343  0.4999762733365713  0.19793533631916924  1.0000
  C   C22       1.0  0.34880057815108495  0.4999648650524405  0.29685733120432894  1.0000
  C   C23       1.0  0.6512506639923076  0.4998432592334224  0.2968441312800252  1.0000
  C   C24       1.0  0.6536259198086399  0.4998553525115739  0.197920659458191  1.0000
  N   N1        1.0  0.5000025236588215  0.6551160448732458  0.49995639164978195  1.0000
  N   N2        1.0  0.5000306369102887  0.34489334243090036  0.5000960265962817  1.0000
  N   N3        1.0  0.5000079240781616  0.5000414971013427  0.6551078576677439  1.0000
  N   N4        1.0  0.5000291280288707  0.49989799794059303  0.3448882181738142  1.0000
  F   F1        1.0  0.228779020245149  0.5000013075024724  0.49999949447202136  1.0000
  F   F2        1.0  0.7712541425714718  0.5000052266110798  0.4999901632140791  1.0000
  F   F3        1.0  3.106977425919999e-05  0.5855546149524996  0.4144299884809327  1.0000
  F   F4        1.0  6.417435805899998e-06  0.41445570169606316  0.5855481882163146  1.0000
  F   F5        1.0  1.7652931631999927e-06  0.5855680017924454  0.5855401794722113  1.0000
  F   F6        1.0  2.535328373199999e-05  0.4144487335491007  0.414437284194655  1.0000
  F   F7        1.0  0.8068489686133302  0.8479471952022664  0.4999994842850981  1.0000
  F   F8        1.0  0.19313814285126088  0.8479429846414633  0.49998960336127846  1.0000
  F   F9        1.0  0.8068690929394648  0.15205427950323266  0.5001683668862569  1.0000
  F   F10       1.0  0.19315568246499026  0.15207930772524483  0.4999295528763099  1.0000
  F   F11       1.0  0.8068488280037441  0.5000040173225456  0.8479392048092578  1.0000
  F   F12       1.0  0.19314059395780697  0.5000083649814754  0.8479364558004576  1.0000
  F   F13       1.0  0.8068757234387789  0.49983271099548426  0.15204749534021286  1.0000
  F   F14       1.0  0.19316100374141598  0.5000574321017054  0.1520732755441685  1.0000
