data_image0
_chemical_formula_structural       ErH9C5N2O8
_chemical_formula_sum              "Er1 H9 C5 N2 O8"
_cell_length_a       6.530938454773852
_cell_length_b       6.662843544106317
_cell_length_c       6.66250842237634
_cell_angle_alpha    64.41887623066832
_cell_angle_beta     73.1613295290048
_cell_angle_gamma    73.16219391810736

_space_group_name_H-M_alt    "P 1"
_space_group_IT_number       1

loop_
  _space_group_symop_operation_xyz
  'x, y, z'

loop_
  _atom_site_type_symbol
  _atom_site_label
  _atom_site_symmetry_multiplicity
  _atom_site_fract_x
  _atom_site_fract_y
  _atom_site_fract_z
  _atom_site_occupancy
  Er  Er1       1.0  8.24412460081002e-06  0.9961201476406317  0.0038758762247397644  1.0000
  H   H1        1.0  0.8705092701281388  0.46941245233075807  0.1567866077788623  1.0000
  H   H2        1.0  0.12945394676400204  0.8432306947349206  0.5306441365593387  1.0000
  H   H3        1.0  0.5000361876949455  0.08063717136959532  0.9193099567145283  1.0000
  H   H4        1.0  0.17536409725585142  0.4476094133699037  0.5364052392591034  1.0000
  H   H5        1.0  0.8246246403398276  0.46350646874410734  0.5524627888841991  1.0000
  H   H6        1.0  0.5986973627197543  0.20076303380425037  0.36098693721821473  1.0000
  H   H7        1.0  0.40133070289116546  0.6389964778794451  0.7992257803377641  1.0000
  H   H8        1.0  0.4697164828895525  0.4936653187705106  0.2616371615517041  1.0000
  H   H9        1.0  0.5303077422611578  0.7382618931044221  0.5063482244625702  1.0000
  C   C1        1.0  0.03812775398007768  0.4674914139786425  0.054900933199505245  1.0000
  C   C2        1.0  0.9618769158003034  0.9451037616167355  0.5325346023563998  1.0000
  C   C3        1.0  0.5000079279855855  0.9261215608223882  0.07386695255534192  1.0000
  C   C4        1.0  0.2951071519326476  0.29244088524072964  0.5345050662523152  1.0000
  C   C5        1.0  0.7048878286465767  0.4654619454156902  0.7075944552024042  1.0000
  N   N1        1.0  0.468106745039485  0.32940626417533286  0.37173980641266274  1.0000
  N   N2        1.0  0.5318977752441469  0.6282105961504244  0.6706305116677101  1.0000
  O   O1        1.0  0.12964385679115512  0.30615372652561496  0.9902199049041726  1.0000
  O   O2        1.0  0.8703408646458612  0.009850714534692903  0.6938248754859017  1.0000
  O   O3        1.0  0.12529100264528376  0.6342296031387563  0.011225555330938249  1.0000
  O   O4        1.0  0.874703080233502  0.9887397527444651  0.36579406368059586  1.0000
  O   O5        1.0  0.3318764383243789  0.8355223278023448  0.15191296664085027  1.0000
  O   O6        1.0  0.6681060935974232  0.8480736433472632  0.16451539958469383  1.0000
  O   O7        1.0  0.2627097945709167  0.10000479693937342  0.6784304176859878  1.0000
  O   O8        1.0  0.7372752677195749  0.3215931142845322  0.9000234176768133  1.0000
