data_image0
_chemical_formula_structural       Ag10H32C50N18
_chemical_formula_sum              "Ag10 H32 C50 N18"
_cell_length_a       9.19925815769796
_cell_length_b       11.150419521356019
_cell_length_c       13.6089
_cell_angle_alpha    87.59880224079004
_cell_angle_beta     72.7475511223035
_cell_angle_gamma    85.065397864408

_space_group_name_H-M_alt    "P 1"
_space_group_IT_number       1

loop_
  _space_group_symop_operation_xyz
  'x, y, z'

loop_
  _atom_site_type_symbol
  _atom_site_label
  _atom_site_symmetry_multiplicity
  _atom_site_fract_x
  _atom_site_fract_y
  _atom_site_fract_z
  _atom_site_occupancy
  Ag  Ag1       1.0  0.9395966155891528  0.9882057933323053  0.3234375061746632  1.0000
  Ag  Ag2       1.0  0.0604124823816505  0.011794793301334  0.6765575634934464  1.0000
  Ag  Ag3       1.0  0.7086546336669955  0.2905961218393358  0.022221824499212024  1.0000
  Ag  Ag4       1.0  0.29134229568536796  0.7094008636056017  0.9777816868835032  1.0000
  Ag  Ag5       1.0  0.08135268744113941  0.5429233116231273  0.15051533522188273  1.0000
  Ag  Ag6       1.0  0.9186441538577411  0.4570745741189839  0.8494888977219617  1.0000
  Ag  Ag7       1.0  0.493329542666629  0.2410158560659141  0.24279304946298913  1.0000
  Ag  Ag8       1.0  0.5066718516622046  0.758982029676197  0.7572102706808008  1.0000
  Ag  Ag9       1.0  0.2820355831419761  0.20856104317226  0.5000146514405301  1.0000
  Ag  Ag10      1.0  0.7179651948124857  0.7914431446500814  0.499983432245692  1.0000
  H   H1        1.0  0.593438456400122  0.0836664171497858  0.5155459567371992  1.0000
  H   H2        1.0  0.40655812073831044  0.9163341694838536  0.4844538275708032  1.0000
  H   H3        1.0  0.4696326484959883  0.045130997130179706  0.7973517199718145  1.0000
  H   H4        1.0  0.5303615640739848  0.9548704898006406  0.202649977110589  1.0000
  H   H5        1.0  0.855493077830026  0.0109359097955348  0.08259351333727946  1.0000
  H   H6        1.0  0.14450402762929568  0.9890592750550553  0.9174063504834391  1.0000
  H   H7        1.0  0.5809842048365111  0.4731160691989871  0.6740306653141345  1.0000
  H   H8        1.0  0.4190147368703805  0.5268836171374787  0.32597014547246056  1.0000
  H   H9        1.0  0.4345671158576323  0.4343690793430497  0.9607626206139342  1.0000
  H   H10       1.0  0.5654329641067547  0.565630606993416  0.039241636038873706  1.0000
  H   H11       1.0  0.9960610553399929  0.42813632199435864  0.5730072890290641  1.0000
  H   H12       1.0  0.003937534152974792  0.5718669655308091  0.4269942035622946  1.0000
  H   H13       1.0  0.4216001450004113  0.5996519369731175  0.6510450151081812  1.0000
  H   H14       1.0  0.5784032616829505  0.400348649660522  0.3489541348129847  1.0000
  H   H15       1.0  0.7984400957822259  0.3226385986264262  0.666864361385933  1.0000
  H   H16       1.0  0.20155770766717754  0.6773610877100396  0.33313373834768356  1.0000
  H   H17       1.0  0.9654440440065669  0.6447568254851888  0.6242631770563563  1.0000
  H   H18       1.0  0.03455691005486019  0.3552455617427981  0.3757393420135884  1.0000
  H   H19       1.0  0.8071866978844184  0.123718837910765  0.583659581000205  1.0000
  H   H20       1.0  0.19281338207996157  0.8762808484256936  0.4163387971466291  1.0000
  H   H21       1.0  0.9442941698467138  0.819058860223322  0.9850745850032963  1.0000
  H   H22       1.0  0.055705124074108894  0.18093722492444186  0.014923339538782396  1.0000
  H   H23       1.0  0.2740751447680552  0.20313225120165163  0.7761673825712165  1.0000
  H   H24       1.0  0.7259189797484424  0.7968701360263424  0.2238372405120543  1.0000
  H   H25       1.0  0.25361525258497863  0.4023842215752111  0.8618472063506103  1.0000
  H   H26       1.0  0.746384651272443  0.597617265355602  0.13815628898471022  1.0000
  H   H27       1.0  0.6695644640457912  0.9428398186392215  0.7885230259800196  1.0000
  H   H28       1.0  0.33044104304558886  0.0571625685887653  0.21147049734415896  1.0000
  H   H29       1.0  0.8472020538823983  0.7852725078065319  0.8349855900827876  1.0000
  H   H30       1.0  0.1528025791119347  0.21472717852993384  0.16500820119775736  1.0000
  H   H31       1.0  0.18585795003456695  0.7310683157377368  0.6630549047803456  1.0000
  H   H32       1.0  0.8141441422843556  0.2689340714902499  0.3369451816498383  1.0000
  C   C1        1.0  0.33434983430403514  0.4436268352027213  0.603977114603971  1.0000
  C   C2        1.0  0.665648931295891  0.5563746517280919  0.3960236696783781  1.0000
  C   C3        1.0  0.0355548702172612  0.72332485972791  0.198485032716178  1.0000
  C   C4        1.0  0.9644465241115654  0.2766730260142012  0.8015124089216314  1.0000
  C   C5        1.0  0.5942745360922997  0.1694908466301754  0.5508592302737084  1.0000
  C   C6        1.0  0.40572221715309803  0.8305079394091095  0.44914131535178103  1.0000
  C   C7        1.0  0.0780627739795676  0.0760436009615262  0.38869001422352767  1.0000
  C   C8        1.0  0.9219408904264766  0.9239659886438717  0.6113028964704552  1.0000
  C   C9        1.0  0.9321498052753154  0.4299207109969743  0.11227775834509407  1.0000
  C   C10       1.0  0.067841256682641  0.5700780750423107  0.8877298067864388  1.0000
  C   C11       1.0  0.7290630330828592  0.0514051681489534  0.30418880133380805  1.0000
  C   C12       1.0  0.27094063776095106  0.9485927175931579  0.6958111231569717  1.0000
  C   C13       1.0  0.46175672946669266  0.1326173751972632  0.8316335269399886  1.0000
  C   C14       1.0  0.5382410739827107  0.8673823111392025  0.1683667772333663  1.0000
  C   C15       1.0  0.6665431854194493  0.0596906030586624  0.9126453716091518  1.0000
  C   C16       1.0  0.3334580328024188  0.9403090832777963  0.0873527783376673  1.0000
  C   C17       1.0  0.27455908443621274  0.4442822515467668  0.17750349719123895  1.0000
  C   C18       1.0  0.7254394234410385  0.555710232412288  0.8224976478123195  1.0000
  C   C19       1.0  0.817572642302174  0.9929242508311447  0.01625752467365522  1.0000
  C   C20       1.0  0.1824277018226468  0.0070727346137929  0.9837423628560346  1.0000
  C   C21       1.0  0.5872339713549551  0.38741768132322113  0.6371300874709716  1.0000
  C   C22       1.0  0.4127648822984611  0.6125829053104184  0.36286777081050997  1.0000
  C   C23       1.0  0.5561534466069061  0.1549519475367305  0.891705975220063  1.0000
  C   C24       1.0  0.44384672141095655  0.8450468385025545  0.10829462061862928  1.0000
  C   C25       1.0  0.43973869917439146  0.3488129384210694  0.9234744431517186  1.0000
  C   C26       1.0  0.5602626951544422  0.6511849473210418  0.07652740736558167  1.0000
  C   C27       1.0  0.08868286790202971  0.4700595602868418  0.589832261030068  1.0000
  C   C28       1.0  0.9113170359553919  0.5299419266439713  0.4101697646787627  1.0000
  C   C29       1.0  0.3257491238408505  0.5635572225973462  0.6336487622527044  1.0000
  C   C30       1.0  0.6742495537056001  0.43644516463064786  0.3663520087775254  1.0000
  C   C31       1.0  0.7094589041826751  0.3034028491663676  0.6331457666418387  1.0000
  C   C32       1.0  0.2905385470528046  0.6966004383588  0.3668537497097901  1.0000
  C   C33       1.0  0.0715457332078842  0.5901826112771076  0.6186684440282731  1.0000
  C   C34       1.0  0.9284539064890964  0.4098215765452338  0.38133427673744064  1.0000
  C   C35       1.0  0.7139440338875146  0.1923718993554147  0.5885780729141173  1.0000
  C   C36       1.0  0.2860527193578832  0.8076268866838774  0.4114210030848753  1.0000
  C   C37       1.0  0.8665689506744485  0.8860868852654846  0.9622290639645071  1.0000
  C   C38       1.0  0.1334327078148263  0.11390829958509842  0.037766947803170595  1.0000
  C   C39       1.0  0.3517913149553705  0.221003150143062  0.8197833529310826  1.0000
  C   C40       1.0  0.6482087650090094  0.7789965361934038  0.1802194340952283  1.0000
  C   C41       1.0  0.4704928810689069  0.3587675242948833  0.5974761459141078  1.0000
  C   C42       1.0  0.5295083371529614  0.6412321620415824  0.40252347365920826  1.0000
  C   C43       1.0  0.3396579794012524  0.3312220319013619  0.8671570236011091  1.0000
  C   C44       1.0  0.6603444651315868  0.6687767541379301  0.13284678990379456  1.0000
  C   C45       1.0  0.7105132482322105  0.9549902293250341  0.8544505911464029  1.0000
  C   C46       1.0  0.2894937493305889  0.045008556714258  0.14554422661273486  1.0000
  C   C47       1.0  0.812097140596947  0.8674129212431865  0.8793708838832187  1.0000
  C   C48       1.0  0.18790740434390327  0.1325876653904601  0.12062509858494505  1.0000
  C   C49       1.0  0.19365018517336807  0.6376525804702453  0.640392574784272  1.0000
  C   C50       1.0  0.8063519071455475  0.3623498067577486  0.35960898127241586  1.0000
  N   N1        1.0  0.47520882038194395  0.2501133590282762  0.555083493901762  1.0000
  N   N2        1.0  0.5247889830674595  0.7498863273081825  0.4449168102715929  1.0000
  N   N3        1.0  0.21664419909487975  0.39922327819066084  0.5812952300036899  1.0000
  N   N4        1.0  0.7833500134751005  0.6007782087401523  0.41870646707871356  1.0000
  N   N5        1.0  0.35882359453051993  0.37613695770932054  0.20594392684452598  1.0000
  N   N6        1.0  0.6411767495943081  0.623860027735617  0.7940596347513988  1.0000
  N   N7        1.0  0.7214338073755684  0.0776902444962317  0.9920140969125126  1.0000
  N   N8        1.0  0.27856653674925974  0.9223067409487057  0.0079843209906798  1.0000
  N   N9        1.0  0.5453117554176287  0.2632883079002468  0.9359188763805619  1.0000
  N   N10       1.0  0.45468727434274575  0.7367104781390381  0.06408268247139393  1.0000
  N   N11       1.0  0.014455942958342394  0.8159888468535357  0.24047268242469497  1.0000
  N   N12       1.0  0.985549828293486  0.18401083948292302  0.7595238199088286  1.0000
  N   N13       1.0  0.6286416277992756  0.1094185175689333  0.28407929855843145  1.0000
  N   N14       1.0  0.37136405539906997  0.8905820690647063  0.7159215994024564  1.0000
  N   N15       1.0  0.8459982963075345  0.3726870189313161  0.0895145633913756  1.0000
  N   N16       1.0  0.15399740673385756  0.6273108668108023  0.9104891629392355  1.0000
  N   N17       1.0  0.15686003447157046  0.1257355035847567  0.4249185243828109  1.0000
  N   N18       1.0  0.8431424036235099  0.8742749863178148  0.5750731316325711  1.0000
