data_image0
_chemical_formula_structural       Gd4H48C40N4O32
_chemical_formula_sum              "Gd4 H48 C40 N4 O32"
_cell_length_a       9.260225983426405
_cell_length_b       10.65535601510559
_cell_length_c       13.248611759236514
_cell_angle_alpha    89.99963763037842
_cell_angle_beta     93.90850699438367
_cell_angle_gamma    90.00038206837358

_space_group_name_H-M_alt    "P 1"
_space_group_IT_number       1

loop_
  _space_group_symop_operation_xyz
  'x, y, z'

loop_
  _atom_site_type_symbol
  _atom_site_label
  _atom_site_symmetry_multiplicity
  _atom_site_fract_x
  _atom_site_fract_y
  _atom_site_fract_z
  _atom_site_occupancy
  Gd  Gd1       1.0  0.5961774891583289  0.263108207820693  0.6387629788750004  1.0000
  Gd  Gd2       1.0  0.9038186620364284  0.763105682777123  0.36123757826165803  1.0000
  Gd  Gd3       1.0  0.4038202898138649  0.7368911284653806  0.3612379687459537  1.0000
  Gd  Gd4       1.0  0.09618018046517558  0.236895530514019  0.6387603975791053  1.0000
  H   H1        1.0  0.052920216954682096  0.2100643379852443  0.9868324096893915  1.0000
  H   H2        1.0  0.44707898181373906  0.7100619834822764  0.013166790677004797  1.0000
  H   H3        1.0  0.947079712645781  0.7899331213252623  0.013166369452903795  1.0000
  H   H4        1.0  0.5529253009577387  0.28993641432038686  0.9868359566472193  1.0000
  H   H5        1.0  0.6408491569894962  0.05265170538155671  0.8855893004350008  1.0000
  H   H6        1.0  0.859150876318388  0.5526536774615352  0.11441098665458328  1.0000
  H   H7        1.0  0.3591518974670435  0.9473457539053104  0.11441632210929238  1.0000
  H   H8        1.0  0.14085121806760267  0.44734284335969937  0.8855878890478337  1.0000
  H   H9        1.0  0.6182415457607033  0.9739520965312849  0.0650237962492213  1.0000
  H   H10       1.0  0.8817561192588951  0.4739558222929432  0.934974250410967  1.0000
  H   H11       1.0  0.38175732033069204  0.026049116745092204  0.9349779546599067  1.0000
  H   H12       1.0  0.1182427326718454  0.5260435140019837  0.06502523546159009  1.0000
  H   H13       1.0  0.010859615184166697  0.1326669457046066  0.1623108384703329  1.0000
  H   H14       1.0  0.48914011155526527  0.6326686772906314  0.8376895324222886  1.0000
  H   H15       1.0  0.9891424886445247  0.8673314521010341  0.8376895472549749  1.0000
  H   H16       1.0  0.5108609334789235  0.3673325359827686  0.1623145800857486  1.0000
  H   H17       1.0  0.8290268739029186  0.4556372133618324  0.6884035194078919  1.0000
  H   H18       1.0  0.6709717458942706  0.9556356085723079  0.3115954174599551  1.0000
  H   H19       1.0  0.170971982755951  0.5443649384156046  0.3115967214716662  1.0000
  H   H20       1.0  0.3290249506834612  0.0443637277108238  0.6884054818820572  1.0000
  H   H21       1.0  0.7068625543311171  0.485436594167318  0.7653857525564476  1.0000
  H   H22       1.0  0.7931330382837416  0.9854344241098756  0.23461365309432133  1.0000
  H   H23       1.0  0.29313522464785535  0.5145646191090735  0.2346151950600586  1.0000
  H   H24       1.0  0.20686474068506294  0.0145639736810423  0.765387294528864  1.0000
  H   H25       1.0  0.9828548883460612  0.3061290293776011  0.39391229165700276  1.0000
  H   H26       1.0  0.5171458938025352  0.8061289125795313  0.6060867444326732  1.0000
  H   H27       1.0  0.0171439541589393  0.6938731224086964  0.6060856841815366  1.0000
  H   H28       1.0  0.48285188045508665  0.1938713622046535  0.39391344817238405  1.0000
  H   H29       1.0  0.3465120751557221  0.43968651446802187  0.5810664580199898  1.0000
  H   H30       1.0  0.15348554005495876  0.9396858418652131  0.4189322629837449  1.0000
  H   H31       1.0  0.6534867767784078  0.5603137603220603  0.4189330278503506  1.0000
  H   H32       1.0  0.8465133166005145  0.06031537141706881  0.5810679778980372  1.0000
  H   H33       1.0  0.47540071850094995  0.5335241749899495  0.5880303818243391  1.0000
  H   H34       1.0  0.024599364929194695  0.0335224375796201  0.41196899775118107  1.0000
  H   H35       1.0  0.5245970651925873  0.46647609978833054  0.411971320808064  1.0000
  H   H36       1.0  0.9754005741173585  0.9664778372104477  0.5880312914117738  1.0000
  H   H37       1.0  0.8641337351530608  0.3359960353468736  0.22100594550214228  1.0000
  H   H38       1.0  0.6358640108688504  0.8359961847567662  0.7789920490202603  1.0000
  H   H39       1.0  0.13586293783149728  0.6640023624558752  0.7789911787737296  1.0000
  H   H40       1.0  0.3641348363473256  0.16400409003627203  0.22100668183639982  1.0000
  H   H41       1.0  0.6937775243894606  0.3615205298830304  0.2729122526924641  1.0000
  H   H42       1.0  0.8062225802534326  0.8615192572136507  0.7270872273072513  1.0000
  H   H43       1.0  0.30622132754805875  0.6384806834022072  0.7270872331756449  1.0000
  H   H44       1.0  0.19377627167730788  0.13848007908126903  0.272912258565313  1.0000
  H   H45       1.0  0.7771218168535866  0.21104523242939166  0.2832844546720139  1.0000
  H   H46       1.0  0.7228761135725462  0.711044497667885  0.716714936024843  1.0000
  H   H47       1.0  0.22287703980528303  0.7889569193480456  0.7167157862075371  1.0000
  H   H48       1.0  0.27712273836158363  0.28895577712219733  0.2832845498454902  1.0000
  C   C1        1.0  0.8702565897089654  0.1773861517817181  0.817198867471383  1.0000
  C   C2        1.0  0.6297497755782543  0.6773862593184675  0.1828040892189122  1.0000
  C   C3        1.0  0.12974769307268727  0.8226150615064114  0.182803879846162  1.0000
  C   C4        1.0  0.37025015872660555  0.3226074460084689  0.8171954449459592  1.0000
  C   C5        1.0  0.8491402544133846  0.13634621562503213  0.9241796229581  1.0000
  C   C6        1.0  0.6508636213018731  0.6363510401579547  0.0758189018116795  1.0000
  C   C7        1.0  0.15086401893235288  0.8636549976690019  0.0758216143320922  1.0000
  C   C8        1.0  0.349139574360585  0.3636482961398713  0.9241830422176918  1.0000
  C   C9        1.0  0.9543549408701392  0.16002743636265393  0.0025002689854431866  1.0000
  C   C10       1.0  0.5456502072015325  0.6600337929192008  0.9975012117491886  1.0000
  C   C11       1.0  0.0456471535090799  0.8399672074682769  0.9974986067214218  1.0000
  C   C12       1.0  0.45435191551254656  0.33996835885525195  0.002502194021900601  1.0000
  C   C13       1.0  0.7242728956081024  0.07047185533765091  0.9459816559006313  1.0000
  C   C14       1.0  0.7757294217771927  0.5704691270666941  0.054017133175733506  1.0000
  C   C15       1.0  0.27573029062860843  0.9295302964515529  0.054018778094722095  1.0000
  C   C16       1.0  0.22427159494247206  0.42953020923411606  0.9459824492547283  1.0000
  C   C17       1.0  0.7119297967406978  0.0283735310416589  0.04455166442329529  1.0000
  C   C18       1.0  0.7880700423032322  0.5283769279531826  0.9554457178058513  1.0000
  C   C19       1.0  0.28806577025282815  0.9716229897826095  0.9554416365097181  1.0000
  C   C20       1.0  0.21193206154240576  0.4716261623282351  0.0445546679083222  1.0000
  C   C21       1.0  0.9312959628410411  0.11625557619576908  0.09904678454051918  1.0000
  C   C22       1.0  0.5687023699166573  0.6162618864712569  0.9009538592001931  1.0000
  C   C23       1.0  0.06870506801892869  0.8837400061155591  0.9009550629398647  1.0000
  C   C24       1.0  0.4312975879881619  0.3837346343263733  0.0990494500263566  1.0000
  C   C25       1.0  0.8764695727346632  0.352204178477578  0.38446304764318734  1.0000
  C   C26       1.0  0.6235304646051459  0.8522036642969865  0.6155364765599315  1.0000
  C   C27       1.0  0.12352926505576527  0.6477989118068309  0.615534173179455  1.0000
  C   C28       1.0  0.376468382600855  0.1477937950105854  0.3844622543034077  1.0000
  C   C29       1.0  0.7915491459117874  0.31785934798144677  0.4747110088276116  1.0000
  C   C30       1.0  0.7084495656220253  0.8178572188707562  0.5252893850770235  1.0000
  C   C31       1.0  0.20844970131794577  0.6821446807922129  0.5252877220201384  1.0000
  C   C32       1.0  0.2915460391219398  0.18214117892019036  0.47470995596091825  1.0000
  C   C33       1.0  0.9053324437533802  0.49323287582137704  0.3823368649769634  1.0000
  C   C34       1.0  0.594667534768739  0.9932321779713577  0.617662696793488  1.0000
  C   C35       1.0  0.0946674717135494  0.5067702144689293  0.6176596491109478  1.0000
  C   C36       1.0  0.40533348195091884  0.006767158329452601  0.38233688563696683  1.0000
  C   C37       1.0  0.7978217758832641  0.31238399699595487  0.2838421708051441  1.0000
  C   C38       1.0  0.7021768913806311  0.8123831468799948  0.7161574940628129  1.0000
  C   C39       1.0  0.20217707133630108  0.6876172162922388  0.7161565600492921  1.0000
  C   C40       1.0  0.2978197910432314  0.18761618941200453  0.2838411402381809  1.0000
  N   N1        1.0  0.8131394931623744  0.050736928542804094  0.1199427272383957  1.0000
  N   N2        1.0  0.6868572508330644  0.5507422095602124  0.8800528940098927  1.0000
  N   N3        1.0  0.1868626106595386  0.9492595922725258  0.8800576584913671  1.0000
  N   N4        1.0  0.31314484829123046  0.44925994222899857  0.1199467366928388  1.0000
  O   O1        1.0  0.7610170723489347  0.1720385347932734  0.7550209628416197  1.0000
  O   O2        1.0  0.7389827080237907  0.6720340930539024  0.2449734244093165  1.0000
  O   O3        1.0  0.2389817465628852  0.827962678512634  0.2449732379307861  1.0000
  O   O4        1.0  0.2610269772773036  0.3279624277790631  0.755028054286754  1.0000
  O   O5        1.0  0.9961695342270291  0.21200111071855327  0.79736527989661  1.0000
  O   O6        1.0  0.5038305961776146  0.7119937645325507  0.2026387329203203  1.0000
  O   O7        1.0  0.0038293460318001983  0.7880038565295848  0.2026387360446265  1.0000
  O   O8        1.0  0.4961801904168865  0.2880102642527831  0.7973658140915845  1.0000
  O   O9        1.0  0.8594620324073999  0.28549051929041974  0.5579690568134055  1.0000
  O   O10       1.0  0.6405332122497782  0.7854886517177633  0.44203361088182186  1.0000
  O   O11       1.0  0.14053465474797378  0.7145125709792453  0.442030332492358  1.0000
  O   O12       1.0  0.3594645572797218  0.2145088075839112  0.5579658267162486  1.0000
  O   O13       1.0  0.653724161638678  0.3215951257437908  0.4677965958194151  1.0000
  O   O14       1.0  0.8462724073698381  0.8215909240481097  0.532202928792664  1.0000
  O   O15       1.0  0.34627359847863903  0.6784089030298831  0.5322013317357204  1.0000
  O   O16       1.0  0.15372752695197528  0.1784074737546035  0.4677966053610731  1.0000
  O   O17       1.0  0.9870577365762611  0.5373238670277658  0.3181040699149875  1.0000
  O   O18       1.0  0.512943273100582  0.0373236945706168  0.6818970932014423  1.0000
  O   O19       1.0  0.012941096499602598  0.46268016175474697  0.6818923958917509  1.0000
  O   O20       1.0  0.48705881659457617  0.9626803342148166  0.31810102746948843  1.0000
  O   O21       1.0  0.8406055904790221  0.5660934641329405  0.4419744948682407  1.0000
  O   O22       1.0  0.6593923657126195  0.0660951124394558  0.5580241218569952  1.0000
  O   O23       1.0  0.1593943344102654  0.43390587217083265  0.5580235292559266  1.0000
  O   O24       1.0  0.34061190762295007  0.9339032853691126  0.4419771154398831  1.0000
  O   O25       1.0  0.7242736847024458  0.4463091710219091  0.6975682014952796  1.0000
  O   O26       1.0  0.7757205381256752  0.9463073057042947  0.30243058651806354  1.0000
  O   O27       1.0  0.2757240801260465  0.5536929807584985  0.30243048107797676  1.0000
  O   O28       1.0  0.22427830908372198  0.0536910920984255  0.6975681443430517  1.0000
  O   O29       1.0  0.4505400403474411  0.4471186687320668  0.6039032821927037  1.0000
  O   O30       1.0  0.0494608757351784  0.9471166353876298  0.396095548386235  1.0000
  O   O31       1.0  0.5494598987024942  0.5528825445531567  0.3960970069680272  1.0000
  O   O32       1.0  0.9505390633113677  0.052883639402438114  0.6039047407767271  1.0000
