data_image0
_chemical_formula_structural       Zn4H24C48O16
_chemical_formula_sum              "Zn4 H24 C48 O16"
_cell_length_a       4.832652884012355
_cell_length_b       12.928440179483484
_cell_length_c       16.829024055988125
_cell_angle_alpha    111.22079673706888
_cell_angle_beta     89.99984818590322
_cell_angle_gamma    89.99985605701384

_space_group_name_H-M_alt    "P 1"
_space_group_IT_number       1

loop_
  _space_group_symop_operation_xyz
  'x, y, z'

loop_
  _atom_site_type_symbol
  _atom_site_label
  _atom_site_symmetry_multiplicity
  _atom_site_fract_x
  _atom_site_fract_y
  _atom_site_fract_z
  _atom_site_occupancy
  Zn  Zn1       1.0  0.28570516302066545  0.9267416412627797  0.054001542152278086  1.0000
  Zn  Zn2       1.0  0.7857090392527653  0.5732568783186807  0.9459962175412072  1.0000
  Zn  Zn3       1.0  0.7142965085270206  0.0732585320989685  0.9459979134739882  1.0000
  Zn  Zn4       1.0  0.21429884006648336  0.4267424598718747  0.05400359615668998  1.0000
  H   H1        1.0  0.8470679591334971  0.5654499321499246  0.23957058903692294  1.0000
  H   H2        1.0  0.3470717966281001  0.9345459848959765  0.7604287668482571  1.0000
  H   H3        1.0  0.1529275046503571  0.4345494169147129  0.7604280392917104  1.0000
  H   H4        1.0  0.6529236671462826  0.06545418303799978  0.23957128146979298  1.0000
  H   H5        1.0  0.8167770108624807  0.7251108704489087  0.37337229769295993  1.0000
  H   H6        1.0  0.31677697410043487  0.7748859378501437  0.6266255496539017  1.0000
  H   H7        1.0  0.1832246606795991  0.274889292048023  0.6266283433097115  1.0000
  H   H8        1.0  0.6832226281960132  0.22511424637797006  0.3733727205971391  1.0000
  H   H9        1.0  0.521447994218839  0.7170752585619979  0.49315750923749135  1.0000
  H   H10       1.0  0.021451112646985803  0.7829244743772247  0.5068419750088324  1.0000
  H   H11       1.0  0.47855160807695546  0.2829232499005769  0.5068420698521763  1.0000
  H   H12       1.0  0.9785505588957548  0.21707736388523813  0.4931573571552264  1.0000
  H   H13       1.0  0.2558077966524692  0.5457834637879769  0.4764915041176394  1.0000
  H   H14       1.0  0.7558131601607557  0.9542184030630806  0.5235090065490695  1.0000
  H   H15       1.0  0.7441855978706827  0.45421671501236455  0.5235073588251851  1.0000
  H   H16       1.0  0.244184372862712  0.0457834243376496  0.4764915109937887  1.0000
  H   H17       1.0  0.127632870134903  0.35300396152175034  0.390487349799308  1.0000
  H   H18       1.0  0.6276394568854897  0.14699880842244534  0.6095159143133343  1.0000
  H   H19       1.0  0.8723646629068612  0.6469945523747852  0.6095116366033437  1.0000
  H   H20       1.0  0.37235600687554177  0.8530030081150101  0.3904857886071226  1.0000
  H   H21       1.0  0.17477999951344  0.1881325258759787  0.2571821846802038  1.0000
  H   H22       1.0  0.6747862921123441  0.31186933308738674  0.7428219758577795  1.0000
  H   H23       1.0  0.8252278798047428  0.8118676474811366  0.7428172709424812  1.0000
  H   H24       1.0  0.325215379420264  0.6881316482788761  0.2571800851343156  1.0000
  C   C1        1.0  0.4684455234930098  0.16679739954999204  0.11799862420080838  1.0000
  C   C2        1.0  0.9684524197577031  0.33320070208711167  0.8820042594279798  1.0000
  C   C3        1.0  0.5315271784591928  0.8331960762036486  0.8820054741084249  1.0000
  C   C4        1.0  0.031528559213079205  0.6668061526225766  0.11799233160855484  1.0000
  C   C5        1.0  0.7385655494400111  0.37950937883455543  0.12941968440724594  1.0000
  C   C6        1.0  0.2385662874367398  0.1204874228050414  0.8705812168768787  1.0000
  C   C7        1.0  0.26143612209646955  0.6204907727975523  0.8705821419718447  1.0000
  C   C8        1.0  0.7614291763425881  0.8795110802282196  0.1294189549033788  1.0000
  C   C9        1.0  0.44702800446986407  0.26883101448699154  0.19618361423117386  1.0000
  C   C10       1.0  0.9470342530909193  0.23116712455546923  0.8038187013940075  1.0000
  C   C11       1.0  0.5529819440984768  0.7311699831703249  0.8038166686915247  1.0000
  C   C12       1.0  0.052973626226609796  0.7688313730361144  0.19618206306730454  1.0000
  C   C13       1.0  0.5820963220104217  0.36624464124245276  0.20235012146810044  1.0000
  C   C14       1.0  0.0820997348103418  0.13375239940764772  0.7976503674609602  1.0000
  C   C15       1.0  0.4179074187923674  0.6337546915187814  0.7976502849203868  1.0000
  C   C16       1.0  0.917899867474908  0.8662477630908256  0.20235027354290477  1.0000
  C   C17       1.0  0.5682440349675061  0.46117354324988463  0.27940030650113096  1.0000
  C   C18       1.0  0.06824674211980408  0.038824353246241096  0.7205998403182363  1.0000
  C   C19       1.0  0.43175349806264063  0.5388274598491022  0.7205993837405201  1.0000
  C   C20       1.0  0.9317487216545784  0.9611758146877276  0.2794002079998065  1.0000
  C   C21       1.0  0.7157237237893099  0.5606373354463868  0.2906952941811056  1.0000
  C   C22       1.0  0.21572801557691432  0.9393596074063667  0.709304447694322  1.0000
  C   C23       1.0  0.2842738092419026  0.43936283248604013  0.7093047541357507  1.0000
  C   C24       1.0  0.7842674482013406  0.0606397307934543  0.2906953660107234  1.0000
  C   C25       1.0  0.6996511485988179  0.6502083780741613  0.3663505419827543  1.0000
  C   C26       1.0  0.19965054735742876  0.8497894239422478  0.6336488603443229  1.0000
  C   C27       1.0  0.3003505229499339  0.3497909601210267  0.6336492717187099  1.0000
  C   C28       1.0  0.8003469856765904  0.1502107494225911  0.3663505952843237  1.0000
  C   C29       1.0  0.5322831431992371  0.6454356833054433  0.43381820232209384  1.0000
  C   C30       1.0  0.032285221215318  0.8545640280272481  0.566181862125255  1.0000
  C   C31       1.0  0.4677143898309097  0.3545653197935509  0.5661814879195575  1.0000
  C   C32       1.0  0.9677123118081497  0.14543779937348938  0.43381865541760317  1.0000
  C   C33       1.0  0.3847848058044221  0.5504825290287484  0.4246840224792976  1.0000
  C   C34       1.0  0.8847876385153126  0.94951748038428  0.5753164630018545  1.0000
  C   C35       1.0  0.6152065194591003  0.44951764434072317  0.5753154331529301  1.0000
  C   C36       1.0  0.1152078252551973  0.050483517283844  0.4246838199291929  1.0000
  C   C37       1.0  0.4005780509036825  0.45603148957352596  0.34832039574960305  1.0000
  C   C38       1.0  0.9005807826421802  0.04396839457842108  0.6516806645737176  1.0000
  C   C39       1.0  0.5994153436166699  0.5439686837944038  0.6516790598814308  1.0000
  C   C40       1.0  0.09941054261186369  0.9560325976603891  0.34832021104792676  1.0000
  C   C41       1.0  0.2572244544135102  0.3563471469227437  0.3383975017727821  1.0000
  C   C42       1.0  0.757230567927749  0.14365459983100243  0.6616053783695932  1.0000
  C   C43       1.0  0.742771009349255  0.6436555102136906  0.6616032503842673  1.0000
  C   C44       1.0  0.24276489584383404  0.8563455626705618  0.3383952626366593  1.0000
  C   C45       1.0  0.28256936542219796  0.26502593629621174  0.26481621009205003  1.0000
  C   C46       1.0  0.7825783108131149  0.23497411315177164  0.7351861716120495  1.0000
  C   C47       1.0  0.7174281676301105  0.7349709235644255  0.7351817143963899  1.0000
  C   C48       1.0  0.21741922220088838  0.7650285331182971  0.26481576592021844  1.0000
  O   O1        1.0  0.30444686144541316  0.08768684349412582  0.1126571300193717  1.0000
  O   O2        1.0  0.8044531812661688  0.4123123489949521  0.8873443991706792  1.0000
  O   O3        1.0  0.6955568793339708  0.9123241653017471  0.8873400413808454  1.0000
  O   O4        1.0  0.1955650443608974  0.5876794998508641  0.11265567375707518  1.0000
  O   O5        1.0  0.6530669451605463  0.16679664684040318  0.06379083027153598  1.0000
  O   O6        1.0  0.15307185334226148  0.3332019418982526  0.9362106387754634  1.0000
  O   O7        1.0  0.34695541897161064  0.8332018833348229  0.9362063780521835  1.0000
  O   O8        1.0  0.8469505107597398  0.6667982042860102  0.06379178027991363  1.0000
  O   O9        1.0  0.6128004548791566  0.4030142113312252  0.0715319394842311  1.0000
  O   O10       1.0  0.1128007984477506  0.0969827780530679  0.9284691067475277  1.0000
  O   O11       1.0  0.38720535517659027  0.5969859511626152  0.9284687015160599  1.0000
  O   O12       1.0  0.88720087310422  0.9030140546424336  0.07153178117956578  1.0000
  O   O13       1.0  0.0006933820097287999  0.3769171696162984  0.1337521565916262  1.0000
  O   O14       1.0  0.5006935472130323  0.12308165745671573  0.8662483026960217  1.0000
  O   O15       1.0  0.9993165665663567  0.6230821685727149  0.8662476571050773  1.0000
  O   O16       1.0  0.49931019357920553  0.8769193293404101  0.13375316560667014  1.0000
