data_image0
_chemical_formula_structural       Cu4H28C28I4N8
_chemical_formula_sum              "Cu4 H28 C28 I4 N8"
_cell_length_a       8.250773557844182
_cell_length_b       8.250753377384138
_cell_length_c       13.784540624469443
_cell_angle_alpha    100.43467110446396
_cell_angle_beta     100.43376648826867
_cell_angle_gamma    107.12096196885007

_space_group_name_H-M_alt    "P 1"
_space_group_IT_number       1

loop_
  _space_group_symop_operation_xyz
  'x, y, z'

loop_
  _atom_site_type_symbol
  _atom_site_label
  _atom_site_symmetry_multiplicity
  _atom_site_fract_x
  _atom_site_fract_y
  _atom_site_fract_z
  _atom_site_occupancy
  Cu  Cu1       1.0  0.21267752473778512  0.787320419546859  0.7499979893854061  1.0000
  Cu  Cu2       1.0  0.7873193766428201  0.2126809359814672  0.24999941244023918  1.0000
  Cu  Cu3       1.0  0.014357255871886025  0.9856371667572008  0.7499971028741825  1.0000
  Cu  Cu4       1.0  0.9856380550401697  0.014362983686702099  0.25000363996012  1.0000
  H   H1        1.0  0.9872914316068204  0.3347278035530507  0.8158616010736778  1.0000
  H   H2        1.0  0.6652662809476622  0.012714312461703505  0.68413921037439  1.0000
  H   H3        1.0  0.01272022506531562  0.6652801785510434  0.1841459753051993  1.0000
  H   H4        1.0  0.3347224039420028  0.987295120659745  0.31586253058516434  1.0000
  H   H5        1.0  0.8279260281589913  0.4703581683218801  0.9221406233408089  1.0000
  H   H6        1.0  0.52965199051188  0.17210000583773424  0.5778667468454444  1.0000
  H   H7        1.0  0.1721062049630007  0.5296590099993352  0.0778779883466711  1.0000
  H   H8        1.0  0.47035113733458894  0.8279089852186701  0.4221248214298967  1.0000
  H   H9        1.0  0.7103579922905965  0.011921597397162  0.043583835398436584  1.0000
  H   H10       1.0  0.9880840477401801  0.28963683133004303  0.45641512099771825  1.0000
  H   H11       1.0  0.289626892170098  0.9880771947533021  0.9564098940696792  1.0000
  H   H12       1.0  0.011917859407383059  0.7103328831868512  0.5435773717164523  1.0000
  H   H13       1.0  0.8559088962422335  0.8843093182320132  0.9202656487568175  1.0000
  H   H14       1.0  0.11568430033026542  0.14407969153383962  0.579728552907433  1.0000
  H   H15       1.0  0.14407923660166233  0.11568814602112103  0.079729003269442  1.0000
  H   H16       1.0  0.8843046807305797  0.8558915965061973  0.42026785414963547  1.0000
  H   H17       1.0  0.6122946245290919  0.4281768860193937  0.030763051719802096  1.0000
  H   H18       1.0  0.5718345473207834  0.38771961807782424  0.4692445195008474  1.0000
  H   H19       1.0  0.3877284164064108  0.571842733404239  0.9692439840792062  1.0000
  H   H20       1.0  0.4281693178862653  0.6122698420549568  0.5307523763800006  1.0000
  H   H21       1.0  0.4163255624323625  0.2651816714546272  0.1909170465215269  1.0000
  H   H22       1.0  0.734806758738152  0.583670832786801  0.3090828602486865  1.0000
  H   H23       1.0  0.5836649157802682  0.7348224134946835  0.8090814275204893  1.0000
  H   H24       1.0  0.2651844748333616  0.41633191204530834  0.6909148282440754  1.0000
  H   H25       1.0  0.4941977430987309  0.4670365660710517  0.15604173178130054  1.0000
  H   H26       1.0  0.5329560148044905  0.5057959864531939  0.3439618083673821  1.0000
  H   H27       1.0  0.5057991950810958  0.5329648262704368  0.8439571287106773  1.0000
  H   H28       1.0  0.4670408804237809  0.4942015573826382  0.6560402807010774  1.0000
  C   C1        1.0  0.9230913882921783  0.2658691300531118  0.8664904601940578  1.0000
  C   C2        1.0  0.7341354496375702  0.07691942476129299  0.6335097494572607  1.0000
  C   C3        1.0  0.07692543232978731  0.7341466655349368  0.13351772191244754  1.0000
  C   C4        1.0  0.265858504364644  0.9230806091331942  0.3664857633243699  1.0000
  C   C5        1.0  0.8349757068077397  0.34214391930994037  0.9271698328768136  1.0000
  C   C6        1.0  0.657864428933145  0.16503951268730083  0.5728370617759708  1.0000
  C   C7        1.0  0.1650457007076725  0.6578706465236126  0.07284377250734053  1.0000
  C   C8        1.0  0.34213473852409493  0.8349578224894358  0.4271579834019192  1.0000
  C   C9        1.0  0.759212172150491  0.254172542396674  0.9945509214464963  1.0000
  C   C10       1.0  0.7458361411524164  0.24079754509112666  0.5054546605948573  1.0000
  C   C11       1.0  0.24079827480871083  0.7458354704106472  0.005457259545011121  1.0000
  C   C12       1.0  0.2541687309131362  0.7591984375949821  0.49454155658224147  1.0000
  C   C13       1.0  0.7692198370992712  0.08704255609693941  0.9937618272318146  1.0000
  C   C14       1.0  0.9129607909810532  0.2307831803559708  0.50623951642023  1.0000
  C   C15       1.0  0.23077883874600508  0.9129601885816145  0.0062395269168007295  1.0000
  C   C16       1.0  0.08703689117037788  0.7691957370254345  0.49375203586076577  1.0000
  C   C17       1.0  0.851344536808213  0.0164737869642408  0.926435439975684  1.0000
  C   C18       1.0  0.9835193948858459  0.1486503448231744  0.5735611367465339  1.0000
  C   C19       1.0  0.1486527023764381  0.9835249558460788  0.07356245403040869  1.0000
  C   C20       1.0  0.016472293899724422  0.8513287812941073  0.4264356265971045  1.0000
  C   C21       1.0  0.6672068866303252  0.33386024891044036  0.05908755648699332  1.0000
  C   C22       1.0  0.6661510846459893  0.33280782528240854  0.4409150026075679  1.0000
  C   C23       1.0  0.3328077235725218  0.6661528665199938  0.9409172216930841  1.0000
  C   C24       1.0  0.3338487216201286  0.6671842476451528  0.5590795682649059  1.0000
  C   C25       1.0  0.5348491866310283  0.37381391778132683  0.1943444182253131  1.0000
  C   C26       1.0  0.6261814008161436  0.4651465849400935  0.3056589872428788  1.0000
  C   C27       1.0  0.46514210213933194  0.626188882270526  0.8056554582669407  1.0000
  C   C28       1.0  0.3738135538922478  0.5348561598152415  0.6943405340778099  1.0000
  I   I1        1.0  0.8772105620872352  0.6458660970382583  0.7275628522067874  1.0000
  I   I2        1.0  0.35413240908366816  0.12278879571630343  0.7724346452762275  1.0000
  I   I3        1.0  0.12278885071730632  0.35413528911652054  0.2724369870594145  1.0000
  I   I4        1.0  0.6458645474957765  0.8772126150317663  0.22756494454890944  1.0000
  N   N1        1.0  0.9305746437036077  0.10379380671395921  0.8643531122733563  1.0000
  N   N2        1.0  0.8962034056788826  0.06942381541323071  0.6356435571219663  1.0000
  N   N3        1.0  0.0694258495578951  0.8962141756204718  0.13564896562174064  1.0000
  N   N4        1.0  0.10378593072562142  0.9305698064441831  0.36435517753447755  1.0000
  N   N5        1.0  0.6470537620810646  0.2989343432906468  0.14445338795630394  1.0000
  N   N6        1.0  0.7010665354438005  0.35294714942344296  0.355550241747487  1.0000
  N   N7        1.0  0.352937428538894  0.7010645530358062  0.855547529112947  1.0000
  N   N8        1.0  0.2989373784084465  0.6470567266364358  0.6444466868877399  1.0000
