data_image0
_chemical_formula_structural       Cd2H32C52S4N16
_chemical_formula_sum              "Cd2 H32 C52 S4 N16"
_cell_length_a       9.229889318772413
_cell_length_b       9.780186556071035
_cell_length_c       15.1047
_cell_angle_alpha    103.98855721141209
_cell_angle_beta     106.03176013073711
_cell_angle_gamma    97.907729838688

_space_group_name_H-M_alt    "P 1"
_space_group_IT_number       1

loop_
  _space_group_symop_operation_xyz
  'x, y, z'

loop_
  _atom_site_type_symbol
  _atom_site_label
  _atom_site_symmetry_multiplicity
  _atom_site_fract_x
  _atom_site_fract_y
  _atom_site_fract_z
  _atom_site_occupancy
  Cd  Cd1       1.0  0.0077402300877765055  0.7363260635355999  0.282777037551341  1.0000
  Cd  Cd2       1.0  0.9922606812188874  0.2636747233274619  0.7172229745772043  1.0000
  H   H1        1.0  0.4149773965247975  0.0046190136090871  0.6495432352736259  1.0000
  H   H2        1.0  0.5850213749434516  0.995377453390887  0.35045706370087254  1.0000
  H   H3        1.0  0.6414970225456286  0.9083926902087286  0.6293571991099114  1.0000
  H   H4        1.0  0.3585028762004612  0.0916037767912457  0.3706439521459189  1.0000
  H   H5        1.0  0.6119512165055239  0.72321203915984  0.4712251643149798  1.0000
  H   H6        1.0  0.38804780810286127  0.2767855078059043  0.5287753464118907  1.0000
  H   H7        1.0  0.3604227025105544  0.658396813356056  0.34009287638032504  1.0000
  H   H8        1.0  0.6395782087961094  0.3416039735070058  0.6599071357482201  1.0000
  H   H9        1.0  0.7984136025796857  0.2421034869870695  0.35834278281556214  1.0000
  H   H10       1.0  0.2015873087269782  0.7578972998759924  0.6416578913585766  1.0000
  H   H11       1.0  0.7099891563639033  0.2553449473239837  0.19103188379715869  1.0000
  H   H12       1.0  0.2900103745247691  0.7446547595733009  0.808969050434456  1.0000
  H   H13       1.0  0.7255516736335181  0.0529291225113937  0.055672598621235615  1.0000
  H   H14       1.0  0.2744506180911372  0.9470727443174454  0.9443284775410133  1.0000
  H   H15       1.0  0.8307122005855376  0.8442340835946354  0.09856830293421842  1.0000
  H   H16       1.0  0.16928896386126263  0.1557677832341966  0.9014325829922926  1.0000
  H   H17       1.0  0.1472843875193846  0.22161113645343283  0.09559355242252109  1.0000
  H   H18       1.0  0.8527179042052637  0.7783907303753992  0.9044068616941345  1.0000
  H   H19       1.0  0.22772011760218894  0.1413200011293796  0.2425506133561299  1.0000
  H   H20       1.0  0.7722807937044749  0.8586807857336822  0.7574493987724153  1.0000
  H   H21       1.0  0.1941407586915389  0.2897872157413133  0.3968246945431488  1.0000
  H   H22       1.0  0.805860152615125  0.7102135711217485  0.6031753175854034  1.0000
  H   H23       1.0  0.08505395385057571  0.5071756860241763  0.3929175421461864  1.0000
  H   H24       1.0  0.9149458301782399  0.49282510083888553  0.6070816177010343  1.0000
  H   H25       1.0  0.6328130151307079  0.2836648897768796  0.9766104753047031  1.0000
  H   H26       1.0  0.3671867688981081  0.7163358970861822  0.023389346588103908  1.0000
  H   H27       1.0  0.4041518577649795  0.279819131660922  0.03586595227444181  1.0000
  H   H28       1.0  0.5958476731236928  0.7201805752363697  0.9641343199115866  1.0000
  H   H29       1.0  0.4076506451210803  0.4889782627571506  0.17112525580851207  1.0000
  H   H30       1.0  0.5923486326274485  0.5110203641743638  0.8288748046251442  1.0000
  H   H31       1.0  0.6464249497280717  0.6876012477766409  0.24789038278694867  1.0000
  H   H32       1.0  0.3535743280204571  0.3123973791548735  0.7521103396922941  1.0000
  C   C1        1.0  0.12910760097947357  0.943856606246868  0.5070595693579348  1.0000
  C   C2        1.0  0.8708933103271901  0.056144180616193806  0.4929411048162038  1.0000
  C   C3        1.0  0.9264134411638949  0.0199664072024177  0.41385594493883093  1.0000
  C   C4        1.0  0.07358747014276898  0.9800343796606442  0.5861447292353077  1.0000
  C   C5        1.0  0.26718303091928414  0.8831236510632152  0.504340909560625  1.0000
  C   C6        1.0  0.7328176272472362  0.1168760558340693  0.49565889081554815  1.0000
  C   C7        1.0  0.4051449521260649  0.9271959742741416  0.5816957132326123  1.0000
  C   C8        1.0  0.5948551997601755  0.0728015726916027  0.418304325684403  1.0000
  C   C9        1.0  0.5323813885023368  0.872074521244528  0.5704762291222208  1.0000
  C   C10       1.0  0.467617889246192  0.1279241056869935  0.4295238313114353  1.0000
  C   C11       1.0  0.5179479816296109  0.7731150975766212  0.4833268273854401  1.0000
  C   C12       1.0  0.482052423396766  0.2268835293548932  0.5166740853295408  1.0000
  C   C13       1.0  0.3765923713089805  0.7353260152302425  0.40959632060991413  1.0000
  C   C14       1.0  0.6234069064395555  0.2646726117012719  0.5904030777781558  1.0000
  C   C15       1.0  0.8597597399422128  0.034750058662496  0.3160849923860951  1.0000
  C   C16       1.0  0.14024091822430762  0.9652496482347884  0.6839154700356714  1.0000
  C   C17       1.0  0.8029936869826244  0.154574421055564  0.29937658260232064  1.0000
  C   C18       1.0  0.19700609704619146  0.8454263658074979  0.7006239013360727  1.0000
  C   C19       1.0  0.7537561159724291  0.1621428211894056  0.2051042865386066  1.0000
  C   C20       1.0  0.2462434149162434  0.837856885707879  0.7948959856474148  1.0000
  C   C21       1.0  0.7623806222895411  0.0506817137387685  0.1304410166793843  1.0000
  C   C22       1.0  0.2376202890171228  0.9493190731242933  0.8695596574947472  1.0000
  C   C23       1.0  0.8206548704383394  0.9348226925597061  0.15359874788436656  1.0000
  C   C24       1.0  0.17934491359047658  0.0651780943033557  0.8464010740084404  1.0000
  C   C25       1.0  0.03077390801924201  0.45500253955355424  0.07996224624749712  1.0000
  C   C26       1.0  0.9692247487317259  0.5449982473095076  0.9200373854095716  1.0000
  C   C27       1.0  0.891332618430212  0.4971914024571973  0.04446216981366993  1.0000
  C   C28       1.0  0.1086657851806123  0.5028083044400944  0.955537912136613  1.0000
  C   C29       1.0  0.07286295739045559  0.4047258129794784  0.1668877930379011  1.0000
  C   C30       1.0  0.9271368266383604  0.5952749738835834  0.8331113668093195  1.0000
  C   C31       1.0  0.1346767289384232  0.28136564264717384  0.1629302888637554  1.0000
  C   C32       1.0  0.8653255627862322  0.7186362241816582  0.8370701252529074  1.0000
  C   C33       1.0  0.17889864693565016  0.2370190081300265  0.2454788091790263  1.0000
  C   C34       1.0  0.8211013902333093  0.7629828586988054  0.7545218865117391  1.0000
  C   C35       1.0  0.1605940718910546  0.3178684857584813  0.32967983543292684  1.0000
  C   C36       1.0  0.8394057121377613  0.6821323011045806  0.6703199864598801  1.0000
  C   C37       1.0  0.09880948678365799  0.4398430600046339  0.3280456128846652  1.0000
  C   C38       1.0  0.9011914245230057  0.5601577268584279  0.6719543992438801  1.0000
  C   C39       1.0  0.7595467512871038  0.4866336570650063  0.08384362971667508  1.0000
  C   C40       1.0  0.2404505250458797  0.5133660498322854  0.9161555999522832  1.0000
  C   C41       1.0  0.6320917467145079  0.370636693369768  0.037395231967110476  1.0000
  C   C42       1.0  0.3679077841741716  0.6293630135275237  0.9626043781733316  1.0000
  C   C43       1.0  0.5049012483970898  0.3691517404325424  0.07017166780709518  1.0000
  C   C44       1.0  0.4950971552137347  0.6308479664647422  0.9298277520976015  1.0000
  C   C45       1.0  0.506894074796257  0.48456876250794073  0.14592639616445516  1.0000
  C   C46       1.0  0.4931040756744308  0.5154298644235809  0.8540728119878693  1.0000
  C   C47       1.0  0.6385633484619645  0.5954315689205956  0.187985058189426  1.0000
  C   C48       1.0  0.3614361824267078  0.40456813797668906  0.8120152139965953  1.0000
  C   C49       1.0  0.24610118399571226  0.8610415909124214  0.1733761592761169  1.0000
  C   C50       1.0  0.7539008545887996  0.1389591959506404  0.8266240430881665  1.0000
  C   C51       1.0  0.7982167362971423  0.577778448402924  0.3963913902847551  1.0000
  C   C52       1.0  0.2017761456417233  0.4222169386312729  0.6036090698498526  1.0000
  S   S1        1.0  0.3857190937070456  0.9551930069610465  0.15303259322436696  1.0000
  S   S2        1.0  0.6142846931528751  0.0448056199704681  0.846967566106656  1.0000
  S   S3        1.0  0.6689744874842347  0.4598267466594166  0.4077364603001001  1.0000
  S   S4        1.0  0.3310260559650047  0.5401772801009628  0.5922633348042297  1.0000
  N   N1        1.0  0.0531890927937368  0.965537999096057  0.42415293648493696  1.0000
  N   N2        1.0  0.946811818512927  0.034462787767005  0.5758477376892016  1.0000
  N   N3        1.0  0.2544824842803521  0.7896526134512811  0.419006998454833  1.0000
  N   N4        1.0  0.7455193011640162  0.21034709344601052  0.5809929921570854  1.0000
  N   N5        1.0  0.8685784355048012  0.9270588186210276  0.24394832081922144  1.0000
  N   N6        1.0  0.1314213485240145  0.0729419682420342  0.7560521631191719  1.0000
  N   N7        1.0  0.05551341438573592  0.48330628251985536  0.2486856023708981  1.0000
  N   N8        1.0  0.9444861165029366  0.5166934243774293  0.7513133457239505  1.0000
  N   N9        1.0  0.7638108659219398  0.5957641983785322  0.159037433381144  1.0000
  N   N10       1.0  0.2361886649667397  0.4042355085187523  0.8409628388048844  1.0000
  N   N11       1.0  0.8638689403419092  0.5426687611381737  0.9659720078704056  1.0000
  N   N12       1.0  0.1361308436869066  0.4573320257248882  0.034027814022401494  1.0000
  N   N13       1.0  0.1439958206841752  0.7918989422581291  0.1883667297982825  1.0000
  N   N14       1.0  0.8560044696249277  0.208104004536473  0.8116348396904414  1.0000
  N   N15       1.0  0.8920903255439183  0.6670462592282007  0.38867841315532564  1.0000
  N   N16       1.0  0.10791686685513469  0.3329620873952734  0.6113205319548385  1.0000
