data_image0
_chemical_formula_structural       Ag4H32C24S8O8F12
_chemical_formula_sum              "Ag4 H32 C24 S8 O8 F12"
_cell_length_a       6.906377828001722
_cell_length_b       8.250630614576048
_cell_length_c       17.262588928203684
_cell_angle_alpha    90.00135236287139
_cell_angle_beta     90.00003983207026
_cell_angle_gamma    89.99992778061281

_space_group_name_H-M_alt    "P 1"
_space_group_IT_number       1

loop_
  _space_group_symop_operation_xyz
  'x, y, z'

loop_
  _atom_site_type_symbol
  _atom_site_label
  _atom_site_symmetry_multiplicity
  _atom_site_fract_x
  _atom_site_fract_y
  _atom_site_fract_z
  _atom_site_occupancy
  Ag  Ag1       1.0  0.2767989771666777  0.57093873840968  0.22481947863468585  1.0000
  Ag  Ag2       1.0  0.22320123919465118  0.4290577183656055  0.7248247846898722  1.0000
  Ag  Ag3       1.0  0.7767993392293491  0.9290592453704958  0.7751747062060731  1.0000
  Ag  Ag4       1.0  0.7232041754566721  0.07093554715062571  0.2751770694851103  1.0000
  H   H1        1.0  0.77827036549656  0.47556910455361395  0.28622057656193073  1.0000
  H   H2        1.0  0.7217375122834397  0.524429869409694  0.7862130549870018  1.0000
  H   H3        1.0  0.27826224156908097  0.024428952222557105  0.7137772378626936  1.0000
  H   H4        1.0  0.22174374725769747  0.9755621110624375  0.213784590311306  1.0000
  H   H5        1.0  0.9367051183919983  0.517296310543081  0.3668854435998909  1.0000
  H   H6        1.0  0.5633101399770483  0.48270422375863126  0.8668785661412458  1.0000
  H   H7        1.0  0.43669904341666665  0.9827027205678146  0.6331134197858219  1.0000
  H   H8        1.0  0.06330680450120948  0.017297690732298997  0.1331220852701804  1.0000
  H   H9        1.0  0.9833999088948174  0.29655114257160886  0.48151533081508546  1.0000
  H   H10       1.0  0.5166227893967628  0.7034502057774147  0.9815126680549825  1.0000
  H   H11       1.0  0.48339406389982287  0.20345397491869482  0.5184813818276055  1.0000
  H   H12       1.0  0.016611583773787696  0.7965431980300293  0.018480286201239  1.0000
  H   H13       1.0  0.8771084491214084  0.10099030016301207  0.4779562301420981  1.0000
  H   H14       1.0  0.6229098991428118  0.8990120844584764  0.977955223206962  1.0000
  H   H15       1.0  0.37710665287678313  0.3990137149516286  0.5220445080992279  1.0000
  H   H16       1.0  0.12289610514778809  0.6009824219715653  0.022043553335180408  1.0000
  H   H17       1.0  0.0767163445306522  0.0257027520139772  0.3643319499747976  1.0000
  H   H18       1.0  0.4232884593376767  0.9742969597735822  0.8643365095868702  1.0000
  H   H19       1.0  0.5767106014617482  0.47429430054611993  0.6356687051179364  1.0000
  H   H20       1.0  0.9232868777759223  0.5257081453350309  0.1356635086965312  1.0000
  H   H21       1.0  0.22248887301684306  0.08497402653454598  0.44291147961307337  1.0000
  H   H22       1.0  0.27752185986401656  0.915022294455035  0.9429159096523989  1.0000
  H   H23       1.0  0.7224888757440268  0.41502893594596196  0.5570903744190971  1.0000
  H   H24       1.0  0.7775113621065728  0.5849756887716564  0.0570858061228634  1.0000
  H   H25       1.0  0.348217392251975  0.19848953362615868  0.3204803276086068  1.0000
  H   H26       1.0  0.1517902308896097  0.8015080120618095  0.82048170468385  1.0000
  H   H27       1.0  0.8482134399165843  0.30150602705339935  0.6795198233041333  1.0000
  H   H28       1.0  0.6517884597374105  0.6984913127235898  0.179517659164766  1.0000
  H   H29       1.0  0.2790841238191675  0.3583807148414806  0.3832024027883421  1.0000
  H   H30       1.0  0.22092505681819574  0.6416175048136238  0.8832002577451377  1.0000
  H   H31       1.0  0.7790759644371049  0.14161734113888969  0.616797149723567  1.0000
  H   H32       1.0  0.7209214818434546  0.8583853848439064  0.1168008631128572  1.0000
  C   C1        1.0  0.8819224596842475  0.42356555871410956  0.327411685724698  1.0000
  C   C2        1.0  0.6180869379830866  0.5764378739533313  0.8274058806124458  1.0000
  C   C3        1.0  0.38191707956227816  0.07643360329768709  0.6725878952458758  1.0000
  C   C4        1.0  0.11809028524717041  0.9235614855531864  0.1725928946250832  1.0000
  C   C5        1.0  0.943748197345023  0.19639543501879334  0.4426694863254639  1.0000
  C   C6        1.0  0.5562686413402743  0.8036100547272369  0.9426673849111893  1.0000
  C   C7        1.0  0.4437451617835819  0.30360729935357256  0.55733011177076  1.0000
  C   C8        1.0  0.05625765787470269  0.6963917924885265  0.05732847679833241  1.0000
  C   C9        1.0  0.11916401555276929  0.1307889032806386  0.3996528589175626  1.0000
  C   C10       1.0  0.3808437458871338  0.8692077049553787  0.8996539043690888  1.0000
  C   C11       1.0  0.6191627164919707  0.36920931755482655  0.6003478079262763  1.0000
  C   C12       1.0  0.8808361489845353  0.6307950198041399  0.10034436429482702  1.0000
  C   C13       1.0  0.22407704769831582  0.254832680466926  0.3497508611740728  1.0000
  C   C14       1.0  0.2759335224445607  0.7451650989302648  0.8497498992490975  1.0000
  C   C15       1.0  0.7240716830969518  0.24516543222222256  0.6502492554072461  1.0000
  C   C16       1.0  0.7759301654283989  0.7548340979154916  0.1502500782323963  1.0000
  C   C17       1.0  0.5241183700438795  0.2590937844842358  0.1439816753526557  1.0000
  C   C18       1.0  0.9758820195647716  0.7409308883271704  0.6439685558046264  1.0000
  C   C19       1.0  0.0241130569521175  0.2409081705029124  0.8560230202273261  1.0000
  C   C20       1.0  0.475868565431611  0.7590668903792446  0.35603031841198174  1.0000
  C   C21       1.0  0.3995305432078524  0.2885515800187263  0.06968068636462732  1.0000
  C   C22       1.0  0.10044913102476019  0.7114529699032558  0.5696752406094419  1.0000
  C   C23       1.0  0.8995344073962882  0.21145483609686264  0.9303223752440318  1.0000
  C   C24       1.0  0.6004534509935483  0.7885415597393501  0.43032642615809646  1.0000
  S   S1        1.0  0.0763149461519177  0.33545011192944674  0.271326789883652  1.0000
  S   S2        1.0  0.42368679937732173  0.6645462177641336  0.7713232216969033  1.0000
  S   S3        1.0  0.5763127386178014  0.16454451698541558  0.7286738650848505  1.0000
  S   S4        1.0  0.9236921427787905  0.8354491906874982  0.2286762173555985  1.0000
  S   S5        1.0  0.749298834101815  0.27146100297154874  0.3810609314827076  1.0000
  S   S6        1.0  0.7507121052163086  0.7285414435472788  0.8810539821839853  1.0000
  S   S7        1.0  0.24929602180620952  0.22853950777727755  0.6189391920905436  1.0000
  S   S8        1.0  0.2507054575335772  0.7714602031670948  0.1189384575969115  1.0000
  O   O1        1.0  0.557732168397976  0.38201507395106665  0.1846993249330637  1.0000
  O   O2        1.0  0.9422610526663817  0.6180043382350107  0.6846992918294462  1.0000
  O   O3        1.0  0.057729869414437494  0.1180013906599768  0.8153024835920846  1.0000
  O   O4        1.0  0.44227340085270583  0.8820177157255742  0.315301311087957  1.0000
  O   O5        1.0  0.5684470841188372  0.11266523701135608  0.1554258365805481  1.0000
  O   O6        1.0  0.9315518775414517  0.8873696974747318  0.6554195699566776  1.0000
  O   O7        1.0  0.0684589006773209  0.3873597009058756  0.8445823471200384  1.0000
  O   O8        1.0  0.4314966388109767  0.6126632758014523  0.3445804507626846  1.0000
  F   F1        1.0  0.45221503848286904  0.42656306859346665  0.030600427807478098  1.0000
  F   F2        1.0  0.047734160793034185  0.5734540952066496  0.530589355921748  1.0000
  F   F3        1.0  0.9522351108621195  0.0734517775261665  0.9694072827261381  1.0000
  F   F4        1.0  0.5477368885134623  0.9265307927705917  0.4694215648048328  1.0000
  F   F5        1.0  0.2088068367021521  0.30772284228803665  0.0902553181533676  1.0000
  F   F6        1.0  0.29117866523800734  0.6922536351676029  0.5902479709159751  1.0000
  F   F7        1.0  0.7088121424337713  0.19226801399187107  0.9097459527385041  1.0000
  F   F8        1.0  0.7911756799943318  0.8077540301361168  0.4097508522564013  1.0000
  F   F9        1.0  0.4053440602265255  0.16506155730728983  0.017968743748753  1.0000
  F   F10       1.0  0.09466882622545822  0.8349513467147529  0.5179687442729133  1.0000
  F   F11       1.0  0.9053275533670727  0.3349545489694846  0.9820308437958403  1.0000
  F   F12       1.0  0.5946821144015929  0.6650298563521702  0.48202423151070656  1.0000
