data_image0
_chemical_formula_structural       Zn2H28C22S2N8O8
_chemical_formula_sum              "Zn2 H28 C22 S2 N8 O8"
_cell_length_a       7.992008054720836
_cell_length_b       9.377821941711824
_cell_length_c       10.054227415730917
_cell_angle_alpha    96.94318086266823
_cell_angle_beta     88.12331371839758
_cell_angle_gamma    98.46219001591574

_space_group_name_H-M_alt    "P 1"
_space_group_IT_number       1

loop_
  _space_group_symop_operation_xyz
  'x, y, z'

loop_
  _atom_site_type_symbol
  _atom_site_label
  _atom_site_symmetry_multiplicity
  _atom_site_fract_x
  _atom_site_fract_y
  _atom_site_fract_z
  _atom_site_occupancy
  Zn  Zn1       1.0  0.15559733484473534  0.3447267220418624  0.3252936765350042  1.0000
  Zn  Zn2       1.0  0.8444010843878189  0.6552749863573055  0.6747042668370041  1.0000
  H   H1        1.0  0.8367719921579352  0.021844687848854995  0.6782213476156969  1.0000
  H   H2        1.0  0.1632254410923366  0.9781515941380974  0.3217761127961508  1.0000
  H   H3        1.0  0.9691359600259161  0.17767096925008732  0.7492547557749629  1.0000
  H   H4        1.0  0.030868941442726335  0.8223188288944672  0.2507470033320516  1.0000
  H   H5        1.0  0.8518007615661533  0.16175652855348943  0.3541662124095524  1.0000
  H   H6        1.0  0.1482070434543132  0.8382418485253496  0.6458323148413354  1.0000
  H   H7        1.0  0.7064939067294916  0.9581187153327452  0.247231524502169  1.0000
  H   H8        1.0  0.2935205314186717  0.041888226603923294  0.7527647218161349  1.0000
  H   H9        1.0  0.5172144749867229  0.7988945092184141  0.5629945527782496  1.0000
  H   H10       1.0  0.4828084202819555  0.20110360670123134  0.43699880260475504  1.0000
  H   H11       1.0  0.319266616150685  0.5666853439797919  0.5496843577539963  1.0000
  H   H12       1.0  0.680758402950616  0.4333105540548488  0.4503077762528491  1.0000
  H   H13       1.0  0.3809596440249122  0.49080034527723626  0.13762107273524998  1.0000
  H   H14       1.0  0.6190252091077612  0.5092154948558162  0.8623723435234254  1.0000
  H   H15       1.0  0.5762232162553004  0.7262246709237631  0.1308386737696168  1.0000
  H   H16       1.0  0.4237794797858002  0.27377901187193043  0.869152435432639  1.0000
  H   H17       1.0  0.6394073981134412  0.33059635004676124  0.0513953260417566  1.0000
  H   H18       1.0  0.3605831173780345  0.6694174857397499  0.9486077926109928  1.0000
  H   H19       1.0  0.837933535363703  0.38634414026346786  0.9689238479381287  1.0000
  H   H20       1.0  0.1620590366071397  0.6136611129945068  0.0310844353252335  1.0000
  H   H21       1.0  0.7575201254709258  0.5079911867073224  0.0915121394915701  1.0000
  H   H22       1.0  0.2424848656828473  0.4920140348034893  0.9084999783733634  1.0000
  H   H23       1.0  0.3525612947241399  0.9901156085986502  0.9678566157763769  1.0000
  H   H24       1.0  0.6474357956084021  0.009893971712642698  0.032153004778656694  1.0000
  H   H25       1.0  0.15588773143971213  0.9337051836618141  0.04498794986369596  1.0000
  H   H26       1.0  0.8441096726672442  0.0662846881586177  0.9550139019655856  1.0000
  H   H27       1.0  0.345114489644466  0.9281993015124643  0.12978038033946146  1.0000
  H   H28       1.0  0.6548817927972834  0.0718059604305523  0.8702298511321087  1.0000
  C   C1        1.0  0.9290614579869398  0.1798645973238777  0.553934668402192  1.0000
  C   C2        1.0  0.07094841355122841  0.8201316301544281  0.44606562932654725  1.0000
  C   C3        1.0  0.6753910040618365  0.918245573985921  0.34471135237841816  1.0000
  C   C4        1.0  0.324620823255799  0.0817537604914591  0.6552832359646885  1.0000
  C   C5        1.0  0.5608108118234298  0.7830851524919069  0.34722558465427505  1.0000
  C   C6        1.0  0.43920023674672143  0.21691627378371692  0.6527652231879344  1.0000
  C   C7        1.0  0.48887325655523745  0.7349780632063911  0.4664928050508834  1.0000
  C   C8        1.0  0.5111431464390179  0.2650255300398499  0.5335001287298837  1.0000
  C   C9        1.0  0.37960317054164244  0.605374799427885  0.45935710808785757  1.0000
  C   C10       1.0  0.6204182044702834  0.394614565947741  0.5406324827048649  1.0000
  C   C11       1.0  0.4132624244541248  0.564910383069595  0.22808768765166576  1.0000
  C   C12       1.0  0.5867371718104124  0.435096524126898  0.7719007658338197  1.0000
  C   C13       1.0  0.5209309470135608  0.6951248313212872  0.22603305592245698  1.0000
  C   C14       1.0  0.4790774816594379  0.3048754431845567  0.7739536970964592  1.0000
  C   C15       1.0  0.8616223300168144  0.337829533738095  0.17000041983259706  1.0000
  C   C16       1.0  0.13836811100291876  0.6621637358900117  0.8300048063490593  1.0000
  C   C17       1.0  0.76619542060363  0.3923766011399579  0.06405142110445179  1.0000
  C   C18       1.0  0.23379534842749194  0.6076253630270119  0.9359545932671836  1.0000
  C   C19       1.0  0.27575332041629247  0.14333819127452327  0.12929269864148546  1.0000
  C   C20       1.0  0.7242176045985077  0.8566586672388469  0.870719048283675  1.0000
  C   C21       1.0  0.28497116606430967  0.9903715988985413  0.06401238273396359  1.0000
  C   C22       1.0  0.7150196602817188  0.009630296983949899  0.9359906397836608  1.0000
  S   S1        1.0  0.0595667458543048  0.33988999090570365  0.546458015168362  1.0000
  S   S2        1.0  0.9404396949760637  0.6601085350213866  0.4535465112442552  1.0000
  N   N1        1.0  0.901111827134976  0.1250824095242891  0.6702196493517718  1.0000
  N   N2        1.0  0.09889689943438643  0.8749072607363789  0.3297780742554223  1.0000
  N   N3        1.0  0.8494072909835069  0.1093123467447441  0.4430763406226887  1.0000
  N   N4        1.0  0.15059942346319846  0.890687173418833  0.5569242932432843  1.0000
  N   N5        1.0  0.7415091237515059  0.9861243528097323  0.4547461529229579  1.0000
  N   N6        1.0  0.2584958450703851  0.013871809978375903  0.5452492201972774  1.0000
  N   N7        1.0  0.3419774499973301  0.5207677538594454  0.3423564660960991  1.0000
  N   N8        1.0  0.6580223143203555  0.47923382845296214  0.6576364753988526  1.0000
  O   O1        1.0  0.794112242358139  0.22948986092371365  0.2263433146688598  1.0000
  O   O2        1.0  0.20588053264886952  0.7705009404430002  0.7736497200052738  1.0000
  O   O3        1.0  0.010185011577121423  0.4076886436493439  0.1955252255867208  1.0000
  O   O4        1.0  0.9898038207794999  0.5923101907570612  0.8044855008858744  1.0000
  O   O5        1.0  0.31437689456728884  0.25009619016970674  0.0661463121519503  1.0000
  O   O6        1.0  0.6855984341794042  0.7499051319659317  0.9338727557728885  1.0000
  O   O7        1.0  0.22078794914832403  0.15242170019777757  0.2540053194970255  1.0000
  O   O8        1.0  0.7791733002771224  0.8475697495740847  0.7460030607899382  1.0000
