data_image0
_chemical_formula_structural       Cd2H24C12O12
_chemical_formula_sum              "Cd2 H24 C12 O12"
_cell_length_a       5.515128105598258
_cell_length_b       8.791903049025516
_cell_length_c       10.998030819537183
_cell_angle_alpha    94.14978896495417
_cell_angle_beta     90.0199463902649
_cell_angle_gamma    108.29462704173864

_space_group_name_H-M_alt    "P 1"
_space_group_IT_number       1

loop_
  _space_group_symop_operation_xyz
  'x, y, z'

loop_
  _atom_site_type_symbol
  _atom_site_label
  _atom_site_symmetry_multiplicity
  _atom_site_fract_x
  _atom_site_fract_y
  _atom_site_fract_z
  _atom_site_occupancy
  Cd  Cd1       1.0  0.3559045866041899  8.4389339207298e-05  0.7500123017453079  1.0000
  Cd  Cd2       1.0  0.6440952135666224  0.9999140692765562  0.24998778344402692  1.0000
  H   H1        1.0  0.9489380879918343  0.2347772124786829  0.05070719081204799  1.0000
  H   H2        1.0  0.28593945745889476  0.23473847765050954  0.5508229109652305  1.0000
  H   H3        1.0  0.05106593491694879  0.7652188116330836  0.9492954652087066  1.0000
  H   H4        1.0  0.7140591249209934  0.7652684225623362  0.44917499201196165  1.0000
  H   H5        1.0  0.264516383043457  0.36188250762455004  0.0702541435279045  1.0000
  H   H6        1.0  0.09757895907397093  0.3618441993198119  0.5702979831091781  1.0000
  H   H7        1.0  0.735482184668456  0.6381171093259043  0.9297496536053061  1.0000
  H   H8        1.0  0.9024166080462876  0.6381602978834878  0.42969976425654727  1.0000
  H   H9        1.0  0.8688197519629952  0.396132291173025  0.8854026866810969  1.0000
  H   H10       1.0  0.5274289787186462  0.39600552541659084  0.3855290745749613  1.0000
  H   H11       1.0  0.13117762912455083  0.603861329584568  0.11459981340065892  1.0000
  H   H12       1.0  0.47256599245407227  0.6039977810959982  0.6144676864709597  1.0000
  H   H13       1.0  0.19004506087389222  0.5197405405418323  0.8954929146552999  1.0000
  H   H14       1.0  0.3296044978498641  0.5194624344514766  0.39534629657399734  1.0000
  H   H15       1.0  0.8099493047252012  0.4802543027455571  0.1045078456308985  1.0000
  H   H16       1.0  0.670391084396016  0.4805420949355366  0.6046487250038908  1.0000
  H   H17       1.0  0.6671072896035781  0.8076457057476744  0.7729747003884029  1.0000
  H   H18       1.0  0.14085505942060905  0.8073106996445176  0.2730429683471627  1.0000
  H   H19       1.0  0.3328919196615701  0.192351572905288  0.22702348988519114  1.0000
  H   H20       1.0  0.8591447508339414  0.1926877804270575  0.7269552996502853  1.0000
  H   H21       1.0  0.5769983997260014  0.8442682917822071  0.9082893705834039  1.0000
  H   H22       1.0  0.26767275796943585  0.8441681391947143  0.4083574369448328  1.0000
  H   H23       1.0  0.4229990116127881  0.15572539334282004  0.09170767792267752  1.0000
  H   H24       1.0  0.7323288605240493  0.1558303303212654  0.5916417398123244  1.0000
  C   C1        1.0  0.19230428668773672  0.20288034407413855  0.9103526919778205  1.0000
  C   C2        1.0  0.010348250091965406  0.2026603921108645  0.4105046605624807  1.0000
  C   C3        1.0  0.8077039587301941  0.7971168710729587  0.0896509506902632  1.0000
  C   C4        1.0  0.989653969162106  0.7973429043630702  0.58949300973444  1.0000
  C   C5        1.0  0.10972312923387761  0.3121279091949773  0.0014382411126306004  1.0000
  C   C6        1.0  0.20242366679568147  0.3120158588537337  0.5014909830966232  1.0000
  C   C7        1.0  0.8902766507694366  0.687870506509171  0.9985654784604919  1.0000
  C   C8        1.0  0.797574920626083  0.687991052087007  0.4985060112846257  1.0000
  C   C9        1.0  0.033270465488385435  0.44661703613335396  0.9490804117617699  1.0000
  C   C10       1.0  0.41336116942772355  0.44650945822630217  0.4490750879660297  1.0000
  C   C11       1.0  0.9667257033077662  0.5533777858705449  0.050922165880081104  1.0000
  C   C12       1.0  0.5866350087656899  0.5534962618514215  0.5509209199316559  1.0000
  O   O1        1.0  0.3311764023803718  0.1216988870988231  0.9482444256751918  1.0000
  O   O2        1.0  0.7903319305978586  0.12140004003548205  0.448382514457748  1.0000
  O   O3        1.0  0.6688378737856411  0.8782995085280234  0.05176111239992311  1.0000
  O   O4        1.0  0.20967089995819777  0.8786008537735484  0.5516150005552234  1.0000
  O   O5        1.0  0.1260347839721732  0.18883629013507897  0.7980229417762388  1.0000
  O   O6        1.0  0.062319275819540096  0.1886640765408174  0.298148849456382  1.0000
  O   O7        1.0  0.8739734460913129  0.8111645183676474  0.2019818424955915  1.0000
  O   O8        1.0  0.9376823525288672  0.8113380399703162  0.7018469259247838  1.0000
  O   O9        1.0  0.5169075155042862  0.8167316737013763  0.8203979142555085  1.0000
  O   O10       1.0  0.3001454547403314  0.8163849957545539  0.3205114815461627  1.0000
  O   O11       1.0  0.48308988575075074  0.18326198996783927  0.1796009514424668  1.0000
  O   O12       1.0  0.6998555678056207  0.18361228307072247  0.67948670889119  1.0000
