data_image0
_chemical_formula_structural       Ba4H48C32S4O44
_chemical_formula_sum              "Ba4 H48 C32 S4 O44"
_cell_length_a       7.201863133
_cell_length_b       11.189449256
_cell_length_c       16.7044
_cell_angle_alpha    90.0
_cell_angle_beta     90.0
_cell_angle_gamma    90.0

_space_group_name_H-M_alt    "P 1"
_space_group_IT_number       1

loop_
  _space_group_symop_operation_xyz
  'x, y, z'

loop_
  _atom_site_type_symbol
  _atom_site_label
  _atom_site_symmetry_multiplicity
  _atom_site_fract_x
  _atom_site_fract_y
  _atom_site_fract_z
  _atom_site_occupancy
  Ba  Ba1       1.0  0.11765566553429348  0.3429829218754534  0.8921649385790573  1.0000
  Ba  Ba2       1.0  0.8823327912027421  0.8429807208734701  0.1078374559996149  1.0000
  Ba  Ba3       1.0  0.617665167728205  0.3429811344773839  0.607838653288951  1.0000
  Ba  Ba4       1.0  0.3823441169525451  0.842979827174439  0.3921661358683934  1.0000
  H   H1        1.0  0.3419795620267578  0.8655993497451533  0.9119788798160968  1.0000
  H   H2        1.0  0.6579977864736222  0.36559976334906713  0.0880217188285712  1.0000
  H   H3        1.0  0.8419987839277354  0.8656029245412924  0.5880259093412548  1.0000
  H   H4        1.0  0.1580216089896638  0.3655970822519663  0.4119818730394371  1.0000
  H   H5        1.0  0.4691147190119764  0.6693662778785807  0.6959477742391229  1.0000
  H   H6        1.0  0.5309028968462641  0.1693640103853937  0.3040468379588646  1.0000
  H   H7        1.0  0.9691186670875565  0.6693662778785807  0.8040522257608771  1.0000
  H   H8        1.0  0.030892006122769492  0.1693666914824945  0.1959477742391229  1.0000
  H   H9        1.0  0.2894820356203524  0.0384120782146198  0.6856840113981946  1.0000
  H   H10       1.0  0.7105036440575175  0.5384223889991233  0.3143225736931612  1.0000
  H   H11       1.0  0.7894873722255156  0.0384228026030371  0.8143213764038251  1.0000
  H   H12       1.0  0.21050941568900325  0.5384107709116748  0.1856774263068388  1.0000
  H   H13       1.0  0.31257467108546416  0.0201770431086175  0.5709142501376903  1.0000
  H   H14       1.0  0.6874179512403129  0.5201703736114638  0.4290905390196613  1.0000
  H   H15       1.0  0.8125758421018858  0.0201779368076558  0.9290881444409891  1.0000
  H   H16       1.0  0.18740706051681844  0.5201757358056724  0.0709124542036861  1.0000
  H   H17       1.0  0.8492996724657402  0.1747449722739063  0.9829691578266803  1.0000
  H   H18       1.0  0.15069850397836143  0.6747534956603403  0.0170338353966599  1.0000
  H   H19       1.0  0.3493068326268086  0.174744078574868  0.5170314408179877  1.0000
  H   H20       1.0  0.6507080061722659  0.6747445586699925  0.48296556595867207  1.0000
  H   H21       1.0  0.6937093787727804  0.2026748545093895  0.918744761859152  1.0000
  H   H22       1.0  0.3062901862009042  0.7026806967987227  0.0812582313641883  1.0000
  H   H23       1.0  0.1937109848155174  0.20268021670359812  0.5812492516941674  1.0000
  H   H24       1.0  0.80629691133565  0.702675334604514  0.4187405713464685  1.0000
  H   H25       1.0  0.7428855424209289  0.5091314031336438  0.9059367591772229  1.0000
  H   H26       1.0  0.2571001372569412  0.0091291356404568  0.0940656354014493  1.0000
  H   H27       1.0  0.2429024222890632  0.5091349779297829  0.594062642178109  1.0000
  H   H28       1.0  0.75709991974378  0.0091344978346655  0.4059379564665591  1.0000
  H   H29       1.0  0.7858924691397602  0.5061589601439067  0.9992343334690262  1.0000
  H   H30       1.0  0.21409182200852675  0.006135243873885101  0.0007680611096461  1.0000
  H   H31       1.0  0.28590379488957035  0.5061518105516285  0.5007644692416378  1.0000
  H   H32       1.0  0.7140999356728557  0.0061441808642329  0.49923553075836224  1.0000
  H   H33       1.0  0.4837220502063103  0.2576293018581097  0.9793282009530416  1.0000
  H   H34       1.0  0.5162705721194669  0.7576369315455054  0.0206741936256307  1.0000
  H   H35       1.0  0.9837329409297977  0.2576418136445966  0.5206688058236182  1.0000
  H   H36       1.0  0.0162763437509525  0.7576360378464742  0.47932700366370545  1.0000
  H   H37       1.0  0.5957680562325152  0.364992048005405  0.9395979502406533  1.0000
  H   H38       1.0  0.4042204005045206  0.8649943154985992  0.06040564162735511  1.0000
  H   H39       1.0  0.0957849361006424  0.3650018786947911  0.5603978592466632  1.0000
  H   H40       1.0  0.9042285141688493  0.8649916344014912  0.4395955556619811  1.0000
  H   H41       1.0  0.8845919288313695  0.2887881187063144  0.736671176456504  1.0000
  H   H42       1.0  0.1154104132014737  0.7887859177043312  0.26332762625416  1.0000
  H   H43       1.0  0.3845949234036893  0.2887827565121057  0.7633288235434961  1.0000
  H   H44       1.0  0.6154074186291536  0.7887885988014317  0.236671775101172  1.0000
  H   H45       1.0  0.975639202000927  0.41906888290195354  0.7216817126026669  1.0000
  H   H46       1.0  0.0243714712094061  0.9190711503951405  0.2783146955293248  1.0000
  H   H47       1.0  0.4756255342182739  0.4190697766009848  0.7783140968846567  1.0000
  H   H48       1.0  0.524361533989179  0.9190738314922485  0.2216847058260072  1.0000
  C   C1        1.0  0.4216228417458296  0.750431036227937  0.7256136107851816  1.0000
  C   C2        1.0  0.5783795002870136  0.2504314498318507  0.2743869878594865  1.0000
  C   C3        1.0  0.9216184586439267  0.750431036227937  0.774392375661499  1.0000
  C   C4        1.0  0.0783894375072407  0.250432343530882  0.2256118148511774  1.0000
  C   C5        1.0  0.4054228671218496  0.7561918202062401  0.8084660329015136  1.0000
  C   C6        1.0  0.5945794749109935  0.2561931275091851  0.1915339670984864  1.0000
  C   C7        1.0  0.9054240381382711  0.7561891391091393  0.6915399535451741  1.0000
  C   C8        1.0  0.0945838580128964  0.2561913401111156  0.3084624410334982  1.0000
  C   C9        1.0  0.3517548102784787  0.8615973654673326  0.8470480831397751  1.0000
  C   C10       1.0  0.6482433661656228  0.36159420427510724  0.1529531141495681  1.0000
  C   C11       1.0  0.8517629239428073  0.8615973654673326  0.6529579033069126  1.0000
  C   C12       1.0  0.148246360737943  0.36159331057606886  0.3470492804291112  1.0000
  C   C13       1.0  0.3108542829343435  0.9629303242268535  0.8018551998275925  1.0000
  C   C14       1.0  0.6891536132168239  0.4629289504326977  0.1981453988170756  1.0000
  C   C15       1.0  0.8108526768916062  0.9629285368287839  0.6981465961064117  1.0000
  C   C16       1.0  0.18913994543417087  0.46292358823848906  0.301851607959577  1.0000
  C   C17       1.0  0.32233325698221177  0.9572142252002891  0.7185442158952142  1.0000
  C   C18       1.0  0.6776676965210555  0.4572137451051717  0.2814587773281261  1.0000
  C   C19       1.0  0.8223274853507261  0.9572195873944978  0.7814611719068054  1.0000
  C   C20       1.0  0.17767624521169975  0.457208382910963  0.2185442158952142  1.0000
  C   C21       1.0  0.3783423746994998  0.8523699229330504  0.6803231483920413  1.0000
  C   C22       1.0  0.621636362330463  0.3523783798282807  0.3196780488972948  1.0000
  C   C23       1.0  0.8783449342455043  0.8523699229330504  0.8196792461866309  1.0000
  C   C24       1.0  0.12166435043524608  0.3523703365369641  0.1803219511027052  1.0000
  C   C25       1.0  0.3944993049064677  0.8459147348047081  0.5921374009243081  1.0000
  C   C26       1.0  0.6055085912447067  0.345905317719243  0.4078667895883754  1.0000
  C   C27       1.0  0.8944893676862407  0.8459102663095379  0.90786319772036  1.0000
  C   C28       1.0  0.1055046431691196  0.3459097862144134  0.0921356049903039  1.0000
  C   C29       1.0  0.2528928926258729  0.0792541241048568  0.8394506836522098  1.0000
  C   C30       1.0  0.7470997296999045  0.5792528168019047  0.1605463231244428  1.0000
  C   C31       1.0  0.7529023948197844  0.0792576989009959  0.6605499149924583  1.0000
  C   C32       1.0  0.2470999472130657  0.5792546041999742  0.3394566700988976  1.0000
  S   S1        1.0  0.45144429156149357  0.6284000078225134  0.8685334402911806  1.0000
  S   S2        1.0  0.5485427766459594  0.1284031025235279  0.1314665597088194  1.0000
  S   S3        1.0  0.9514690675807953  0.6284098385118924  0.6314689542874916  1.0000
  S   S4        1.0  0.0485499368070279  0.1284022088244967  0.3685262565551568  1.0000
  O   O1        1.0  0.3267390613433888  0.9356287124128286  0.5477921984626803  1.0000
  O   O2        1.0  0.673239675686574  0.4356228701235025  0.4522084001819877  1.0000
  O   O3        1.0  0.8267402323598174  0.9356260313157279  0.9522084001819877  1.0000
  O   O4        1.0  0.17322600790392065  0.4356318071138503  0.0477898038840081  1.0000
  O   O5        1.0  0.4625483626224279  0.759305467643472  0.5567161945355679  1.0000
  O   O6        1.0  0.53749146970911  0.2593032001502849  0.4432903905557808  1.0000
  O   O7        1.0  0.9625148203993203  0.7592974243521624  0.9432850027537683  1.0000
  O   O8        1.0  0.0374639166306423  0.2593148182377334  0.0567137999568956  1.0000
  O   O9        1.0  0.2708410259926026  0.572159527562718  0.8851506189985869  1.0000
  O   O10       1.0  0.7291404880965258  0.0721653033608405  0.1148415986207212  1.0000
  O   O11       1.0  0.7708727446598116  0.5721648897569267  0.614839204042049  1.0000
  O   O12       1.0  0.2291504253167531  0.0721590474676006  0.3851458298412425  1.0000
  O   O13       1.0  0.8159832936941738  0.1611893453140993  0.9266061636455092  1.0000
  O   O14       1.0  0.18401488274992764  0.6611817821179073  0.07339144177581862  1.0000
  O   O15       1.0  0.3159779570890109  0.161178620925682  0.5733884485524783  1.0000
  O   O16       1.0  0.6840216078846737  0.6611835695159769  0.4266067622901772  1.0000
  O   O17       1.0  0.7916034913072849  0.4574845359127124  0.9489116639927175  1.0000
  O   O18       1.0  0.20838357690016804  0.9574716105223117  0.0510901319412866  1.0000
  O   O19       1.0  0.2916231482345779  0.4574827485146429  0.5510877373626144  1.0000
  O   O20       1.0  0.7083930790940798  0.9574796538136284  0.4489122626373856  1.0000
  O   O21       1.0  0.506949373040797  0.2989190909647732  0.9273538708364272  1.0000
  O   O22       1.0  0.4930376951666488  0.7989177836618282  0.0726479250975771  1.0000
  O   O23       1.0  0.006970418497679999  0.2989271342560897  0.5726401427168923  1.0000
  O   O24       1.0  0.9930416432422361  0.7989186773608594  0.4273514762577548  1.0000
  O   O25       1.0  0.2381119952338864  0.1683317880002022  0.7920763391681263  1.0000
  O   O26       1.0  0.7618764615031421  0.6683286932991805  0.2079176743851932  1.0000
  O   O27       1.0  0.7381201088982152  0.168334469097303  0.7079176743851932  1.0000
  O   O28       1.0  0.2618850101937937  0.668333161794358  0.2920799310361346  1.0000
  O   O29       1.0  0.21893917877653016  0.0850721048213856  0.9139125020952577  1.0000
  O   O30       1.0  0.7810506664900814  0.5850779471107188  0.0860845046814021  1.0000
  O   O31       1.0  0.7189528465591832  0.0850721048213856  0.5860833073920659  1.0000
  O   O32       1.0  0.28105227253282544  0.5850734786155414  0.4139125020952577  1.0000
  O   O33       1.0  0.8998879706979821  0.37023448654352364  0.7586647829314401  1.0000
  O   O34       1.0  0.10011020574611958  0.8702358603376794  0.2413322238452125  1.0000
  O   O35       1.0  0.39989374232946767  0.3702326991454541  0.7413304279112083  1.0000
  O   O36       1.0  0.6001085997033755  0.8702367540367177  0.2586659802207834  1.0000
  O   O37       1.0  0.5434357648462651  0.6751601287211741  0.9403336845382029  1.0000
  O   O38       1.0  0.4565346410062077  0.1751569675289488  0.059675295131818  1.0000
  O   O39       1.0  0.0434804153060284  0.6751735342066922  0.5596800842891696  1.0000
  O   O40       1.0  0.9565621940846754  0.1751489242376323  0.44032530351285  1.0000
  O   O41       1.0  0.5777754899191831  0.5504882196679262  0.8223306434232924  1.0000
  O   O42       1.0  0.4222282406432427  0.0504948891650798  0.17767713895739942  1.0000
  O   O43       1.0  0.0777798730210861  0.5504962629592356  0.6776777376020675  1.0000
  O   O44       1.0  0.9222196919525911  0.0504975702621806  0.3223174732405809  1.0000
