data_image0
_chemical_formula_structural       Co2H20C28N8O8
_chemical_formula_sum              "Co2 H20 C28 N8 O8"
_cell_length_a       7.303685979059986
_cell_length_b       7.476440998114442
_cell_length_c       13.880138424874115
_cell_angle_alpha    99.73351672270572
_cell_angle_beta     105.24157486436128
_cell_angle_gamma    90.07858387602116

_space_group_name_H-M_alt    "P 1"
_space_group_IT_number       1

loop_
  _space_group_symop_operation_xyz
  'x, y, z'

loop_
  _atom_site_type_symbol
  _atom_site_label
  _atom_site_symmetry_multiplicity
  _atom_site_fract_x
  _atom_site_fract_y
  _atom_site_fract_z
  _atom_site_occupancy
  Co  Co1       1.0  0.500001006251651  0.49999744637706556  0.4999988255404232  1.0000
  Co  Co2       1.0  3.2773043158904023e-06  0.49999771510630336  0.49999975643530786  1.0000
  H   H1        1.0  0.611073118809955  0.6263393181486733  0.8094024008871015  1.0000
  H   H2        1.0  0.8021565456703785  0.374200797741416  0.1907568465788785  1.0000
  H   H3        1.0  0.3889250638140922  0.37366369717745573  0.1905976613130846  1.0000
  H   H4        1.0  0.1978474525835522  0.6258049614766675  0.8092421187952892  1.0000
  H   H5        1.0  0.6999422500468812  0.7503119835950612  0.9924514090090922  1.0000
  H   H6        1.0  0.707312326142173  0.2502427176936236  0.00765123437986398  1.0000
  H   H7        1.0  0.30005720790938284  0.24968834810374566  0.007546410630254693  1.0000
  H   H8        1.0  0.2926859260353822  0.7497616801228162  0.9923475288231811  1.0000
  H   H9        1.0  0.7727515922093035  0.8391939848204472  0.13920366512706284  1.0000
  H   H10       1.0  0.6328942587264592  0.16176010742761798  0.8604661155175393  1.0000
  H   H11       1.0  0.22725233584401391  0.1608104038556633  0.8607958798170401  1.0000
  H   H12       1.0  0.3671024340809339  0.8382415515899666  0.13953361139012088  1.0000
  H   H13       1.0  0.8783588856998039  0.9132350455099568  0.3253099641982046  1.0000
  H   H14       1.0  0.552876173311475  0.08762250820032587  0.6744148544931221  1.0000
  H   H15       1.0  0.12164050205584688  0.08676391564688399  0.6746884350110776  1.0000
  H   H16       1.0  0.44711874693552295  0.9123723481858546  0.3255846971201847  1.0000
  H   H17       1.0  0.3579163268244443  0.8920858648369004  0.4695172030239192  1.0000
  H   H18       1.0  0.8886892210860395  0.10824203943639787  0.5305624653350094  1.0000
  H   H19       1.0  0.6420801527927155  0.10791173034814248  0.5304813848847729  1.0000
  H   H20       1.0  0.11131023816442108  0.8917582683657342  0.4694367931587279  1.0000
  C   C1        1.0  0.843109453509456  0.5361034794393901  0.6869063033201711  1.0000
  C   C2        1.0  0.15689121346101592  0.4638927264000898  0.31309416989144967  1.0000
  C   C3        1.0  0.8989110109264334  0.6135395272226275  0.798244905348177  1.0000
  C   C4        1.0  0.1010911458606998  0.38645803492540404  0.20175590315596276  1.0000
  C   C5        1.0  0.7600485264889514  0.6522884375445342  0.8510320804409587  1.0000
  C   C6        1.0  0.9093053313764728  0.348143544201619  0.1490372913235518  1.0000
  C   C7        1.0  0.2399510036092209  0.34771322885121936  0.14896731791003492  1.0000
  C   C8        1.0  0.09069852518202738  0.6518594978291999  0.8509613943360959  1.0000
  C   C9        1.0  0.8119608384579494  0.7233359315211556  0.954056782039515  1.0000
  C   C10       1.0  0.8578273925171305  0.27707310094517346  0.046019131446648445  1.0000
  C   C11       1.0  0.18804160107291784  0.2766670769497281  0.0459438664664589  1.0000
  C   C12       1.0  0.1421697240823221  0.7229367335308652  0.953979995750174  1.0000
  C   C13       1.0  0.004502452140272293  0.7586924543994512  0.008699195053537794  1.0000
  C   C14       1.0  0.9954959410856008  0.24131467255259045  0.9912991284368288  1.0000
  C   C15       1.0  0.05971515082306668  0.8219944544446276  0.11895266891228566  1.0000
  C   C16       1.0  0.9402857982440481  0.178007209666049  0.8810469248739704  1.0000
  C   C17       1.0  0.9243389380761757  0.8509626111090113  0.17554664664991287  1.0000
  C   C18       1.0  0.7484093810642279  0.14971035841524125  0.8243265045442739  1.0000
  C   C19       1.0  0.0756591730530545  0.14903905757183367  0.824452556265811  1.0000
  C   C20       1.0  0.2515900794804439  0.8502899254902087  0.17567419280385366  1.0000
  C   C21       1.0  0.9791752686592619  0.892238037891104  0.2797766261175383  1.0000
  C   C22       1.0  0.6991871195832503  0.1084106911585607  0.7200642400973576  1.0000
  C   C23       1.0  0.020825680407853004  0.10776362621957247  0.7202229676687181  1.0000
  C   C24       1.0  0.30080936068101494  0.8915868920781376  0.2799350672385258  1.0000
  C   C25       1.0  0.22110021361861953  0.9519035821980137  0.4423450510880896  1.0000
  C   C26       1.0  0.7788991052306216  0.048093984520178885  0.557655366545525  1.0000
  C   C27       1.0  0.23749652461324902  0.15943657077479395  0.4751700623137721  1.0000
  C   C28       1.0  0.7625043542532592  0.8405637227939164  0.5248301110424263  1.0000
  N   N1        1.0  0.7186207159844927  0.3986022554004052  0.4371112823311164  1.0000
  N   N2        1.0  0.28138577114557256  0.6013966106926388  0.5628931300448484  1.0000
  N   N3        1.0  0.6831782528144501  0.2738962291738503  0.36643675595527003  1.0000
  N   N4        1.0  0.3168270987375195  0.7261080735787926  0.6335680204144649  1.0000
  N   N5        1.0  0.6489421948217428  0.15299384132806174  0.29818692873831754  1.0000
  N   N6        1.0  0.35106010236660273  0.8470064619039094  0.7018127206259448  1.0000
  N   N7        1.0  0.16558906838836407  0.9087981613063219  0.33118233993947394  1.0000
  N   N8        1.0  0.8344103921563076  0.09120212259912817  0.6688183574086465  1.0000
  O   O1        1.0  0.6658681220982744  0.5060625605727153  0.6450055154235128  1.0000
  O   O2        1.0  0.021649762089481293  0.4935425351790386  0.35506958525747473  1.0000
  O   O3        1.0  0.3341341023010571  0.49393641991063925  0.35499183580190413  1.0000
  O   O4        1.0  0.9783507625384688  0.5064509654215286  0.6449298888124273  1.0000
  O   O5        1.0  0.0867130577885433  0.23353257882884285  0.485935281828361  1.0000
  O   O6        1.0  0.6008637744845872  0.766171610941889  0.514075300414987  1.0000
  O   O7        1.0  0.913286265590415  0.7664649042509594  0.5140701717956091  1.0000
  O   O8        1.0  0.39913277403897507  0.23382737868180212  0.4859212690693794  1.0000
