data_image0
_chemical_formula_structural       U4H36C56N4O24
_chemical_formula_sum              "U4 H36 C56 N4 O24"
_cell_length_a       9.307162466004897
_cell_length_b       12.162463588015418
_cell_length_c       12.162434137523372
_cell_angle_alpha    96.42319465931779
_cell_angle_beta     91.50351340170626
_cell_angle_gamma    91.50340061056738

_space_group_name_H-M_alt    "P 1"
_space_group_IT_number       1

loop_
  _space_group_symop_operation_xyz
  'x, y, z'

loop_
  _atom_site_type_symbol
  _atom_site_label
  _atom_site_symmetry_multiplicity
  _atom_site_fract_x
  _atom_site_fract_y
  _atom_site_fract_z
  _atom_site_occupancy
  U   U1        1.0  0.09245253051885531  0.6386181141938891  0.8580682233941274  1.0000
  U   U2        1.0  0.4075478439924965  0.14193499518850672  0.3613829198433862  1.0000
  U   U3        1.0  0.9075448380640693  0.3613897325002498  0.1419327675108804  1.0000
  U   U4        1.0  0.5924524948578452  0.8580670397523988  0.6386167074212992  1.0000
  H   H1        1.0  0.045819086564186824  0.5902915972409774  0.5524186179990949  1.0000
  H   H2        1.0  0.45418053946264075  0.44758208777490444  0.40970448543821897  1.0000
  H   H3        1.0  0.954181063366697  0.4097063045792595  0.4475813925043539  1.0000
  H   H4        1.0  0.5458208047854071  0.5524182821555287  0.5902941681090467  1.0000
  H   H5        1.0  0.8930701070720561  0.5866535101838865  0.38067665615900387  1.0000
  H   H6        1.0  0.6069313779018161  0.6193231053848792  0.4133445355839882  1.0000
  H   H7        1.0  0.10693219212475921  0.41334438351555036  0.6193234038851045  1.0000
  H   H8        1.0  0.39306885483402  0.3806764408815583  0.5866540053002396  1.0000
  H   H9        1.0  0.9427602869249512  0.7222283147888503  0.24720603933828758  1.0000
  H   H10       1.0  0.5572393822130621  0.7527961253173389  0.2777708056645523  1.0000
  H   H11       1.0  0.05724089623641501  0.27776876074788254  0.7527947307450943  1.0000
  H   H12       1.0  0.44275987295785063  0.247205924686547  0.7222304422344479  1.0000
  H   H13       1.0  0.1457599377866003  0.859648208293507  0.2866356652765418  1.0000
  H   H14       1.0  0.3542401730530287  0.7133642068524538  0.1403489110385721  1.0000
  H   H15       1.0  0.8542412867772528  0.14034968946632634  0.7133643699972296  1.0000
  H   H16       1.0  0.6457600137570978  0.2866345226921681  0.8596511873575848  1.0000
  H   H17       1.0  0.8342052685124203  0.8096555140656535  0.0296110778913743  1.0000
  H   H18       1.0  0.6657902726710888  0.9703929890889997  0.1903491346407975  1.0000
  H   H19       1.0  0.16579498753296215  0.1903448764290516  0.970390018992532  1.0000
  H   H20       1.0  0.3342056848424378  0.029607417647305605  0.8096518631617897  1.0000
  H   H21       1.0  0.4749075702030225  0.9486438344295112  0.08322203731023593  1.0000
  H   H22       1.0  0.02508941734350861  0.916779555481206  0.051358216377629204  1.0000
  H   H23       1.0  0.5250926301768003  0.0513548786112494  0.9167755929789507  1.0000
  H   H24       1.0  0.9749076562054597  0.0832216694177959  0.9486420713856772  1.0000
  H   H25       1.0  0.2487494728263116  0.8691473718990039  0.9883880690961035  1.0000
  H   H26       1.0  0.25124926704096856  0.011612652585547799  0.1308544082790064  1.0000
  H   H27       1.0  0.7512528677729761  0.130851344023533  0.011611256138394298  1.0000
  H   H28       1.0  0.748748848784949  0.9883877350273735  0.8691449936595957  1.0000
  H   H29       1.0  0.4503354831845812  0.5878877448430869  0.855012478643708  1.0000
  H   H30       1.0  0.0496641591859373  0.1449882855836648  0.4121151373376364  1.0000
  H   H31       1.0  0.5496657368560349  0.41211015841803805  0.1449883793323892  1.0000
  H   H32       1.0  0.9503349898704702  0.8550112757457526  0.5878850241809062  1.0000
  H   H33       1.0  0.6881513838205181  0.6576115030378062  0.9403677918512087  1.0000
  H   H34       1.0  0.8118501689642417  0.05963546820634491  0.34239143381494586  1.0000
  H   H35       1.0  0.3118509108530604  0.34238639616292244  0.0596330908952183  1.0000
  H   H36       1.0  0.18815008255791102  0.9403649277896451  0.6576104857712792  1.0000
  C   C1        1.0  0.1845861961118231  0.7238651719176801  0.5146862206904501  1.0000
  C   C2        1.0  0.31541745649439434  0.4853148067564704  0.2761331773563498  1.0000
  C   C3        1.0  0.8154160616825051  0.27613189955864936  0.4853145741632616  1.0000
  C   C4        1.0  0.6845861340876239  0.5146880547302075  0.7238682575166847  1.0000
  C   C5        1.0  0.06844102686494583  0.6480867997735659  0.49258540999617406  1.0000
  C   C6        1.0  0.4315591589353645  0.5074152903063904  0.3519123930746417  1.0000
  C   C7        1.0  0.9315612723318624  0.3519110939258639  0.5074146500479344  1.0000
  C   C8        1.0  0.568443283255192  0.4925859197919067  0.6480888412426394  1.0000
  C   C9        1.0  0.9817123472869228  0.6470021911342909  0.3973471812892271  1.0000
  C   C10       1.0  0.518286017135999  0.6026534439224847  0.352997394629547  1.0000
  C   C11       1.0  0.01828883587444351  0.3529948844024419  0.6026535887941549  1.0000
  C   C12       1.0  0.48171428031186286  0.39734776879532063  0.6470029674447488  1.0000
  C   C13       1.0  0.009393416822760509  0.7230808422151824  0.32233109546609023  1.0000
  C   C14       1.0  0.49060656656525486  0.6776687002831495  0.2769165561617726  1.0000
  C   C15       1.0  0.9906077294593629  0.2769154055971583  0.6776695867245832  1.0000
  C   C16       1.0  0.509392591537619  0.3223308500436914  0.7230819599521252  1.0000
  C   C17       1.0  0.12318183349051995  0.7995607935349157  0.34404094106708527  1.0000
  C   C18       1.0  0.37681715911410424  0.65596049571365  0.20043699929184558  1.0000
  C   C19       1.0  0.8768193127916036  0.2004354542774253  0.6559597411235885  1.0000
  C   C20       1.0  0.6231820637007887  0.34404072106455175  0.7995633380121205  1.0000
  C   C21       1.0  0.21208387496899667  0.8021468781685855  0.43930770038907946  1.0000
  C   C22       1.0  0.28791657762113243  0.5606927557481997  0.1978507942960306  1.0000
  C   C23       1.0  0.7879172803595935  0.19784935864117875  0.5606913363969497  1.0000
  C   C24       1.0  0.7120837612292092  0.43930927919270607  0.8021488329686547  1.0000
  C   C25       1.0  0.27188023639222086  0.7129819671746774  0.6182704794598378  1.0000
  C   C26       1.0  0.22811839713765644  0.3817303122748116  0.28701689103918676  1.0000
  C   C27       1.0  0.72812213656308  0.28701758197354377  0.381729756369694  1.0000
  C   C28       1.0  0.7718775603758701  0.6182700944614866  0.7129841067633933  1.0000
  C   C29       1.0  0.3227355455383503  0.8945885262216179  0.458559592548383  1.0000
  C   C30       1.0  0.17726099237771112  0.5414395085469224  0.10540788094862559  1.0000
  C   C31       1.0  0.6772635019267882  0.10540854093204641  0.541438659887369  1.0000
  C   C32       1.0  0.8227382026044054  0.4585608695043036  0.8945907230579805  1.0000
  C   C33       1.0  0.7408266902984836  0.8503923724620462  0.06646038770620072  1.0000
  C   C34       1.0  0.7591713494489909  0.9335432508178911  0.149610784117499  1.0000
  C   C35       1.0  0.2591724587579237  0.1496071888673711  0.9335397738123347  1.0000
  C   C36       1.0  0.24082783648665906  0.0664571382359185  0.8503894652937518  1.0000
  C   C37       1.0  0.6019288269728591  0.8087190709053546  0.019563831338238944  1.0000
  C   C38       1.0  0.8980688523241512  0.9804399675376839  0.19128611862654307  1.0000
  C   C39       1.0  0.3980703589627979  0.19128131814845523  0.9804364180730119  1.0000
  C   C40       1.0  0.10192929133454952  0.019561258802212902  0.8087150166094118  1.0000
  C   C41       1.0  0.47485612640504365  0.8683679123194566  0.0334749740288487  1.0000
  C   C42       1.0  0.025139179381994822  0.9665270459648668  0.131635648866812  1.0000
  C   C43       1.0  0.5251431054563157  0.1316332934561686  0.9665237178704728  1.0000
  C   C44       1.0  0.9748578941669666  0.03347417893413511  0.8683646388964943  1.0000
  C   C45       1.0  0.34864930455410814  0.8247291942166869  0.9813406672258296  1.0000
  C   C46       1.0  0.1513483939093092  0.0186608633088738  0.17527409343839648  1.0000
  C   C47       1.0  0.6513509560145038  0.17527119077672648  0.018659606955751005  1.0000
  C   C48       1.0  0.8486496850373655  0.9813386965796553  0.8247252206074903  1.0000
  C   C49       1.0  0.4607867793656626  0.6674336288714077  0.9059979989460627  1.0000
  C   C50       1.0  0.0392099530228265  0.09400430025269911  0.3325704635775537  1.0000
  C   C51       1.0  0.5392123282882652  0.3325651102349099  0.0940028973820901  1.0000
  C   C52       1.0  0.9607881582798612  0.9059960928615071  0.6674297610633672  1.0000
  C   C53       1.0  0.5922940738348289  0.706308667556705  0.9535650197589476  1.0000
  C   C54       1.0  0.9077045743747479  0.04643870476831322  0.2936956366226795  1.0000
  C   C55       1.0  0.40770726136675256  0.2936917133763117  0.04643527919296281  1.0000
  C   C56       1.0  0.0922946070376724  0.9535616897867883  0.70630543549089  1.0000
  N   N1        1.0  0.3400522563336565  0.7254216260688366  0.9193552599050036  1.0000
  N   N2        1.0  0.1599447258687547  0.0806469452725196  0.2745826218244574  1.0000
  N   N3        1.0  0.6599479673557127  0.27457793120017737  0.08064492638386872  1.0000
  N   N4        1.0  0.8400533809107031  0.9193534533429784  0.7254184255187822  1.0000
  O   O1        1.0  0.16855832471571833  0.5049845108442953  0.819308398310362  1.0000
  O   O2        1.0  0.3314402139752772  0.1806927652905728  0.4950222128766129  1.0000
  O   O3        1.0  0.8314399567201037  0.4950191656610343  0.18068806438979826  1.0000
  O   O4        1.0  0.6685621770729568  0.819306761852488  0.50497473214363  1.0000
  O   O5        1.0  0.02514518659832991  0.7739802832019792  0.9056735494546331  1.0000
  O   O6        1.0  0.4748532902431607  0.0943327290975162  0.226025178968861  1.0000
  O   O7        1.0  0.9748531136238157  0.22602424303290286  0.09432629194753159  1.0000
  O   O8        1.0  0.5251449685765124  0.9056709749142657  0.7739753972429143  1.0000
  O   O9        1.0  0.20132185844894224  0.6955129257224044  0.7033532595106706  1.0000
  O   O10       1.0  0.2986803650129134  0.2966478276760186  0.3044887984114268  1.0000
  O   O11       1.0  0.7986796889816433  0.3044924325595417  0.2966492122021691  1.0000
  O   O12       1.0  0.7013176958408353  0.7033517542176714  0.6955138064437492  1.0000
  O   O13       1.0  0.4082705342714235  0.7153918960939265  0.617317161341667  1.0000
  O   O14       1.0  0.09172654886894091  0.38268570263541335  0.2846075272952291  1.0000
  O   O15       1.0  0.5917296434922363  0.28460684445327905  0.38268458245913456  1.0000
  O   O16       1.0  0.9082685138846146  0.6173188522845408  0.7153947079029093  1.0000
  O   O17       1.0  0.38367572478547635  0.9166884625007727  0.5545662932089499  1.0000
  O   O18       1.0  0.1163245941877662  0.4454312555396599  0.083309957392224  1.0000
  O   O19       1.0  0.6163244755943467  0.08331025053998793  0.4454313370802366  1.0000
  O   O20       1.0  0.8836756249783734  0.5545683072306532  0.9166910515989668  1.0000
  O   O21       1.0  0.3477214112123619  0.9517207073327613  0.3794620533089557  1.0000
  O   O22       1.0  0.1522779716679423  0.6205397871909355  0.048278833695199815  1.0000
  O   O23       1.0  0.6522788170002444  0.048278844434967993  0.6205373102775908  1.0000
  O   O24       1.0  0.8477223626591696  0.3794622532512619  0.9517216162718112  1.0000
