data_image0
_chemical_formula_structural       Cu4H16C28N4O18
_chemical_formula_sum              "Cu4 H16 C28 N4 O18"
_cell_length_a       6.861563904837192
_cell_length_b       10.740721907330375
_cell_length_c       11.088294263769223
_cell_angle_alpha    86.34560638843782
_cell_angle_beta     87.28360498667078
_cell_angle_gamma    87.85480895825974

_space_group_name_H-M_alt    "P 1"
_space_group_IT_number       1

loop_
  _space_group_symop_operation_xyz
  'x, y, z'

loop_
  _atom_site_type_symbol
  _atom_site_label
  _atom_site_symmetry_multiplicity
  _atom_site_fract_x
  _atom_site_fract_y
  _atom_site_fract_z
  _atom_site_occupancy
  Cu  Cu1       1.0  0.8067044533273843  0.006029451044291502  0.3129844813432854  1.0000
  Cu  Cu2       1.0  0.1933028390604292  0.9939649980283035  0.6870134988234895  1.0000
  Cu  Cu3       1.0  0.49803330271466  0.8607293927506774  0.48351622473363415  1.0000
  Cu  Cu4       1.0  0.5019533911766841  0.13927169518159838  0.5164728422000096  1.0000
  H   H1        1.0  0.8419021410306654  0.836039060758253  0.8924608933974766  1.0000
  H   H2        1.0  0.15808739946699998  0.1639619929367058  0.1075326191690422  1.0000
  H   H3        1.0  0.16403221516748798  0.2900749486098206  0.2689985986429022  1.0000
  H   H4        1.0  0.8359924926554853  0.7098886131067346  0.7310079179481973  1.0000
  H   H5        1.0  0.6925297828217224  0.508963657600887  0.4288348021629389  1.0000
  H   H6        1.0  0.3074733795031576  0.49102899480376283  0.571153452771263  1.0000
  H   H7        1.0  0.6108510228552857  0.21337753875970825  0.9116614710959112  1.0000
  H   H8        1.0  0.3891540051916422  0.7866327666521117  0.08833838218258451  1.0000
  H   H9        1.0  0.6687177071172313  0.19544283559478257  0.1334615825121048  1.0000
  H   H10       1.0  0.33127179219651026  0.8045572522167389  0.8665373963907613  1.0000
  H   H11       1.0  0.872859849726481  0.8287725003611257  0.11776844426783839  1.0000
  H   H12       1.0  0.12711953958343258  0.17122575120168898  0.8822299690475718  1.0000
  H   H13       1.0  0.20309622103162178  0.6907031460297262  0.27224361365883  1.0000
  H   H14       1.0  0.7968917068557244  0.30926799532579  0.7277597229309265  1.0000
  H   H15       1.0  0.7610986976361146  0.9843804099309353  0.5543224761864494  1.0000
  H   H16       1.0  0.2388802396776057  0.015629075650245697  0.4456699090987613  1.0000
  C   C1        1.0  0.8010762995234444  0.27248777308549416  0.3763744489324452  1.0000
  C   C2        1.0  0.1989394284116841  0.7275160376097389  0.6236146964091418  1.0000
  C   C3        1.0  0.7986154192119627  0.9165901806287591  0.9434697123458234  1.0000
  C   C4        1.0  0.2013740944381937  0.08340991258553028  0.05652836401149838  1.0000
  C   C5        1.0  0.09932101495936511  0.38024185995426757  0.2913963806039561  1.0000
  C   C6        1.0  0.9006770366844349  0.6197590802231828  0.708612273952312  1.0000
  C   C7        1.0  0.7256601652163893  0.026292390163178  0.884475340235852  1.0000
  C   C8        1.0  0.274333455033691  0.973714242691898  0.1155195704010339  1.0000
  C   C9        1.0  0.9147972197294506  0.3880632372621449  0.3497314501388686  1.0000
  C   C10       1.0  0.08517516632982591  0.6119246885856384  0.6502803282451026  1.0000
  C   C11       1.0  0.8350862816319305  0.5034718368269467  0.38171170840386986  1.0000
  C   C12       1.0  0.16492130843603547  0.49651702225031613  0.6182847730502771  1.0000
  C   C13       1.0  0.6729219268195906  0.12737437543268731  0.9537883445654955  1.0000
  C   C14       1.0  0.32707759282887133  0.8726294155611639  0.046211097798675396  1.0000
  C   C15       1.0  0.7029452006294149  0.0372686946722283  0.7495936789581492  1.0000
  C   C16       1.0  0.2970441461936133  0.9627360874872083  0.2504005319016116  1.0000
  C   C17       1.0  0.7021141513829718  0.11739674653784961  0.0771753254818393  1.0000
  C   C18       1.0  0.2978766869077062  0.8826061434651394  0.9228225641388336  1.0000
  C   C19       1.0  0.19952665390606233  0.48997575753218564  0.2654713876735997  1.0000
  C   C20       1.0  0.8004893210810593  0.5100466000266122  0.7345365588609667  1.0000
  C   C21       1.0  0.8180509352795154  0.9121549015974534  0.06766862017350661  1.0000
  C   C22       1.0  0.1819325767920503  0.08784894533379631  0.932328483575631  1.0000
  C   C23       1.0  0.1207105732388669  0.6068831580250061  0.2931380699483626  1.0000
  C   C24       1.0  0.8793167741547876  0.3931187028150164  0.7068599345954638  1.0000
  C   C25       1.0  0.8382422500139269  0.7355270936352056  0.3793664365849096  1.0000
  C   C26       1.0  0.161764334147577  0.26447754253077  0.6206445200711599  1.0000
  C   C27       1.0  0.935677604177677  0.6127612422408221  0.3515004813783946  1.0000
  C   C28       1.0  0.06435518051617353  0.38721914883286956  0.6484967918828913  1.0000
  N   N1        1.0  0.7743760644346834  0.0117356876516865  0.1332431980045854  1.0000
  N   N2        1.0  0.22561191838921252  0.9882643821604944  0.8667594246278725  1.0000
  N   N3        1.0  0.39565467447980035  0.4815722331638526  0.2057452933407546  1.0000
  N   N4        1.0  0.6043490218914582  0.518431471356017  0.7942666840187727  1.0000
  O   O1        1.0  0.6838666867618954  0.2715203324651227  0.468665052115  1.0000
  O   O2        1.0  0.31613439759547657  0.7284882465147646  0.5313133428388497  1.0000
  O   O3        1.0  0.8322010887833998  0.18784651475223768  0.301950181789806  1.0000
  O   O4        1.0  0.1677998774981546  0.812156317551988  0.6980528882722014  1.0000
  O   O5        1.0  0.6854339991792744  0.9994247073182977  0.47476515055798524  1.0000
  O   O6        1.0  0.31455417184330503  0.0005744830547627006  0.5252284976821144  1.0000
  O   O7        1.0  0.8138666118518286  0.9662493548596842  0.6856452461469685  1.0000
  O   O8        1.0  0.18613012036128407  0.0337535423074513  0.3143488991018515  1.0000
  O   O9        1.0  0.5750344565793739  0.11591617809954607  0.7111805572194356  1.0000
  O   O10       1.0  0.4249537037574243  0.8840811075205082  0.2888195109656309  1.0000
  O   O11       1.0  0.47889571237327283  0.5801341124293345  0.17583963493892438  1.0000
  O   O12       1.0  0.5211072614352616  0.4198797737811405  0.8241862214554487  1.0000
  O   O13       1.0  0.46714373823314753  0.375750997065424  0.1887255503665628  1.0000
  O   O14       1.0  0.5328914816709656  0.6242695168431922  0.8112703290856514  1.0000
  O   O15       1.0  0.9005848413974747  0.8311809624930216  0.3174563202141272  1.0000
  O   O16       1.0  0.09944499940201008  0.1688254828188107  0.6825539975570933  1.0000
  O   O17       1.0  0.7004996249071314  0.7314587304958594  0.4601986574231631  1.0000
  O   O18       1.0  0.2994897167060627  0.26854129788519293  0.5398102494806878  1.0000
