data_image0
_chemical_formula_structural       Cu4H36C52Br4N8
_chemical_formula_sum              "Cu4 H36 C52 Br4 N8"
_cell_length_a       10.54679472933662
_cell_length_b       12.008548152329677
_cell_length_c       12.904394267825074
_cell_angle_alpha    109.16873634407638
_cell_angle_beta     104.64048416035784
_cell_angle_gamma    109.59152495687113

_space_group_name_H-M_alt    "P 1"
_space_group_IT_number       1

loop_
  _space_group_symop_operation_xyz
  'x, y, z'

loop_
  _atom_site_type_symbol
  _atom_site_label
  _atom_site_symmetry_multiplicity
  _atom_site_fract_x
  _atom_site_fract_y
  _atom_site_fract_z
  _atom_site_occupancy
  Cu  Cu1       1.0  0.789266656073231  0.5790422512852871  0.32998929528855575  1.0000
  Cu  Cu2       1.0  0.04102183269969128  0.7510798910578558  0.33009480725992546  1.0000
  Cu  Cu3       1.0  0.21073183448147162  0.4209604274862715  0.670011515526113  1.0000
  Cu  Cu4       1.0  0.9589760307837311  0.2489178145084309  0.6699027902416218  1.0000
  H   H1        1.0  0.8853918149288589  0.8533482662806333  0.4858227320747017  1.0000
  H   H2        1.0  0.10012339032611822  0.6322704452441387  0.48574283639332083  1.0000
  H   H3        1.0  0.11461309449095582  0.1466573284904911  0.5141818436012284  1.0000
  H   H4        1.0  0.8998764789660496  0.3677292271575964  0.5142573289518779  1.0000
  H   H5        1.0  0.956533095177811  0.9979823253640705  0.7014764898656907  1.0000
  H   H6        1.0  0.24473268939858175  0.7031860162850235  0.7013921954546943  1.0000
  H   H7        1.0  0.04346791751934379  0.0020233061387671  0.29852884873535857  1.0000
  H   H8        1.0  0.7552662053664888  0.2968136667085374  0.29860777351827744  1.0000
  H   H9        1.0  0.8771221304683509  0.6501468329231344  0.7592780879542643  1.0000
  H   H10       1.0  0.3823602586785526  0.1088940004674939  0.7593736231486117  1.0000
  H   H11       1.0  0.12287911617553965  0.3498498387443831  0.24071988350745946  1.0000
  H   H12       1.0  0.6176401802374798  0.8911086599382188  0.2406268062035011  1.0000
  H   H13       1.0  0.8220702797697472  0.5244904991151317  0.5462459645843865  1.0000
  H   H14       1.0  0.22443982803832088  0.02172557982581221  0.5463603763452338  1.0000
  H   H15       1.0  0.17793107414734521  0.4755101739508731  0.4537493892127244  1.0000
  H   H16       1.0  0.7755585510859291  0.9782731144541117  0.45363840689202556  1.0000
  H   H17       1.0  0.15973200838130447  0.054511447757917615  0.8951766227657242  1.0000
  H   H18       1.0  0.23527277163733382  0.8410009406084387  0.8952195017789464  1.0000
  H   H19       1.0  0.8402697006132483  0.9454842105150834  0.10482423036752674  1.0000
  H   H20       1.0  0.7647232549152106  0.1590007678153427  0.1047805047625587  1.0000
  H   H21       1.0  0.7131444807111507  0.7262795931543166  0.024210113866473634  1.0000
  H   H22       1.0  0.8111959120344492  0.29768930820489464  0.02416012285881659  1.0000
  H   H23       1.0  0.2868571722217368  0.27371407428177014  0.975789338374575  1.0000
  H   H24       1.0  0.18880441475825194  0.70230937052699  0.9758375047088845  1.0000
  H   H25       1.0  0.4554381152537843  0.5472930237336798  0.9164843283812301  1.0000
  H   H26       1.0  0.9609134012270601  0.3691383451986425  0.9164057065506767  1.0000
  H   H27       1.0  0.5445622696792114  0.45270763738168546  0.08351702269968797  1.0000
  H   H28       1.0  0.03908790078562432  0.6308603201235955  0.08359289159625406  1.0000
  H   H29       1.0  0.40597499698624523  0.5978208026803316  0.6087274070319777  1.0000
  H   H30       1.0  0.702617356386959  0.0108626804818428  0.6085366303893237  1.0000
  H   H31       1.0  0.594023495647079  0.4021818676378075  0.39127572640370534  1.0000
  H   H32       1.0  0.2973813715788651  0.9891310243653563  0.39146068432103925  1.0000
  H   H33       1.0  0.6565027268540149  0.7823826382307929  0.7037827614479751  1.0000
  H   H34       1.0  0.5474088849610154  0.9211469698061449  0.7036819984258  1.0000
  H   H35       1.0  0.34349708706936605  0.21761504051621472  0.29621677721202383  1.0000
  H   H36       1.0  0.45259155603364587  0.0788556821461341  0.2963207535473272  1.0000
  C   C1        1.0  0.8837045380866189  0.8128398549581278  0.5500909984222133  1.0000
  C   C2        1.0  0.16610957796425666  0.7370174573710885  0.5500313087055275  1.0000
  C   C3        1.0  0.11629636040857602  0.1871618033243081  0.44990921577340953  1.0000
  C   C4        1.0  0.8338892053703546  0.2629782411308383  0.44996663269003506  1.0000
  C   C5        1.0  0.9219282818012218  0.8920846298001094  0.6699162963753693  1.0000
  C   C6        1.0  0.24778583487564995  0.7775369856890393  0.6698698070430495  1.0000
  C   C7        1.0  0.07807462042408987  0.10791900377118678  0.33008416304290467  1.0000
  C   C8        1.0  0.752211054080675  0.22246073046908063  0.3301275940862708  1.0000
  C   C9        1.0  0.9161076485833703  0.8352640234134298  0.748987597577674  1.0000
  C   C10       1.0  0.33289129452843036  0.9134113482638216  0.7489479872471136  1.0000
  C   C11       1.0  0.08389273634962541  0.16473663770194238  0.2510137535032442  1.0000
  C   C12       1.0  0.667107656298299  0.08659032556665379  0.2510533826180676  1.0000
  C   C13       1.0  0.8778472490904434  0.6998603388949219  0.7022957297399373  1.0000
  C   C14       1.0  0.3245203578575229  0.0021784881431302014  0.7022986260738264  1.0000
  C   C15       1.0  0.1221546232389699  0.300141311613487  0.2977039066209101  1.0000
  C   C16       1.0  0.6754780766355138  0.997822199791514  0.29770078384863297  1.0000
  C   C17       1.0  0.8453528682995781  0.6283241212192935  0.5818418490811083  1.0000
  C   C18       1.0  0.23662492201822277  0.9534660155431569  0.5819152339327047  1.0000
  C   C19       1.0  0.15465146526048562  0.371678510908133  0.41815549472487845  1.0000
  C   C20       1.0  0.7633740288085133  0.04653565828731842  0.41808613593247645  1.0000
  C   C21       1.0  0.9529393879063973  0.9178792623217406  0.8764424714029815  1.0000
  C   C22       1.0  0.42354359197679503  0.9583852515282911  0.8763878405877035  1.0000
  C   C23       1.0  0.047058882558900506  0.08211543619530909  0.12355738108488618  1.0000
  C   C24       1.0  0.5764578768351355  0.0416193919403085  0.12361341182184296  1.0000
  C   C25       1.0  0.08830594770900288  0.0325414607520145  0.9413491875394154  1.0000
  C   C26       1.0  0.3529034765401847  0.9090906317017514  0.9414429190897663  1.0000
  C   C27       1.0  0.9116968430858493  0.9674581883276477  0.05864924430144935  1.0000
  C   C28       1.0  0.6470915754852554  0.09091108731386299  0.05855689107951177  1.0000
  C   C29       1.0  0.8606630578764155  0.8844210850619948  0.9358442737441165  1.0000
  C   C30       1.0  0.5753551815523394  0.0510464967486755  0.9357095961056456  1.0000
  C   C31       1.0  0.1393401385145552  0.1155755626040502  0.06415486466906369  1.0000
  C   C32       1.0  0.4246472078036589  0.9489561368377507  0.06429277440492602  1.0000
  C   C33       1.0  0.7102707964482846  0.7724681456966778  0.8736811088267442  1.0000
  C   C34       1.0  0.663556399102653  0.1008872253107285  0.8735689842952962  1.0000
  C   C35       1.0  0.2897299366334138  0.2275275288037761  0.1263179995202748  1.0000
  C   C36       1.0  0.33644301061036697  0.8991134492142763  0.12643139620639227  1.0000
  C   C37       1.0  0.6491281539855862  0.7033093689542725  0.9323080958502173  1.0000
  C   C38       1.0  0.7832260808473989  0.22875991091763836  0.9322294186151863  1.0000
  C   C39       1.0  0.35087596364233054  0.29668526601178513  0.06769293487099762  1.0000
  C   C40       1.0  0.21677080672316876  0.7712378108761015  0.06776643410012896  1.0000
  C   C41       1.0  0.5051192311410091  0.6021454896597974  0.8726624465533489  1.0000
  C   C42       1.0  0.8674140845125039  0.27046472515702646  0.872554344325003  1.0000
  C   C43       1.0  0.494884595785628  0.3978561171224727  0.1273437762079794  1.0000
  C   C44       1.0  0.13258578200816382  0.7295349585159344  0.1274427241921856  1.0000
  C   C45       1.0  0.47685955250729256  0.6299654635099826  0.7013931968772551  1.0000
  C   C46       1.0  0.724377636899291  0.071335486368362  0.7011811171206616  1.0000
  C   C47       1.0  0.523137395282191  0.3700342322138184  0.29860870197228445  1.0000
  C   C48       1.0  0.275625670922139  0.9286651457893171  0.29882004886992763  1.0000
  C   C49       1.0  0.6185074549200209  0.7328966224593075  0.7548771384681743  1.0000
  C   C50       1.0  0.6364555372863306  0.021784708238257608  0.7547170638292398  1.0000
  C   C51       1.0  0.38149236038911744  0.2671010506520801  0.24512394860583697  1.0000
  C   C52       1.0  0.36354536328749293  0.9782169415907448  0.24528547298739775  1.0000
  Br  Br1       1.0  0.944267813511658  0.4953017518801418  0.24767923102975703  1.0000
  Br  Br2       1.0  0.8037826211603446  0.7526688126267871  0.2477450758937323  1.0000
  Br  Br3       1.0  0.05573005343614318  0.5046959395970987  0.7523222375068029  1.0000
  Br  Br4       1.0  0.19621083134534703  0.24732793532196243  0.7522536472112119  1.0000
  N   N1        1.0  0.8447635002109309  0.681614474599435  0.5042967017527644  1.0000
  N   N2        1.0  0.15938788155841616  0.8225177201624659  0.5043141482813309  1.0000
  N   N3        1.0  0.15523842818014802  0.318389166745888  0.4957043355002851  1.0000
  N   N4        1.0  0.8406125012959506  0.1774829494063255  0.4956848801785795  1.0000
  N   N5        1.0  0.4182874677299608  0.5640708930539234  0.7580825785811738  1.0000
  N   N6        1.0  0.8397466404220493  0.19398072293985544  0.7580018810480735  1.0000
  N   N7        1.0  0.5817154379597298  0.4359327264283266  0.24192175187211248  1.0000
  N   N8        1.0  0.16025374243231746  0.8060199466289361  0.241997147411837  1.0000
