data_image0
_chemical_formula_structural       Ag4H28C16N8O12
_chemical_formula_sum              "Ag4 H28 C16 N8 O12"
_cell_length_a       5.428215379566096
_cell_length_b       5.42820156236548
_cell_length_c       21.391036371280425
_cell_angle_alpha    89.99978275955195
_cell_angle_beta     90.00055704627341
_cell_angle_gamma    93.60445991395771

_space_group_name_H-M_alt    "P 1"
_space_group_IT_number       1

loop_
  _space_group_symop_operation_xyz
  'x, y, z'

loop_
  _atom_site_type_symbol
  _atom_site_label
  _atom_site_symmetry_multiplicity
  _atom_site_fract_x
  _atom_site_fract_y
  _atom_site_fract_z
  _atom_site_occupancy
  Ag  Ag1       1.0  0.3222592076701146  0.44429244347526964  0.4243166963361346  1.0000
  Ag  Ag2       1.0  0.44428579461806816  0.3222862411451499  0.5756835783104035  1.0000
  Ag  Ag3       1.0  0.6777365457166694  0.5557057774984884  0.9243148274275723  1.0000
  Ag  Ag4       1.0  0.5557153918087607  0.6777180458875164  0.0756829910474295  1.0000
  H   H1        1.0  0.8727522751508088  0.6951818400770904  0.44204056403453496  1.0000
  H   H2        1.0  0.6951646078438785  0.8727711092570511  0.5579612440904141  1.0000
  H   H3        1.0  0.12724414473688483  0.304816159748853  0.9420403875581083  1.0000
  H   H4        1.0  0.304835525235184  0.1272278613840498  0.057960572296003876  1.0000
  H   H5        1.0  0.4825182467336972  0.856364067724435  0.4737088778646734  1.0000
  H   H6        1.0  0.8563485598764585  0.4825481166337226  0.5262880843332808  1.0000
  H   H7        1.0  0.5174815922965976  0.143639061525576  0.9737098184046925  1.0000
  H   H8        1.0  0.143654064925542  0.5174512232696385  0.026287105155930093  1.0000
  H   H9        1.0  0.41462127401450727  0.9156519533609566  0.40174825026067384  1.0000
  H   H10       1.0  0.9156532018028541  0.414639158996863  0.5982477705629206  1.0000
  H   H11       1.0  0.5853699480405153  0.084346575101371  0.9017484804346904  1.0000
  H   H12       1.0  0.0843484461572928  0.585359309000296  0.09824657957794607  1.0000
  H   H13       1.0  0.014262426593333495  0.7334854260438631  0.3362353582109349  1.0000
  H   H14       1.0  0.7334691914570469  0.014266990454089497  0.6637672398186323  1.0000
  H   H15       1.0  0.9857348938604955  0.266504625848782  0.8362321903943336  1.0000
  H   H16       1.0  0.26652952510774947  0.9857325447850157  0.16376610961597038  1.0000
  H   H17       1.0  0.7380689087760854  0.5410204655971143  0.33974014660940804  1.0000
  H   H18       1.0  0.5410054431000262  0.7380735866131828  0.6602577059157609  1.0000
  H   H19       1.0  0.2619222099162855  0.4589843610714013  0.8397415548906221  1.0000
  H   H20       1.0  0.4589910422308918  0.2619223136809836  0.16025962066618143  1.0000
  H   H21       1.0  0.672980585839852  0.9292994491708623  0.20148103258416225  1.0000
  H   H22       1.0  0.9292837378083689  0.6729828156867013  0.7985165938323388  1.0000
  H   H23       1.0  0.3270265274690871  0.0706940261491837  0.7014834447443405  1.0000
  H   H24       1.0  0.07071280924242979  0.32701693598566806  0.298515619516877  1.0000
  H   H25       1.0  0.7867352192622546  0.6490825494691421  0.22492196785221094  1.0000
  H   H26       1.0  0.6490709990289147  0.7867348828743556  0.7750816115594007  1.0000
  H   H27       1.0  0.21326712234625225  0.3509088264493058  0.7249205560797518  1.0000
  H   H28       1.0  0.3509284784882212  0.21326698111562334  0.2750795674670455  1.0000
  C   C1        1.0  0.8938637457603205  0.0797571863738682  0.4248967912014405  1.0000
  C   C2        1.0  0.07974067799698757  0.8939078110420694  0.5751050405320085  1.0000
  C   C3        1.0  0.10613387081649957  0.9202410143987901  0.9248954991384435  1.0000
  C   C4        1.0  0.9202624569938606  0.1060983160943181  0.07510309968111528  1.0000
  C   C5        1.0  0.7740651485767244  0.820472755854077  0.41173563229607163  1.0000
  C   C6        1.0  0.8204673551374738  0.7740872854033821  0.5882647932544174  1.0000
  C   C7        1.0  0.2259302607334988  0.17952746791799967  0.9117353526935755  1.0000
  C   C8        1.0  0.1795340464052444  0.22591315298839018  0.08826324984926968  1.0000
  C   C9        1.0  0.8144668703542025  0.7329689145950905  0.34501712438051857  1.0000
  C   C10       1.0  0.7329566190503556  0.8144724325464239  0.6549851359331809  1.0000
  C   C11       1.0  0.1855318121788585  0.2670357944120383  0.8450157255672007  1.0000
  C   C12       1.0  0.2670434796664339  0.18552535346977078  0.15498384712715557  1.0000
  C   C13       1.0  0.7048727179122878  0.8953233097531378  0.29581125375285205  1.0000
  C   C14       1.0  0.8953242838176361  0.7048719099339847  0.704185903643676  1.0000
  C   C15       1.0  0.2951503161783506  0.10466151454781417  0.7958158919249029  1.0000
  C   C16       1.0  0.1046558265033184  0.29512910942218434  0.20418177141709745  1.0000
  N   N1        1.0  0.5113407231258051  0.7980850649871696  0.4287232763972567  1.0000
  N   N2        1.0  0.7980841137753598  0.5113682319444166  0.5712750662766055  1.0000
  N   N3        1.0  0.4886554539593604  0.20191679266621076  0.9287236220263322  1.0000
  N   N4        1.0  0.20191849027506237  0.4886324054634412  0.07127379099595997  1.0000
  N   N5        1.0  0.7130862760115093  0.8138022678279667  0.23689737425338814  1.0000
  N   N6        1.0  0.8137928488635566  0.7130835139755971  0.7631081431207959  1.0000
  N   N7        1.0  0.2869195180925316  0.186205558241511  0.736896770863936  1.0000
  N   N8        1.0  0.1862128990413154  0.2869092183648192  0.26310889449720776  1.0000
  O   O1        1.0  0.11237304291097422  0.11745185693197162  0.4014486064965652  1.0000
  O   O2        1.0  0.1174372798618109  0.1124121797728606  0.5985564096181974  1.0000
  O   O3        1.0  0.8876254043351324  0.882544777602071  0.9014474053010699  1.0000
  O   O4        1.0  0.8825630542298268  0.8875936806872603  0.09855408644754247  1.0000
  O   O5        1.0  0.7857721638447471  0.22739302707631026  0.4585490000662985  1.0000
  O   O6        1.0  0.22737535004585394  0.7858279400606065  0.5414491213096041  1.0000
  O   O7        1.0  0.21422684713917303  0.7726065996584521  0.9585481171670478  1.0000
  O   O8        1.0  0.7726286187155083  0.21418228570496464  0.041447647212677886  1.0000
  O   O9        1.0  0.6166728863065669  0.0957274257188985  0.31067056002814286  1.0000
  O   O10       1.0  0.09571165962928767  0.6166777676223985  0.689330609145763  1.0000
  O   O11       1.0  0.3833369717460683  0.9042979382379243  0.8106741733441891  1.0000
  O   O12       1.0  0.9043026201033085  0.38331949916544533  0.18932742548249587  1.0000
