data_image0
_chemical_formula_structural       Co2H32C40N12O10
_chemical_formula_sum              "Co2 H32 C40 N12 O10"
_cell_length_a       8.388569984656549
_cell_length_b       10.033723713828202
_cell_length_c       11.436935574731747
_cell_angle_alpha    81.63362064226285
_cell_angle_beta     88.83360966495125
_cell_angle_gamma    85.0341001443752

_space_group_name_H-M_alt    "P 1"
_space_group_IT_number       1

loop_
  _space_group_symop_operation_xyz
  'x, y, z'

loop_
  _atom_site_type_symbol
  _atom_site_label
  _atom_site_symmetry_multiplicity
  _atom_site_fract_x
  _atom_site_fract_y
  _atom_site_fract_z
  _atom_site_occupancy
  Co  Co1       1.0  0.9883173162666453  0.6977833861893004  0.8900663189614093  1.0000
  Co  Co2       1.0  0.011680901020909603  0.30221567130069366  0.1099360366960838  1.0000
  H   H1        1.0  0.018242961584036307  0.2429652968812519  0.39637288322674635  1.0000
  H   H2        1.0  0.9817541667531773  0.7570327392267657  0.6036269987079521  1.0000
  H   H3        1.0  0.05860896109267341  0.1420180422732855  0.9017024847637956  1.0000
  H   H4        1.0  0.9413902521681833  0.8579830313046558  0.0982987181048074  1.0000
  H   H5        1.0  0.0652662773037065  0.4644836510173818  0.6085319839520551  1.0000
  H   H6        1.0  0.9347330395279414  0.5355163993978566  0.39146672843408936  1.0000
  H   H7        1.0  0.03387768009749691  0.0537795300218207  0.5460773205689904  1.0000
  H   H8        1.0  0.96612053870345  0.9462195234029313  0.45392416123219453  1.0000
  H   H9        1.0  0.1967343543737031  0.9033435229131541  0.022681315996841513  1.0000
  H   H10       1.0  0.8032670458681963  0.0966595690372571  0.9773195911795085  1.0000
  H   H11       1.0  0.31811942142472577  0.49863335249957424  0.9762861321510458  1.0000
  H   H12       1.0  0.6818762142727551  0.5013677264205468  0.023715120996548933  1.0000
  H   H13       1.0  0.6724982037378596  0.881768203737913  0.9113555769689299  1.0000
  H   H14       1.0  0.3274998185152711  0.11823286755550548  0.08864476880302871  1.0000
  H   H15       1.0  0.7339096825070258  0.573324406723053  0.700588654231325  1.0000
  H   H16       1.0  0.2660900243934705  0.4266716160853291  0.29941407792589564  1.0000
  H   H17       1.0  0.464349862735567  0.9358428212342815  0.1311590820768558  1.0000
  H   H18       1.0  0.5356567067400492  0.06415621159489152  0.8688405346940726  1.0000
  H   H19       1.0  0.6153672436902015  0.800632967018153  0.1359441997452819  1.0000
  H   H20       1.0  0.38463217217205437  0.19936607243012358  0.8640546437273215  1.0000
  H   H21       1.0  0.6232174446938147  0.9281538455757569  0.3339497685335431  1.0000
  H   H22       1.0  0.3767864426477344  0.07184822371574741  0.6660494884973218  1.0000
  H   H23       1.0  0.26264546868155497  0.5751192048380747  0.4887558322268077  1.0000
  H   H24       1.0  0.737354841096618  0.42488286979561  0.5112434750830488  1.0000
  H   H25       1.0  0.28821364919028974  0.644509448648968  0.2733626495617543  1.0000
  H   H26       1.0  0.7117891446607345  0.3554916114563014  0.7266367553152334  1.0000
  H   H27       1.0  0.5921201600191922  0.8641917855394186  0.5489096756564321  1.0000
  H   H28       1.0  0.4078825332878396  0.1358102895980622  0.4510904719904048  1.0000
  H   H29       1.0  0.29086402032532993  0.7206038332608102  0.6968572336595001  1.0000
  H   H30       1.0  0.7091365895714433  0.2793952003414972  0.3031407191971311  1.0000
  H   H31       1.0  0.39592397952572606  0.5615473988598154  0.6855761752710166  1.0000
  H   H32       1.0  0.6040765313404394  0.4384526457094538  0.3144216464991558  1.0000
  C   C1        1.0  0.06819682424691112  0.31274636216942037  0.763056662587438  1.0000
  C   C2        1.0  0.9318048776269879  0.6872536846843715  0.2369420162793787  1.0000
  C   C3        1.0  0.05668070788377121  0.17608467915694354  0.8070252028932074  1.0000
  C   C4        1.0  0.943318407859877  0.8239174013227172  0.1929749950326212  1.0000
  C   C5        1.0  0.06361697600061691  0.3570071950234707  0.6412313090940103  1.0000
  C   C6        1.0  0.936380054819388  0.6429918479862594  0.35876756789792097  1.0000
  C   C7        1.0  0.04034615309409869  0.08370773131275662  0.7283624900291698  1.0000
  C   C8        1.0  0.9596554467224083  0.9162933346384886  0.2716378054637972  1.0000
  C   C9        1.0  0.020562270908591522  0.9392640523496852  0.7752764848064829  1.0000
  C   C10       1.0  0.9794333663022882  0.06073702250518661  0.2247238944848036  1.0000
  C   C11       1.0  0.051294384189581904  0.2636984427031948  0.562436816900103  1.0000
  C   C12       1.0  0.948703938182156  0.7362995875588539  0.43756217441863043  1.0000
  C   C13       1.0  0.0772724507786933  0.41216524769301105  0.8478266341115698  1.0000
  C   C14       1.0  0.922728156091296  0.5878337940397955  0.15217306645767786  1.0000
  C   C15       1.0  0.0413128767016104  0.12703416834798287  0.6065368434585494  1.0000
  C   C16       1.0  0.9586865376472532  0.8729648751655507  0.39346287387036216  1.0000
  C   C17       1.0  0.2571151137813246  0.8028161361754443  0.025160296991764104  1.0000
  C   C18       1.0  0.7428851944834491  0.1971859425234825  0.9748398841744005  1.0000
  C   C19       1.0  0.32095882071773474  0.5971291465311808  0.003971108374912508  1.0000
  C   C20       1.0  0.6790402935125216  0.4028729380137221  0.9960299634072243  1.0000
  C   C21       1.0  0.4604065127070172  0.7886265314489549  0.2885511312971261  1.0000
  C   C22       1.0  0.5395951891668886  0.21137351540483718  0.7114475475696906  1.0000
  C   C23       1.0  0.6467264942285879  0.812614216648555  0.8512013654397491  1.0000
  C   C24       1.0  0.3532706325952333  0.18738382352471214  0.1487993903512574  1.0000
  C   C25       1.0  0.6826669519963743  0.6537265111083033  0.7468693782950737  1.0000
  C   C26       1.0  0.3173313658351731  0.34627153134948685  0.2531322345925844  1.0000
  C   C27       1.0  0.48907893682572023  0.8265867988983187  0.15728740412977524  1.0000
  C   C28       1.0  0.5109203815193268  0.17341324745167702  0.8427104344000612  1.0000
  C   C29       1.0  0.4262007509833836  0.7136683313975496  0.5343551291655758  1.0000
  C   C30       1.0  0.5737972742965313  0.286332731765377  0.4656434688937665  1.0000
  C   C31       1.0  0.5434833499277899  0.8508439099893507  0.3675687991162421  1.0000
  C   C32       1.0  0.45651944543663353  0.1491571460506762  0.6324297319044376  1.0000
  C   C33       1.0  0.34195562412193686  0.6528008131441468  0.4551089953599429  1.0000
  C   C34       1.0  0.6580459802347535  0.3472002406113575  0.5448886785640994  1.0000
  C   C35       1.0  0.35742868695040636  0.6910394113091273  0.3335362265819625  1.0000
  C   C36       1.0  0.642572816862284  0.3089626574785883  0.6664621901119218  1.0000
  C   C37       1.0  0.5259549962692064  0.8141449080083303  0.48920428008580075  1.0000
  C   C38       1.0  0.4740455100567829  0.18585514875668  0.5107961632532962  1.0000
  C   C39       1.0  0.4027221807970918  0.6714545169551303  0.6655916860104014  1.0000
  C   C40       1.0  0.5972783300690807  0.32854552761413913  0.3344061357597711  1.0000
  N   N1        1.0  0.2079729543334992  0.7022637980872802  0.9734029863415755  1.0000
  N   N2        1.0  0.7920260623795486  0.2977392933593421  0.026597080497786904  1.0000
  N   N3        1.0  0.7598232556273531  0.7181212829054004  0.8196695190499383  1.0000
  N   N4        1.0  0.24017516274820142  0.2818757445201854  0.1803313510678777  1.0000
  N   N5        1.0  0.39354136872449896  0.7584868145567755  0.08377547734038159  1.0000
  N   N6        1.0  0.6064589410536741  0.241515260076909  0.9162238299694749  1.0000
  N   N7        1.0  0.530042508351997  0.7078843534778584  0.7364447652315463  1.0000
  N   N8        1.0  0.4699581975485928  0.2921136772879863  0.2635550664241677  1.0000
  N   N9        1.0  0.43600036277758386  0.6271046322848264  0.07140590146297403  1.0000
  N   N10       1.0  0.5639999439737977  0.3728974504793571  0.9285951535594991  1.0000
  N   N11       1.0  0.5052427002094363  0.8110560037176601  0.8019660292819565  1.0000
  N   N12       1.0  0.4947554225876942  0.18894405254355456  0.19803357372015282  1.0000
  O   O1        1.0  0.9724997714780771  0.9113963209601079  0.8825712505166196  1.0000
  O   O2        1.0  0.02749844732286281  0.0886027324646435  0.1174302312845725  1.0000
  O   O3        1.0  0.052041332280431576  0.845779723613596  0.7115451384669812  1.0000
  O   O4        1.0  0.9479568850071162  0.15421933387639802  0.2884572171905191  1.0000
  O   O5        1.0  0.10938589483308193  0.36619583327530597  0.9558617980050882  1.0000
  O   O6        1.0  0.8906178919644674  0.6338072510484097  0.04413820179561868  1.0000
  O   O7        1.0  0.05426321180161151  0.5374329879400862  0.8075851026446088  1.0000
  O   O8        1.0  0.9457361050300437  0.4625670624751592  0.19241360974152852  1.0000
  O   O9        1.0  0.047946133680206116  0.3114390577221117  0.44500108451207154  1.0000
  O   O10       1.0  0.9520522846953482  0.6885579697034672  0.5549997856057445  1.0000
