data_image0
_chemical_formula_structural       Zn4H32C36N12O8
_chemical_formula_sum              "Zn4 H32 C36 N12 O8"
_cell_length_a       8.844274071228364
_cell_length_b       9.9567941510013
_cell_length_c       11.245454716713544
_cell_angle_alpha    89.99994245303307
_cell_angle_beta     92.51417336662466
_cell_angle_gamma    90.00001345260996

_space_group_name_H-M_alt    "P 1"
_space_group_IT_number       1

loop_
  _space_group_symop_operation_xyz
  'x, y, z'

loop_
  _atom_site_type_symbol
  _atom_site_label
  _atom_site_symmetry_multiplicity
  _atom_site_fract_x
  _atom_site_fract_y
  _atom_site_fract_z
  _atom_site_occupancy
  Zn  Zn1       1.0  0.7903591073933285  0.27331446647509955  0.8737619968944372  1.0000
  Zn  Zn2       1.0  0.7096410970526462  0.7733141717152139  0.1262376040231814  1.0000
  Zn  Zn3       1.0  0.2096407511662477  0.7266856574605643  0.1262376319181158  1.0000
  Zn  Zn4       1.0  0.29035876150693696  0.22668595222044985  0.8737620247893716  1.0000
  H   H1        1.0  0.9407178736428673  0.9232046912675361  0.3370014807006356  1.0000
  H   H2        1.0  0.5592823631425359  0.4232041728402793  0.662997988122747  1.0000
  H   H3        1.0  0.0592819837444054  0.0767954326676303  0.6629990373191674  1.0000
  H   H4        1.0  0.4407174954170401  0.576795951095392  0.33700164068980604  1.0000
  H   H5        1.0  0.1075333975896982  0.10590133083737645  0.41761455844383016  1.0000
  H   H6        1.0  0.39246722078762286  0.6059015606876985  0.58238524467464  1.0000
  H   H7        1.0  0.892466459797582  0.894098793097783  0.5823859595759728  1.0000
  H   H8        1.0  0.6075337695358342  0.39409856324807196  0.41761442410479793  1.0000
  H   H9        1.0  0.14341478515687098  0.3157350020352468  0.305617973589527  1.0000
  H   H10       1.0  0.35658587849304263  0.8157361016303215  0.6943816446076312  1.0000
  H   H11       1.0  0.8565862039942828  0.6842651219000118  0.694382584397161  1.0000
  H   H12       1.0  0.643415110658104  0.18426402230494435  0.3056189133790497  1.0000
  H   H13       1.0  0.0078094190641166995  0.3553281651206532  0.108287319731069  1.0000
  H   H14       1.0  0.49219125312806256  0.8553280646048905  0.891712263574199  1.0000
  H   H15       1.0  0.992191568914407  0.6446689457960989  0.8917141274641908  1.0000
  H   H16       1.0  0.5078097383676904  0.14467205933137717  0.10828651599799599  1.0000
  H   H17       1.0  0.8794232544803434  0.45294067578117164  0.6794752375211887  1.0000
  H   H18       1.0  0.6205769887208347  0.9529411462907976  0.3205242050962198  1.0000
  H   H19       1.0  0.12057660407912607  0.5470584438151677  0.3205243912918121  1.0000
  H   H20       1.0  0.3794228710110445  0.04705897764537072  0.6794745345090902  1.0000
  H   H21       1.0  0.905191207345801  0.30744710864249924  0.5954175586167452  1.0000
  H   H22       1.0  0.5948090032922123  0.8074474783750248  0.40458290142762365  1.0000
  H   H23       1.0  0.09480865121377488  0.6925530152931716  0.4045820701958078  1.0000
  H   H24       1.0  0.4051919870313512  0.19255364990007004  0.5954167673513737  1.0000
  H   H25       1.0  0.14045963916415619  0.40844042696232946  0.5116449677517565  1.0000
  H   H26       1.0  0.35953991272339175  0.9084407566951146  0.48835452877999325  1.0000
  H   H27       1.0  0.8595402193954198  0.5915596969733414  0.48835466106079656  1.0000
  H   H28       1.0  0.6404599458361844  0.09155936724055644  0.5116451000325597  1.0000
  H   H29       1.0  0.11344676492787897  0.5551874094925255  0.5956444552122662  1.0000
  H   H30       1.0  0.38655271074377134  0.05518725275658201  0.4043553526323365  1.0000
  H   H31       1.0  0.8865530936316971  0.44481271444314546  0.4043551736002868  1.0000
  H   H32       1.0  0.6134471478158049  0.944812871179089  0.5956442761802166  1.0000
  C   C1        1.0  0.9021752439936961  0.15779680476708796  0.11182129643854209  1.0000
  C   C2        1.0  0.5978238037649887  0.6577966261953635  0.8881783663148326  1.0000
  C   C3        1.0  0.09782574515745068  0.8422033191681779  0.8881792615481459  1.0000
  C   C4        1.0  0.40217605596689043  0.3422034977408118  0.1118203732904703  1.0000
  C   C5        1.0  0.8832281247554477  0.036510740437954305  0.1748686993817046  1.0000
  C   C6        1.0  0.6167697650712681  0.5365096330349958  0.8251310302914304  1.0000
  C   C7        1.0  0.1167706008679517  0.9634893834971124  0.8251317786712136  1.0000
  C   C8        1.0  0.3832300934881943  0.4634894865613364  0.174868598521563  1.0000
  C   C9        1.0  0.955369035349953  0.015730903332524807  0.2872891733302581  1.0000
  C   C10       1.0  0.5446299817574243  0.515730912865486  0.7127106146219971  1.0000
  C   C11       1.0  0.04462969144574909  0.9842692206030537  0.71271041551541  1.0000
  C   C12       1.0  0.45536987680215185  0.484269211070185  0.2872890141905629  1.0000
  C   C13       1.0  0.047452361107247  0.11862333978061206  0.3315273381113428  1.0000
  C   C14       1.0  0.4525471282510125  0.6186234844156717  0.6684724138287024  1.0000
  C   C15       1.0  0.9525463633438559  0.8813767841539579  0.6684740291488183  1.0000
  C   C16       1.0  0.5474527303086774  0.38137764385933093  0.331527214983403  1.0000
  C   C17       1.0  0.06746372821398688  0.23939116575822794  0.267363273297839  1.0000
  C   C18       1.0  0.4325357883727321  0.7393912333966031  0.7326354830054739  1.0000
  C   C19       1.0  0.9325372609370532  0.760607953837699  0.7326372846892893  1.0000
  C   C20       1.0  0.5674640713590334  0.26060788620024067  0.2673632566002766  1.0000
  C   C21       1.0  0.9945845342343702  0.2620512286544709  0.1574341510608832  1.0000
  C   C22       1.0  0.5054145360176534  0.7620510826278564  0.8425654198157843  1.0000
  C   C23       1.0  0.0054198525527909  0.7379468866034176  0.8425647484128618  1.0000
  C   C24       1.0  0.49458532254192267  0.23794904130781455  0.1574342089967757  1.0000
  C   C25       1.0  0.0656138756810165  0.3313361556424896  0.7381808526231239  1.0000
  C   C26       1.0  0.4343856607432883  0.8313367580929314  0.2618178226512383  1.0000
  C   C27       1.0  0.9343848511146859  0.668663968293082  0.2618187362225441  1.0000
  C   C28       1.0  0.5656141989886977  0.168664370182576  0.738180916953624  1.0000
  C   C29       1.0  0.967130862990295  0.39147514050009863  0.6393123860213663  1.0000
  C   C30       1.0  0.53286936694942  0.8914755471687956  0.360687110764033  1.0000
  C   C31       1.0  0.0328689955691672  0.6085239790962408  0.36068724279162717  1.0000
  C   C32       1.0  0.46713049161015613  0.10852457676687527  0.639312518048527  1.0000
  C   C33       1.0  0.05290809561684989  0.4723234084425273  0.5493278794629431  1.0000
  C   C34       1.0  0.44709147005362126  0.9723227948294452  0.45067156077082166  1.0000
  C   C35       1.0  0.9470917617704231  0.5276767154926391  0.4506726385568598  1.0000
  C   C36       1.0  0.5529083896782508  0.02767732910673001  0.5493271788344813  1.0000
  N   N1        1.0  0.8160690560273735  0.14561522305626082  0.007825944736538306  1.0000
  N   N2        1.0  0.6839311208669442  0.6456149443576751  0.9921737687190699  1.0000
  N   N3        1.0  0.18393080253230917  0.8543859052187416  0.9921736840755669  1.0000
  N   N4        1.0  0.31606873769263183  0.3543851795779959  0.007825860093483102  1.0000
  N   N5        1.0  0.7486526929639864  0.026047615658392004  0.005020208834494598  1.0000
  N   N6        1.0  0.751347458133118  0.5260473478042302  0.9949796099929173  1.0000
  N   N7        1.0  0.25134716442340016  0.9739535126161062  0.9949803091848608  1.0000
  N   N8        1.0  0.24865353219022518  0.4739517717922015  0.005020058786968201  1.0000
  N   N9        1.0  0.7870589921029136  0.9587664544065506  0.1044032803726083  1.0000
  N   N10       1.0  0.7129401205913054  0.4587667082716111  0.8955961171438959  1.0000
  N   N11       1.0  0.21293973469278876  0.04123366952902072  0.8955963084730597  1.0000
  N   N12       1.0  0.2870597379682777  0.5412334156640599  0.10440351166865719  1.0000
  O   O1        1.0  0.0093557732401948  0.29611993984772067  0.8360683637247562  1.0000
  O   O2        1.0  0.49064375441366787  0.7961196607781037  0.1639312317923682  1.0000
  O   O3        1.0  0.9906429535555077  0.7038801840878507  0.163931225120912  1.0000
  O   O4        1.0  0.5093561041458017  0.20387945881822844  0.8360683970206252  1.0000
  O   O5        1.0  0.20614340327909278  0.31251184730631126  0.722029173282337  1.0000
  O   O6        1.0  0.29385725850294614  0.8125113978385916  0.2779713369632404  1.0000
  O   O7        1.0  0.7938564552804834  0.6874882766293596  0.277970455530216  1.0000
  O   O8        1.0  0.7061426000565234  0.18748772175774778  0.7220282918497603  1.0000
