data_image0
_chemical_formula_structural       Cd4H28C40S8N20O4
_chemical_formula_sum              "Cd4 H28 C40 S8 N20 O4"
_cell_length_a       10.011621720498217
_cell_length_b       10.01159670224468
_cell_length_c       14.299239808270745
_cell_angle_alpha    104.0152801671307
_cell_angle_beta     104.01529330596827
_cell_angle_gamma    103.46135604156784

_space_group_name_H-M_alt    "P 1"
_space_group_IT_number       1

loop_
  _space_group_symop_operation_xyz
  'x, y, z'

loop_
  _atom_site_type_symbol
  _atom_site_label
  _atom_site_symmetry_multiplicity
  _atom_site_fract_x
  _atom_site_fract_y
  _atom_site_fract_z
  _atom_site_occupancy
  Cd  Cd1       1.0  0.293969093011505  0.7060332456392331  0.7500010075430836  1.0000
  Cd  Cd2       1.0  0.706033169223133  0.2939664376883471  0.2499994053357071  1.0000
  Cd  Cd3       1.0  0.49999822543529854  1.0314024550017465e-06  0.4999969254672721  1.0000
  Cd  Cd4       1.0  1.6150539746782154e-07  0.4999999057267317  3.355320600876483e-06  1.0000
  H   H1        1.0  0.8352783428813026  0.2085561909266502  0.6059566005350235  1.0000
  H   H2        1.0  0.7914436387846352  0.16472360621810367  0.8940431198537839  1.0000
  H   H3        1.0  0.16472867945374503  0.7914488788308419  0.39404340871034566  1.0000
  H   H4        1.0  0.20855112546148988  0.83527505718893  0.10596076603904686  1.0000
  H   H5        1.0  0.6654156105004604  0.7616161305632403  0.49155297285538785  1.0000
  H   H6        1.0  0.23838593303103292  0.3345850350690043  0.008443483493465508  1.0000
  H   H7        1.0  0.3345821311361235  0.2383922091942594  0.5084446339246682  1.0000
  H   H8        1.0  0.7616101416361332  0.6654146513195726  0.9915537985434071  1.0000
  H   H9        1.0  0.9088199944460768  0.7304560352977845  0.5604951049289896  1.0000
  H   H10       1.0  0.26954436561452877  0.09117660579702398  0.9395029942174491  1.0000
  H   H11       1.0  0.0911723104190116  0.2695447527018118  0.43950243088396956  1.0000
  H   H12       1.0  0.7304527318602041  0.9088230716282056  0.06049375777452334  1.0000
  H   H13       1.0  0.12314744161375306  0.9522867884969203  0.6558450886188681  1.0000
  H   H14       1.0  0.047711495793279775  0.8768516164390476  0.8441576842304316  1.0000
  H   H15       1.0  0.8768476574972867  0.0477096893478688  0.34415639015936966  1.0000
  H   H16       1.0  0.9522849284809993  0.12314916388443459  0.15584123757588497  1.0000
  H   H17       1.0  0.5047973054283048  0.5437562631165989  0.8891052775231858  1.0000
  H   H18       1.0  0.45624825159229937  0.49519912555075507  0.6108927208648397  1.0000
  H   H19       1.0  0.49520494900539097  0.4562466771663054  0.11089637730127319  1.0000
  H   H20       1.0  0.5437516175852437  0.5047962191778338  0.38910516915404264  1.0000
  H   H21       1.0  0.5399580072573968  0.38122612105917136  0.8292337444653199  1.0000
  H   H22       1.0  0.6187775138581985  0.46004164755854043  0.6707667981178248  1.0000
  H   H23       1.0  0.46004562522676207  0.6187779098307402  0.17076972131826557  1.0000
  H   H24       1.0  0.3812237277340246  0.5399547821415993  0.3292322016256009  1.0000
  H   H25       1.0  0.45825751048144536  0.3837370574489114  0.9256615955114642  1.0000
  H   H26       1.0  0.616268073958892  0.5417424944147057  0.5743399314946983  1.0000
  H   H27       1.0  0.541746110731147  0.6162669621700944  0.07434046780294075  1.0000
  H   H28       1.0  0.3837328214968494  0.458256109576773  0.42566007289414654  1.0000
  C   C1        1.0  0.8553440432430293  0.10428410605741331  0.5954528451079  1.0000
  C   C2        1.0  0.8957178169586938  0.14465469474736636  0.9045474223656172  1.0000
  C   C3        1.0  0.1446585438904221  0.8957199112540263  0.4045483457822314  1.0000
  C   C4        1.0  0.10427864893123481  0.8553428624335241  0.09545446490256639  1.0000
  C   C5        1.0  0.7622898253098996  0.8544089166008036  0.5329453862530614  1.0000
  C   C6        1.0  0.1455931662997614  0.23770671734596496  0.9670522099758758  1.0000
  C   C7        1.0  0.23770692386319334  0.1455961977065456  0.46705431356458865  1.0000
  C   C8        1.0  0.8544042942188098  0.7622908026942952  0.032945641074448424  1.0000
  C   C9        1.0  0.8971712747530134  0.8381823842553828  0.5715644162455933  1.0000
  C   C10       1.0  0.1618166889180017  0.1028278275028498  0.9284324472671699  1.0000
  C   C11       1.0  0.10282445941345492  0.16181948205998958  0.4284345716712821  1.0000
  C   C12       1.0  0.8381811043003256  0.8971707695659461  0.07156493984882666  1.0000
  C   C13       1.0  0.016106449794001765  0.9613959547964723  0.6241492175218043  1.0000
  C   C14       1.0  0.03860293508569871  0.9838897261605696  0.8758510449703609  1.0000
  C   C15       1.0  0.9838913716032494  0.038602670449606094  0.37585167576714446  1.0000
  C   C16       1.0  0.9613935082610894  0.0161078084784947  0.12414803735946113  1.0000
  C   C17       1.0  0.9953622195062407  0.0974625946382375  0.6349568086056793  1.0000
  C   C18       1.0  0.9025334070871338  0.004637285812229702  0.8650433381565109  1.0000
  C   C19       1.0  0.004638346720376819  0.9025382005509429  0.3650463041323421  1.0000
  C   C20       1.0  0.09746235178762674  0.9953613404541812  0.13495651151846033  1.0000
  C   C21       1.0  0.11331074123806667  0.23209743400444435  0.6849439601153691  1.0000
  C   C22       1.0  0.7679031973785939  0.8866880336558867  0.8150558571688651  1.0000
  C   C23       1.0  0.8866908477961104  0.7679033522213883  0.31505862257775863  1.0000
  C   C24       1.0  0.2320918791892979  0.11330842164707629  0.18494281667100412  1.0000
  C   C25       1.0  0.3209502114580403  0.3775011383496292  0.7857372045870861  1.0000
  C   C26       1.0  0.6224961553310919  0.6790453379971666  0.7142601351965753  1.0000
  C   C27       1.0  0.6790534231912702  0.6224996299495017  0.21426431801624096  1.0000
  C   C28       1.0  0.37749960570882735  0.32095002567845654  0.2857377712981375  1.0000
  C   C29       1.0  0.4645499772990079  0.4252244865559475  0.8620318279149972  1.0000
  C   C30       1.0  0.5747785306039574  0.5354480514204382  0.637967607567262  1.0000
  C   C31       1.0  0.535453305578038  0.5747784503990658  0.1379699980991518  1.0000
  C   C32       1.0  0.42522134420936913  0.464547298943607  0.3620309836862107  1.0000
  C   C33       1.0  0.42547302448321034  0.0184580871870352  0.7214941966212152  1.0000
  C   C34       1.0  0.9815487584337815  0.5745288633872646  0.778508023087781  1.0000
  C   C35       1.0  0.5745343158093875  0.981544780101842  0.2785013018057896  1.0000
  C   C36       1.0  0.01845665198423061  0.42546107853883797  0.2214940861651939  1.0000
  C   C37       1.0  0.32255553190124425  0.6945010175741259  0.5256720710049549  1.0000
  C   C38       1.0  0.30550360983856717  0.6774470990076439  0.9743282881422672  1.0000
  C   C39       1.0  0.6774426256664016  0.30550195292672566  0.4743310027645152  1.0000
  C   C40       1.0  0.6944996370586125  0.3225590667254181  0.02567127364459761  1.0000
  S   S1        1.0  0.5493992052984994  0.13764428889664518  0.7029535101151936  1.0000
  S   S2        1.0  0.8623599247741893  0.45059779760592283  0.7970460569105386  1.0000
  S   S3        1.0  0.4506019699697745  0.8623586039950553  0.29704166240826174  1.0000
  S   S4        1.0  0.13764954653000677  0.5493953428802884  0.20295236917014853  1.0000
  S   S5        1.0  0.19253436390886947  0.5812168278940745  0.5430643635495757  1.0000
  S   S6        1.0  0.41878654432888146  0.8074634605611664  0.9569405735224096  1.0000
  S   S7        1.0  0.8074692629394988  0.4187871973603805  0.4569384009994195  1.0000
  S   S8        1.0  0.5812085491463678  0.19253301164816605  0.0430602040212378  1.0000
  N   N1        1.0  0.7417094962755185  0.9850592203829079  0.5458953725149912  1.0000
  N   N2        1.0  0.014941827772155105  0.2582901179514749  0.9541018226614711  1.0000
  N   N3        1.0  0.25829066529160377  0.014946955333833497  0.454103675702811  1.0000
  N   N4        1.0  0.9850570164326626  0.7417084983312492  0.04589854058257704  1.0000
  N   N5        1.0  0.11975532997696088  0.35874202780006925  0.6736611534585037  1.0000
  N   N6        1.0  0.6412567728929872  0.8802419307258801  0.8263380719910033  1.0000
  N   N7        1.0  0.8802510347595103  0.6412576309450201  0.32633854170986615  1.0000
  N   N8        1.0  0.35873863637466025  0.1197556016056254  0.1736601379145384  1.0000
  N   N9        1.0  0.25356635889401263  0.4519511991444602  0.739052835236251  1.0000
  N   N10       1.0  0.5480479598375467  0.7464316554513742  0.760946587133688  1.0000
  N   N11       1.0  0.7464369092408347  0.548048458313403  0.2609449438938611  1.0000
  N   N12       1.0  0.4519481395379117  0.253564790888241  0.23905155666128766  1.0000
  N   N13       1.0  0.33359962309242525  0.9335514388705661  0.7349133717248294  1.0000
  N   N14       1.0  0.0664537144297199  0.6664063116744927  0.7650917600048218  1.0000
  N   N15       1.0  0.666411501744463  0.0664536063044352  0.2650859198101188  1.0000
  N   N16       1.0  0.9335472113701045  0.33358905790348803  0.23490980737670952  1.0000
  N   N17       1.0  0.41939739176991964  0.7735805670333136  0.5124190161682165  1.0000
  N   N18       1.0  0.22642109704725755  0.5806003973141358  0.9875821425253266  1.0000
  N   N19       1.0  0.5806044827125801  0.22642451372819036  0.4875794358941122  1.0000
  N   N20       1.0  0.7735770930296226  0.4193960761824229  0.012420551056571602  1.0000
  O   O1        1.0  0.23781166315217211  0.2358893818033891  0.7541760199532064  1.0000
  O   O2        1.0  0.7641094679118368  0.7621865930951229  0.7458234465847654  1.0000
  O   O3        1.0  0.7621906081888811  0.7641135753858846  0.24582773857503068  1.0000
  O   O4        1.0  0.23588733847878984  0.23780878415897888  0.25417673480341574  1.0000
