data_image0
_chemical_formula_structural       Cu2H30C38S2N6O18
_chemical_formula_sum              "Cu2 H30 C38 S2 N6 O18"
_cell_length_a       9.109860883841565
_cell_length_b       9.906453572613332
_cell_length_c       13.087852113443367
_cell_angle_alpha    96.72832629213818
_cell_angle_beta     103.1660155427951
_cell_angle_gamma    116.51393660969502

_space_group_name_H-M_alt    "P 1"
_space_group_IT_number       1

loop_
  _space_group_symop_operation_xyz
  'x, y, z'

loop_
  _atom_site_type_symbol
  _atom_site_label
  _atom_site_symmetry_multiplicity
  _atom_site_fract_x
  _atom_site_fract_y
  _atom_site_fract_z
  _atom_site_occupancy
  Cu  Cu1       1.0  0.7639582693413586  0.3458931923447963  0.009421158115316077  1.0000
  Cu  Cu2       1.0  0.2360443649039255  0.6541082354381232  0.9905796611444019  1.0000
  H   H1        1.0  0.5303646114304071  0.247046485497826  0.13725586089425693  1.0000
  H   H2        1.0  0.46963626913348133  0.7529537719670928  0.8627438098052379  1.0000
  H   H3        1.0  0.49213532324446163  0.3578042309097357  0.07012650253847855  1.0000
  H   H4        1.0  0.5078656704976581  0.6421983515834668  0.9298756822464185  1.0000
  H   H5        1.0  0.6788336294819574  0.3622870206849171  0.3145572669869594  1.0000
  H   H6        1.0  0.3211604665761884  0.637713205806165  0.6854420742132491  1.0000
  H   H7        1.0  0.2865004956837399  0.9541600134628969  0.4956190575545634  1.0000
  H   H8        1.0  0.7134942432656856  0.0458413794320975  0.5043774329052724  1.0000
  H   H9        1.0  0.6598939224236486  0.47918091143281316  0.46997648886788573  1.0000
  H   H10       1.0  0.34009967096517363  0.5208204753737746  0.5300228731538965  1.0000
  H   H11       1.0  0.9081580502733645  0.7360802106071915  0.5880351315146087  1.0000
  H   H12       1.0  0.09183780719295957  0.2639211866850745  0.41196383138748877  1.0000
  H   H13       1.0  0.1733227004074325  0.7316644150972353  0.3524936076102493  1.0000
  H   H14       1.0  0.8266735272330479  0.26833349564328296  0.6475066375307322  1.0000
  H   H15       1.0  0.9146447380291677  0.4715342744413674  0.24610317952804198  1.0000
  H   H16       1.0  0.08535035564086979  0.5284636309355193  0.7538976468873672  1.0000
  H   H17       1.0  0.36370081422173683  0.20230214916249173  0.5541442587227507  1.0000
  H   H18       1.0  0.6362955381871416  0.7976980873310779  0.4458562102161211  1.0000
  H   H19       1.0  0.6095004690031444  0.46876450564729316  0.6479472907825397  1.0000
  H   H20       1.0  0.39050091809345844  0.5312345917437044  0.35205159566620386  1.0000
  H   H21       1.0  0.7867308965801456  0.5188583686787425  0.8390458024070996  1.0000
  H   H22       1.0  0.21327476913467794  0.48113609817750097  0.1609518382064934  1.0000
  H   H23       1.0  0.47442678415619344  0.06691895969076711  0.8531498153486652  1.0000
  H   H24       1.0  0.5255749924315085  0.9330766523564479  0.14684653619310242  1.0000
  H   H25       1.0  0.7194327688188836  0.8688894367123865  0.006317149298901418  1.0000
  H   H26       1.0  0.2805672079944089  0.1311154656870599  0.9936873674166549  1.0000
  H   H27       1.0  0.1324051326136202  0.8137879320232531  0.19571527737461036  1.0000
  H   H28       1.0  0.8675932343359705  0.18620766344988476  0.8042843448487957  1.0000
  H   H29       1.0  0.16479982860122538  0.2660926310014205  0.23630886347840635  1.0000
  H   H30       1.0  0.8352083198207865  0.7339064959138784  0.7636949330446541  1.0000
  C   C1        1.0  0.7790677442531475  0.541253741352172  0.4506575756375924  1.0000
  C   C2        1.0  0.22092535805650482  0.4587488064946968  0.5493395169182378  1.0000
  C   C3        1.0  0.9162170659477055  0.6820547261571267  0.514051538078931  1.0000
  C   C4        1.0  0.08377878765522692  0.31794667089354783  0.48594818825233693  1.0000
  C   C5        1.0  0.06311642797925304  0.7541411734493481  0.4797587402874298  1.0000
  C   C6        1.0  0.936877052231331  0.2458578883289562  0.5202381076489503  1.0000
  C   C7        1.0  0.06205876385724475  0.6789028838065791  0.38089048766040895  1.0000
  C   C8        1.0  0.9379335823828967  0.32109617260810097  0.6191069415503989  1.0000
  C   C9        1.0  0.9214843641130557  0.537043373902705  0.3215077700540192  1.0000
  C   C10       1.0  0.07850734696258152  0.4629545165912462  0.6784909830388204  1.0000
  C   C11       1.0  0.25662992663691875  0.9494843532323787  0.6501610463762761  1.0000
  C   C12       1.0  0.7433675713325698  0.05051588934960451  0.34983655100064237  1.0000
  C   C13       1.0  0.40050801992274637  0.11253136030368442  0.6966828058447375  1.0000
  C   C14       1.0  0.5994911069597395  0.8874677268432409  0.30331571629452725  1.0000
  C   C15       1.0  0.4384972273929791  0.22678742488690065  0.6384373365832944  1.0000
  C   C16       1.0  0.5615018956261224  0.7732116620184257  0.36156194898514116  1.0000
  C   C17       1.0  0.5768035694026493  0.3757506720862054  0.6899517252169006  1.0000
  C   C18       1.0  0.4231960601491736  0.6242472547452138  0.3100467761007907  1.0000
  C   C19       1.0  0.6732905196856223  0.40636492070284197  0.7971020853477173  1.0000
  C   C20       1.0  0.3267117557080256  0.5936295307872755  0.20289500880165431  1.0000
  C   C21       1.0  0.5003265956325506  0.1529299648315501  0.8052931980210971  1.0000
  C   C22       1.0  0.49967417175310685  0.8470679676050851  0.19470395859298864  1.0000
  C   C23       1.0  0.8637315275586983  0.17831553515904372  0.08277202229355399  1.0000
  C   C24       1.0  0.13627699516850827  0.8216905690154164  0.9172324456231638  1.0000
  C   C25       1.0  0.9352609858130662  0.07726284268650833  0.1167048913309046  1.0000
  C   C26       1.0  0.06474338279667105  0.9227397542064539  0.8833008936349104  1.0000
  C   C27       1.0  0.844740527549945  0.9180848259310183  0.0676783793048799  1.0000
  C   C28       1.0  0.15526221601018617  0.0819189266385933  0.9323257174694178  1.0000
  C   C29       1.0  0.9144832513385096  0.8225142701006618  0.09624787448424849  1.0000
  C   C30       1.0  0.08551711882926578  0.17748714719657946  0.9037533438951543  1.0000
  C   C31       1.0  0.07654671140191059  0.887680943515747  0.17530255932251756  1.0000
  C   C32       1.0  0.9234541614352023  0.11231931346598859  0.8246986382353186  1.0000
  C   C33       1.0  0.1645763670345346  0.04699588613473081  0.2259760649869662  1.0000
  C   C34       1.0  0.8354260254007287  0.953000890625255  0.7740227798186369  1.0000
  C   C35       1.0  0.09564897449386224  0.14229831200287185  0.19675850911961854  1.0000
  C   C36       1.0  0.904359177791541  0.8577008151540184  0.8032445239742714  1.0000
  C   C37       1.0  0.8128474884682222  0.6517830549675597  0.03914052017230321  1.0000
  C   C38       1.0  0.18715238289361485  0.3482195228867866  0.9608599555995029  1.0000
  S   S1        1.0  0.37013463164122834  0.1357098543678958  0.32796619622859424  1.0000
  S   S2        1.0  0.6298683805049877  0.8642880873464662  0.6720343784116664  1.0000
  N   N1        1.0  0.7844836002263025  0.4713867966242801  0.3576528612753833  1.0000
  N   N2        1.0  0.21550999702590465  0.5286145904238994  0.6423457373172284  1.0000
  N   N3        1.0  0.20472654626426864  0.8961581324354172  0.5379326530343747  1.0000
  N   N4        1.0  0.7952664312769924  0.10384208965840001  0.4620642157235721  1.0000
  N   N5        1.0  0.6339197127920712  0.296672080536176  0.8538449587941487  1.0000
  N   N6        1.0  0.36608368884525083  0.7033223758343894  0.14615308093913632  1.0000
  O   O1        1.0  0.1886831094425861  0.8669205508996004  0.7073524038937223  1.0000
  O   O2        1.0  0.8113158926715016  0.1330762104942664  0.2926458944476522  1.0000
  O   O3        1.0  0.37128411704011904  0.017416251556973402  0.3860162220739126  1.0000
  O   O4        1.0  0.6287172546029395  0.9825828448676716  0.6139857180915272  1.0000
  O   O5        1.0  0.49869100076896433  0.17812621244343774  0.2688183766871788  1.0000
  O   O6        1.0  0.5013135116584665  0.8218682478412164  0.7311836623467088  1.0000
  O   O7        1.0  0.38557840305958996  0.2732291866951897  0.3962103179763333  1.0000
  O   O8        1.0  0.6144234944331189  0.7267687508634922  0.6037870207924884  1.0000
  O   O9        1.0  0.7241797686695434  0.1237947485145412  0.00314415375788  1.0000
  O   O10       1.0  0.27582722286933875  0.8762148351569011  0.9968649571985966  1.0000
  O   O11       1.0  0.9436030859145319  0.324385258084284  0.12878173202197024  1.0000
  O   O12       1.0  0.05640542908589923  0.6756208456069928  0.8712242627530956  1.0000
  O   O13       1.0  0.8920441540354815  0.5724012756060761  0.059350663505348775  1.0000
  O   O14       1.0  0.10795573664329801  0.4276013034562212  0.9406459951205973  1.0000
  O   O15       1.0  0.5824898594190911  0.3299988459068716  0.10174973385053221  1.0000
  O   O16       1.0  0.4175103937070689  0.6700002461205016  0.8982497338726392  1.0000
  O   O17       1.0  0.6627295332820894  0.5958590749855973  0.9755395313628625  1.0000
  O   O18       1.0  0.3372714720501905  0.40414350823238016  0.024460363134515724  1.0000
