data_image0
_chemical_formula_structural       Zn2H62C62N2O16
_chemical_formula_sum              "Zn2 H62 C62 N2 O16"
_cell_length_a       10.66747564878323
_cell_length_b       18.307254527909183
_cell_length_c       19.488468710279616
_cell_angle_alpha    89.9790992289787
_cell_angle_beta     88.67188147670656
_cell_angle_gamma    89.3730276859445

_space_group_name_H-M_alt    "P 1"
_space_group_IT_number       1

loop_
  _space_group_symop_operation_xyz
  'x, y, z'

loop_
  _atom_site_type_symbol
  _atom_site_label
  _atom_site_symmetry_multiplicity
  _atom_site_fract_x
  _atom_site_fract_y
  _atom_site_fract_z
  _atom_site_occupancy
  Zn  Zn1       1.0  0.5014755273155913  0.4185474704607728  0.5002542398635796  1.0000
  Zn  Zn2       1.0  0.5067097923543287  0.5725650814813931  0.5007163942365481  1.0000
  H   H1        1.0  0.9562247033041588  0.5779934280146006  0.3982294892301184  1.0000
  H   H2        1.0  0.48761654224436063  0.383229710656579  0.7200546943193231  1.0000
  H   H3        1.0  0.2909716291288618  0.47750544316244253  0.9296404286658912  1.0000
  H   H4        1.0  0.6507529405282285  0.5477877029011538  0.0716029110701442  1.0000
  H   H5        1.0  0.26910160699932123  0.4776537638413529  0.056838574471513005  1.0000
  H   H6        1.0  0.672841125965583  0.547426103988627  0.9443966646739952  1.0000
  H   H7        1.0  0.49203018474540267  0.301785957465924  0.6056441360079106  1.0000
  H   H8        1.0  0.3191087548151544  0.6899963408625636  0.5209770787132584  1.0000
  H   H9        1.0  0.5089667184643433  0.3033898001731287  0.394002024396265  1.0000
  H   H10       1.0  0.6997105185049506  0.6866021036288712  0.4779835433913391  1.0000
  H   H11       1.0  0.49339650998324913  0.16445260867075007  0.6096975536746285  1.0000
  H   H12       1.0  0.05179797336064241  0.42638321850017036  0.5987177593572638  1.0000
  H   H13       1.0  0.3104776395725111  0.8275707180177247  0.5195203062467186  1.0000
  H   H14       1.0  0.5118386144213716  0.16611732239452684  0.3881147384013275  1.0000
  H   H15       1.0  0.7093760000188994  0.8240706289587791  0.47621639052366044  1.0000
  H   H16       1.0  0.4990336610171725  0.7076020215077177  0.7725499196496841  1.0000
  H   H17       1.0  0.662894329234206  0.6910504340208873  0.7819701076541749  1.0000
  H   H18       1.0  0.6512850709360976  0.7490429755273664  0.8994454941055068  1.0000
  H   H19       1.0  0.5983824182685354  0.8112175311349289  0.8355838943219568  1.0000
  H   H20       1.0  0.48786226869827953  0.765468446885059  0.8899797909507327  1.0000
  H   H21       1.0  0.36374570013340707  0.3003822137868894  0.2045664845163557  1.0000
  H   H22       1.0  0.530810441536481  0.303808157293048  0.1982087246018978  1.0000
  H   H23       1.0  0.1301441375562291  0.4583388298228712  0.400194064619221  1.0000
  H   H24       1.0  0.5220014630490937  0.2637786559429855  0.0742616567131265  1.0000
  H   H25       1.0  0.451316064789019  0.1983210368435522  0.13046468266413314  1.0000
  H   H26       1.0  0.3556993357850899  0.2587528899333407  0.0818476823288421  1.0000
  H   H27       1.0  0.5538424300893041  0.6957791562490029  0.2307382029795235  1.0000
  H   H28       1.0  0.38881888240744905  0.7104810217195733  0.2249495530648389  1.0000
  H   H29       1.0  0.42457648940831666  0.7674850041651948  0.107268008956467  1.0000
  H   H30       1.0  0.5051606744407309  0.8153309643731034  0.1724200214821607  1.0000
  H   H31       1.0  0.5890651378761903  0.7546587760151765  0.11604750642720059  1.0000
  H   H32       1.0  0.5180832516932837  0.29363736588017986  0.8011689164396216  1.0000
  H   H33       1.0  0.357739901564841  0.3185582623511748  0.7893204632148924  1.0000
  H   H34       1.0  0.8768912040746033  0.5456614353828398  0.5968189068462024  1.0000
  H   H35       1.0  0.30465878191483853  0.27921599397519253  0.9100003489102947  1.0000
  H   H36       1.0  0.375551822182672  0.20582476174615036  0.8625182492966914  1.0000
  H   H37       1.0  0.46449334180712754  0.25533945189815194  0.9230456352435895  1.0000
  H   H38       1.0  0.22523707289394676  0.11423673792290147  0.4901296810376792  1.0000
  H   H39       1.0  0.17563694170729602  0.0292675157892504  0.4545593393786618  1.0000
  H   H40       1.0  0.13596681107097913  0.09248024610986501  0.342024609859827  1.0000
  H   H41       1.0  0.0471955116378453  0.13490652431860892  0.4097882166421414  1.0000
  H   H42       1.0  0.18630101997421636  0.17677677213040965  0.37755421238749426  1.0000
  H   H43       1.0  0.5584420427372693  0.872506384286744  0.6448779037514072  1.0000
  H   H44       1.0  0.6242998934589467  0.9571847636736167  0.6716963709613424  1.0000
  H   H45       1.0  0.9461823017721755  0.37505026033169026  0.4742802508374595  1.0000
  H   H46       1.0  0.8367897565796908  0.8958543251531805  0.6780622934525696  1.0000
  H   H47       1.0  0.7253491512203996  0.8507011539335634  0.732078384008652  1.0000
  H   H48       1.0  0.7703371188219708  0.8117681789650604  0.6514144970144998  1.0000
  H   H49       1.0  0.7846309888008777  0.11475925287863478  0.5080072899895923  1.0000
  H   H50       1.0  0.8380763166217023  0.0302734904229425  0.5442061090968054  1.0000
  H   H51       1.0  0.868616337259219  0.09399394720369257  0.6573409205184007  1.0000
  H   H52       1.0  0.9579367800585246  0.136944831643639  0.5906631481896483  1.0000
  H   H53       1.0  0.8149390326929833  0.17777368052464473  0.6208661720770721  1.0000
  H   H54       1.0  0.467582768283009  0.873001325967259  0.3514480618378926  1.0000
  H   H55       1.0  0.39620168669184613  0.9560340930995109  0.3222012842727722  1.0000
  H   H56       1.0  0.06036188819484071  0.629340538241223  0.5231295445091959  1.0000
  H   H57       1.0  0.18886249544716094  0.8912572966068164  0.3150956432581467  1.0000
  H   H58       1.0  0.3056705027449312  0.8473754358620695  0.262522391867563  1.0000
  H   H59       1.0  0.2617372722190936  0.8087309856311932  0.3433213665374737  1.0000
  H   H60       1.0  0.5704738642708237  0.6104494059215709  0.7093391869826534  1.0000
  H   H61       1.0  0.4388844425263727  0.3815570292868387  0.2797561872474859  1.0000
  H   H62       1.0  0.4577390128355959  0.6137066870917208  0.29466576868691163  1.0000
  C   C1        1.0  0.4565318864545704  0.4924063313371931  0.3691810001916878  1.0000
  C   C2        1.0  0.40236782611832206  0.7228015675600474  0.5110187780837948  1.0000
  C   C3        1.0  0.5058406006517658  0.26961464707545696  0.44010677679303  1.0000
  C   C4        1.0  0.6166482653126338  0.7208723316467385  0.4872454971664695  1.0000
  C   C5        1.0  0.4969818704355264  0.19289168103824034  0.5606990424173759  1.0000
  C   C6        1.0  0.3988407429840564  0.7986370286001971  0.5102258381640965  1.0000
  C   C7        1.0  0.5072433314782006  0.19379872959770947  0.4374902397136892  1.0000
  C   C8        1.0  0.6207580857966307  0.7966977878258135  0.4860825097074439  1.0000
  C   C9        1.0  0.502933052121854  0.15366307111700905  0.49884119107318975  1.0000
  C   C10       1.0  0.5099283121470607  0.8372507780086592  0.4976771936574522  1.0000
  C   C11       1.0  0.4229801172921271  0.03382158535319489  0.4565470517237599  1.0000
  C   C12       1.0  0.5401712585039817  0.49141755880806665  0.632470633786042  1.0000
  C   C13       1.0  0.5939797284445519  0.9570147662195794  0.537406737424071  1.0000
  C   C14       1.0  0.5895632091844618  0.03368586379298928  0.5393850447568624  1.0000
  C   C15       1.0  0.4231139843723073  0.957143503856599  0.4573147113757159  1.0000
  C   C16       1.0  0.509448367668128  0.9179374202341176  0.49722876298515933  1.0000
  C   C17       1.0  0.50507410954544  0.07298232965062107  0.49830242524075896  1.0000
  C   C18       1.0  0.2644795209583394  0.5053192525837886  0.5218390239434783  1.0000
  C   C19       1.0  0.7429516646537452  0.49683300483083287  0.4769363532057723  1.0000
  C   C20       1.0  0.07136955208767401  0.47758440948602043  0.4433964646962636  1.0000
  C   C21       1.0  0.9361433489897808  0.5265873940217958  0.5536994729974367  1.0000
  C   C22       1.0  0.9734231850743386  0.43120165425077056  0.4851818295126975  1.0000
  C   C23       1.0  0.36994542312170614  0.4930624655391183  0.9608146346910047  1.0000
  C   C24       1.0  0.034091973065741916  0.5730307787375678  0.5119417924720936  1.0000
  C   C25       1.0  0.9787321628413893  0.5446676255269624  0.4430199320405777  1.0000
  C   C26       1.0  0.028647577078260218  0.4595829935407138  0.5539691250154632  1.0000
  C   C27       1.0  0.8806878296396121  0.4976992092298077  0.48425385847436797  1.0000
  C   C28       1.0  0.12701104022730195  0.5065002822280105  0.5124261943447692  1.0000
  C   C29       1.0  0.5478053757170472  0.5636102619671062  0.7413875009742412  1.0000
  C   C30       1.0  0.44183935067669483  0.4338040045865696  0.2533225904606482  1.0000
  C   C31       1.0  0.45370191990788555  0.5660777113439295  0.2615717015840673  1.0000
  C   C32       1.0  0.49968666329301936  0.43429718573333526  0.7473267579922905  1.0000
  C   C33       1.0  0.5327398891228228  0.5685313660455831  0.8126978979083361  1.0000
  C   C34       1.0  0.5715805702116655  0.5327722446963677  0.0403268000194998  1.0000
  C   C35       1.0  0.44137542096425625  0.4394181117998313  0.1817791842048138  1.0000
  C   C36       1.0  0.4563671754201338  0.5709252657409821  0.18997710361756504  1.0000
  C   C37       1.0  0.48353049303268847  0.43992963189839435  0.818477077220294  1.0000
  C   C38       1.0  0.49978990229806197  0.5070539943295101  0.8526892818157137  1.0000
  C   C39       1.0  0.4500503522369926  0.5078475634946288  0.1487676446590172  1.0000
  C   C40       1.0  0.5308564360140765  0.496382709367431  0.7091643219218327  1.0000
  C   C41       1.0  0.4485100105629556  0.49737637409267416  0.2926647772455766  1.0000
  C   C42       1.0  0.5727259444031106  0.6976192887463668  0.8104603851942969  1.0000
  C   C43       1.0  0.5778837038190545  0.7594754667162817  0.8619701982661852  1.0000
  C   C44       1.0  0.4439698064968952  0.30880043949839114  0.1686678729036899  1.0000
  C   C45       1.0  0.357645165913361  0.4931790873109631  0.0321141270056273  1.0000
  C   C46       1.0  0.4431550351430289  0.2541822770210941  0.11025486762496679  1.0000
  C   C47       1.0  0.4762784646948149  0.7013298835187242  0.19448897630847736  1.0000
  C   C48       1.0  0.500056735149258  0.7633288912657291  0.1444839325960317  1.0000
  C   C49       1.0  0.43134955482391757  0.31273528670516265  0.8279465899625933  1.0000
  C   C50       1.0  0.3917177299979216  0.260176077180283  0.8843114429284924  1.0000
  C   C51       1.0  0.2176277125401  0.08260446677688549  0.4422035293231659  1.0000
  C   C52       1.0  0.14271885000660942  0.12409381819220039  0.3896578770680605  1.0000
  C   C53       1.0  0.6449457712811582  0.9050466490801055  0.6452599470184879  1.0000
  C   C54       1.0  0.7507623209104042  0.8634107079566531  0.6784508652072886  1.0000
  C   C55       1.0  0.7923204676102955  0.0832390078146119  0.5560442793289724  1.0000
  C   C56       1.0  0.5839595093535125  0.5325615783498276  0.9690570712919282  1.0000
  C   C57       1.0  0.8622636539168197  0.12544060077651403  0.6095068832646788  1.0000
  C   C58       1.0  0.37857721761263724  0.9041948458244632  0.3494242094267861  1.0000
  C   C59       1.0  0.27758871445657013  0.860299078961816  0.3158025261085342  1.0000
  C   C60       1.0  0.4588145870433634  0.5121599865136871  0.0728518884913143  1.0000
  C   C61       1.0  0.48379941670651055  0.5117447069734169  0.928263585156472  1.0000
  C   C62       1.0  0.49584315913591587  0.2687355086326022  0.559070524695997  1.0000
  N   N1        1.0  0.500262829801976  0.3064187424366693  0.499838604181484  1.0000
  N   N2        1.0  0.5094025842885942  0.6846933951931502  0.49963546382310403  1.0000
  O   O1        1.0  0.4729459768184655  0.429203725751698  0.3952548136259395  1.0000
  O   O2        1.0  0.4365278817636096  0.38017527143234275  0.1388826778100594  1.0000
  O   O3        1.0  0.4661601071855302  0.6357647553624447  0.155032303759441  1.0000
  O   O4        1.0  0.45258420707615693  0.3818427401191116  0.8597182723234269  1.0000
  O   O5        1.0  0.3429669924003278  0.07032520591572221  0.41352896311704507  1.0000
  O   O6        1.0  0.6831328995899284  0.9205053768921372  0.5747571220651722  1.0000
  O   O7        1.0  0.6667572145894526  0.06999764430000967  0.5833019464581001  1.0000
  O   O8        1.0  0.336400301957987  0.9207155411583582  0.4191578916232217  1.0000
  O   O9        1.0  0.5600976987399804  0.5506111333809968  0.599576969020589  1.0000
  O   O10       1.0  0.5252605542561569  0.42875838958255497  0.6055799919392371  1.0000
  O   O11       1.0  0.4483560933712526  0.5522077841192469  0.402477185067653  1.0000
  O   O12       1.0  0.31615252433389435  0.4423605929171399  0.5170705347006006  1.0000
  O   O13       1.0  0.6892165783997442  0.5586233654976098  0.4674224444383341  1.0000
  O   O14       1.0  0.6887375925497424  0.4357169812983699  0.4849621532344486  1.0000
  O   O15       1.0  0.3203468133750818  0.5656995685174164  0.5307666033335678  1.0000
  O   O16       1.0  0.5454961844810811  0.6324873611212709  0.8484259784294323  1.0000
