data_image0
_chemical_formula_structural       H16Pb4C28S4N8O12
_chemical_formula_sum              "H16 Pb4 C28 S4 N8 O12"
_cell_length_a       7.6512706723404795
_cell_length_b       9.286307008553475
_cell_length_c       13.420346586624836
_cell_angle_alpha    104.24001072486124
_cell_angle_beta     89.99951249973749
_cell_angle_gamma    89.9991863491548

_space_group_name_H-M_alt    "P 1"
_space_group_IT_number       1

loop_
  _space_group_symop_operation_xyz
  'x, y, z'

loop_
  _atom_site_type_symbol
  _atom_site_label
  _atom_site_symmetry_multiplicity
  _atom_site_fract_x
  _atom_site_fract_y
  _atom_site_fract_z
  _atom_site_occupancy
  H   H1        1.0  0.332539022802486  0.5507743656406703  0.4869222798546105  1.0000
  H   H2        1.0  0.8325309411271321  0.4492302547202909  0.013075100545172788  1.0000
  H   H3        1.0  0.6674644675418834  0.44922217837857653  0.5130716865085816  1.0000
  H   H4        1.0  0.1674712421954965  0.550768482340537  0.9869229724943765  1.0000
  H   H5        1.0  0.12194449946472471  0.8868867314474752  0.37174509486847274  1.0000
  H   H6        1.0  0.6219653542798653  0.11310868672805438  0.12825021773510772  1.0000
  H   H7        1.0  0.8780184747783011  0.11309975624015321  0.6282545762577314  1.0000
  H   H8        1.0  0.3780446709983494  0.8868811971736078  0.8717418465867369  1.0000
  H   H9        1.0  0.23791537366737714  0.08518474336595008  0.5208816570029313  1.0000
  H   H10       1.0  0.7379328779931953  0.9148182776847378  0.9791103365468461  1.0000
  H   H11       1.0  0.7620658981343952  0.9148117892441903  0.47911379772700263  1.0000
  H   H12       1.0  0.2620810681416971  0.08517827782759468  0.020882141492698705  1.0000
  H   H13       1.0  0.40987209042956624  0.0052363415699118974  0.6606031566610256  1.0000
  H   H14       1.0  0.9098876646860746  0.9947653350121894  0.8393877696709283  1.0000
  H   H15       1.0  0.5901078744163402  0.994757963314093  0.33939265625812  1.0000
  H   H16       1.0  0.09012105354798902  0.0052323315132696  0.1606049013669022  1.0000
  Pb  Pb1       1.0  0.6727479159350055  0.5734811865193874  0.8083528448290451  1.0000
  Pb  Pb2       1.0  0.17275466579599913  0.4265304205369772  0.6916566041969646  1.0000
  Pb  Pb3       1.0  0.32725557422806173  0.4265286371546253  0.1916501345676025  1.0000
  Pb  Pb4       1.0  0.8272566660869954  0.573482649250394  0.3083581162482929  1.0000
  C   C1        1.0  0.31740184473409994  0.6702130791794898  0.5002496714014413  1.0000
  C   C2        1.0  0.8174003966072406  0.3297875918929661  0.9997549412811466  1.0000
  C   C3        1.0  0.6825990315670367  0.3297856058358448  0.4997550989268832  1.0000
  C   C4        1.0  0.18259786582019905  0.670207800700716  0.00024404112073740398  1.0000
  C   C5        1.0  0.19777347403380224  0.863257223211562  0.4345762497255948  1.0000
  C   C6        1.0  0.6977830864265685  0.13674041046759558  0.0654235509914187  1.0000
  C   C7        1.0  0.8022117186860671  0.13673257410935236  0.5654269768272187  1.0000
  C   C8        1.0  0.3022204039124788  0.8632550052242463  0.9345724548206462  1.0000
  C   C9        1.0  0.26281343196975365  0.9686568390682877  0.5179184786019492  1.0000
  C   C10       1.0  0.7628265492217283  0.031344680802561684  0.9820776043725702  1.0000
  C   C11       1.0  0.7371613049701227  0.031336325957894894  0.4820808620705535  1.0000
  C   C12       1.0  0.2371769411117484  0.9686518516489427  0.01791785027594976  1.0000
  C   C13       1.0  0.3581229088820663  0.9247097794884099  0.5939519178383321  1.0000
  C   C14       1.0  0.8581337767027651  0.0752937181368551  0.906043301452975  1.0000
  C   C15       1.0  0.6418648977325534  0.07529006865085817  0.40604634823301927  1.0000
  C   C16       1.0  0.14186971364160428  0.9247028258823918  0.0939506649102171  1.0000
  C   C17       1.0  0.3859915565616064  0.7731919550609304  0.5841602139325346  1.0000
  C   C18       1.0  0.8859878995305196  0.2268122267737737  0.9158387148659415  1.0000
  C   C19       1.0  0.6139988640478293  0.2268000873097335  0.4158404219887046  1.0000
  C   C20       1.0  0.11401166984187944  0.7731853819783081  0.08416139763205877  1.0000
  C   C21       1.0  0.4859944528495036  0.7172017740843444  0.6632685747691127  1.0000
  C   C22       1.0  0.9860092953822959  0.2828009796256197  0.8367296210791793  1.0000
  C   C23       1.0  0.5140011955720996  0.28280253525374377  0.3367282307620059  1.0000
  C   C24       1.0  0.014008571631819702  0.7171955353716297  0.1632680659446564  1.0000
  C   C25       1.0  0.4135731607953162  0.29228993688165866  0.8929940919362525  1.0000
  C   C26       1.0  0.9135827512092906  0.7077181850162616  0.6070195453059384  1.0000
  C   C27       1.0  0.5864316363239866  0.7077187468878774  0.10701241518980709  1.0000
  C   C28       1.0  0.0864259666240343  0.29230600033163506  0.3929963607974544  1.0000
  S   S1        1.0  0.5025620214199621  0.27095310947898094  0.7789223565165387  1.0000
  S   S2        1.0  0.0025604965129133  0.7290509290259518  0.7210866029540384  1.0000
  S   S3        1.0  0.4974545383693184  0.729058855079138  0.2210914267877726  1.0000
  S   S4        1.0  0.9974390726609744  0.27096779983405367  0.2789156878619607  1.0000
  N   N1        1.0  0.2256655893063099  0.7161293333277283  0.4274904320248467  1.0000
  N   N2        1.0  0.7256660206140993  0.2838679194827662  0.0725069318873324  1.0000
  N   N3        1.0  0.7743196034076192  0.2838649483834743  0.5725083574457984  1.0000
  N   N4        1.0  0.27433616276908884  0.7161252684829333  0.9274894321139442  1.0000
  N   N5        1.0  0.3493308263406405  0.3052456609431928  0.9749449015552757  1.0000
  N   N6        1.0  0.8493340099242348  0.6947645934351668  0.525056004928672  1.0000
  N   N7        1.0  0.6506687430199918  0.6947597940459217  0.02504763208460047  1.0000
  N   N8        1.0  0.15066163827173543  0.30525968454795555  0.4749479949399742  1.0000
  O   O1        1.0  0.16020210384788672  0.6148974078812015  0.348539757043028  1.0000
  O   O2        1.0  0.6602113824111415  0.3850985461334773  0.1514591889202848  1.0000
  O   O3        1.0  0.8397857028607305  0.38509019060493427  0.6514601069712995  1.0000
  O   O4        1.0  0.3398012567681405  0.6148935365656382  0.8485362379208894  1.0000
  O   O5        1.0  0.49259206482235396  0.5749665904329788  0.6506154744629954  1.0000
  O   O6        1.0  0.9926068772428922  0.425039378858436  0.8493862285420947  1.0000
  O   O7        1.0  0.5074140392855071  0.42504435576590527  0.3493862096178688  1.0000
  O   O8        1.0  0.0074240594135233  0.574961539461604  0.1506174393489914  1.0000
  O   O9        1.0  0.5568088017533698  0.8090478488029047  0.7371910204653958  1.0000
  O   O10       1.0  0.0568094205579968  0.19095553653038166  0.7628019144477705  1.0000
  O   O11       1.0  0.44318031178937656  0.1909586883173091  0.2628054269052456  1.0000
  O   O12       1.0  0.9432032185609743  0.8090398501767877  0.2371978120440872  1.0000
