data_image0
_chemical_formula_structural       V4Cu4H32C24N24O4F12
_chemical_formula_sum              "V4 Cu4 H32 C24 N24 O4 F12"
_cell_length_a       6.10711159
_cell_length_b       12.398614711666998
_cell_length_c       13.7698
_cell_angle_alpha    90.0
_cell_angle_beta     90.0
_cell_angle_gamma    101.34561959776326

_space_group_name_H-M_alt    "P 1"
_space_group_IT_number       1

loop_
  _space_group_symop_operation_xyz
  'x, y, z'

loop_
  _atom_site_type_symbol
  _atom_site_label
  _atom_site_symmetry_multiplicity
  _atom_site_fract_x
  _atom_site_fract_y
  _atom_site_fract_z
  _atom_site_occupancy
  V   V1        1.0  0.027576851557555054  0.8762491873045593  0.4586283025171056  1.0000
  V   V2        1.0  0.4724358404132403  0.623755940231881  0.9586297549710211  1.0000
  V   V3        1.0  0.9724362407460917  0.12375532787577012  0.5413687925750565  1.0000
  V   V4        1.0  0.5275703736013925  0.3762477523314232  0.0413731499368168  1.0000
  Cu  Cu1       1.0  0.03264882363093598  0.6318332168015176  0.5577328646748683  1.0000
  Cu  Cu2       1.0  0.4673465083434041  0.8681694428838542  0.0577306859939881  1.0000
  Cu  Cu3       1.0  0.9673426534661476  0.3681704757617866  0.4422664090981741  1.0000
  Cu  Cu4       1.0  0.5326547880613006  0.1318301365943242  0.9422700402329767  1.0000
  H   H1        1.0  0.3706508994590792  0.7050214535262571  0.753864253656552  1.0000
  H   H2        1.0  0.12933821132199347  0.7949820287761328  0.2538569913869466  1.0000
  H   H3        1.0  0.6293382831069751  0.2949805938029968  0.2461357463434481  1.0000
  H   H4        1.0  0.870640489536605  0.20501837331907075  0.7461357463434481  1.0000
  H   H5        1.0  0.4551055427737937  0.0147717339200426  0.6133618498453117  1.0000
  H   H6        1.0  0.044909837042027306  0.4852239427339171  0.1133698383418817  1.0000
  H   H7        1.0  0.5449140939669023  0.9852286681751609  0.3866323403390056  1.0000
  H   H8        1.0  0.9550986555913852  0.5147690558080528  0.8866337927929209  1.0000
  H   H9        1.0  0.00630918166633882  0.7632364151598026  0.9398015947944032  1.0000
  H   H10       1.0  0.4936831986812253  0.7367629540574614  0.4398103095179309  1.0000
  H   H11       1.0  0.993692114738366  0.23676316431836855  0.060198405205596814  1.0000
  H   H12       1.0  0.5063200637066387  0.2632374480377422  0.5601904167090268  1.0000
  H   H13       1.0  0.1307588534927362  0.06309554844357021  0.7842532208165665  1.0000
  H   H14       1.0  0.36925391385235434  0.4369058865295656  0.2842546732704889  1.0000
  H   H15       1.0  0.8692447374429977  0.9369056762686584  0.2157475054103912  1.0000
  H   H16       1.0  0.6307385382801841  0.5630920477145623  0.7157475054103913  1.0000
  H   H17       1.0  0.575925207386213  0.9164496587050479  0.8463979142761673  1.0000
  H   H18       1.0  0.9240783799602073  0.5835538235973416  0.3463986405031321  1.0000
  H   H19       1.0  0.42407379979154314  0.08355238862420582  0.1535999070429526  1.0000
  H   H20       1.0  0.07591210088508403  0.4164391749446352  0.6536006332699102  1.0000
  H   H21       1.0  0.7079020641932774  0.005447369940334601  0.7519012621824572  1.0000
  H   H22       1.0  0.7920960344299176  0.49455488764983363  0.2519063457711823  1.0000
  H   H23       1.0  0.2921008696467027  0.9945522095378436  0.24809583290969783  1.0000
  H   H24       1.0  0.20789150539676635  0.5054430465942943  0.7480892968670575  1.0000
  H   H25       1.0  0.7763911178557663  0.7686097495678724  0.7905314528896596  1.0000
  H   H26       1.0  0.723615415813356  0.7313929101174921  0.2905430725210252  1.0000
  H   H27       1.0  0.22361050709681513  0.23139065252732394  0.2094699995642628  1.0000
  H   H28       1.0  0.27638260572078377  0.2686066693606861  0.7094576537059396  1.0000
  H   H29       1.0  0.9126002865755396  0.8608695394029554  0.6988220598701531  1.0000
  H   H30       1.0  0.587406586249621  0.639142169069686  0.198830048366716  1.0000
  H   H31       1.0  0.08740231871657042  0.1391292174581977  0.30117866635681173  1.0000
  H   H32       1.0  0.4125871800744037  0.3608590556425356  0.8011714040872064  1.0000
  C   C1        1.0  0.35561306629001893  0.7680363855013682  0.7006630452148884  1.0000
  C   C2        1.0  0.14437604979514876  0.7319712098861474  0.2006681288036134  1.0000
  C   C3        1.0  0.6443810285818898  0.23196566182788567  0.2993333236503091  1.0000
  C   C4        1.0  0.8556062544818985  0.26803001482608124  0.7993325974233445  1.0000
  C   C5        1.0  0.3930603231671201  0.9286071157192668  0.630006971778819  1.0000
  C   C6        1.0  0.1069513831600517  0.5713955439660979  0.1300120553675441  1.0000
  C   C7        1.0  0.6069494889618741  0.0713932863759368  0.3699886708594136  1.0000
  C   C8        1.0  0.893055811194124  0.4286065033631489  0.8699915757672585  1.0000
  C   C9        1.0  0.0765885140448718  0.847513529383136  0.9201970979970682  1.0000
  C   C10       1.0  0.4234068126253804  0.6524850172171028  0.4202029078127509  1.0000
  C   C11       1.0  0.9234098360371378  0.15248687271206052  0.07980217577597411  1.0000
  C   C12       1.0  0.5765984210497167  0.3475203205802516  0.5797978184142139  1.0000
  C   C13       1.0  0.1387104588668464  0.0033332441857752007  0.8415743148048591  1.0000
  C   C14       1.0  0.36129641583285393  0.49666983602141107  0.3415779459396617  1.0000
  C   C15       1.0  0.8612918231814818  0.9966688031434716  0.1584256851951338  1.0000
  C   C16       1.0  0.638697021943301  0.5033305660737923  0.6584256851951339  1.0000
  C   C17       1.0  0.6475034689082407  0.9195517475067663  0.7731731760809879  1.0000
  C   C18       1.0  0.8525030700649551  0.5804550252637242  0.2731789858966707  1.0000
  C   C19       1.0  0.3524981560443338  0.0804486545884373  0.2268253714650896  1.0000
  C   C20       1.0  0.14748873027591716  0.4195453768314793  0.7268202878763645  1.0000
  C   C21       1.0  0.8367948901447946  0.8552806793342995  0.7712544844514824  1.0000
  C   C22       1.0  0.6632129577158139  0.6447252708191655  0.2712639254019678  1.0000
  C   C23       1.0  0.16320673480777975  0.14471972276089673  0.22874624177548242  1.0000
  C   C24       1.0  0.33678538706210764  0.355271018190912  0.7287375270519547  1.0000
  N   N1        1.0  0.21075619691772834  0.7577429786660659  0.6283446382663486  1.0000
  N   N2        1.0  0.28924797402469693  0.742257213168223  0.1283410071315458  1.0000
  N   N3        1.0  0.7892464136784697  0.242259891280213  0.3716553617336515  1.0000
  N   N4        1.0  0.7107448066557113  0.25774154369293  0.8716575404145317  1.0000
  N   N5        1.0  0.23331922971573965  0.8602073326977333  0.584006303650014  1.0000
  N   N6        1.0  0.26668526447046764  0.639789568668455  0.0840113872387391  1.0000
  N   N7        1.0  0.7666859986552766  0.1397938920144952  0.4159893389882185  1.0000
  N   N8        1.0  0.7333163551780189  0.3602067203416227  0.9159915176690988  1.0000
  N   N9        1.0  0.47288838576209014  0.8738660657827924  0.7037567720664057  1.0000
  N   N10       1.0  0.02711479953670454  0.6261316582004213  0.2037567720664057  1.0000
  N   N11       1.0  0.5271135677383612  0.12613515892943641  0.29623959679879164  1.0000
  N   N12       1.0  0.9728809221623111  0.3738621629585808  0.7962395967987916  1.0000
  N   N13       1.0  0.24364500819421417  0.9133697805630094  0.9644039855335578  1.0000
  N   N14       1.0  0.2563499899281609  0.5866279434202113  0.4644061642144379  1.0000
  N   N15       1.0  0.7563549793230778  0.0866306215321941  0.0355974669203647  1.0000
  N   N16       1.0  0.743640172977429  0.41337245867499217  0.5355974669203647  1.0000
  N   N17       1.0  0.2828622869397536  0.0128945218687235  0.9141163996572175  1.0000
  N   N18       1.0  0.21713606673156965  0.4871036226363117  0.41411712588418237  1.0000
  N   N19       1.0  0.7171360631422559  0.9871058802264798  0.0858843265697402  1.0000
  N   N20       1.0  0.782861303010904  0.512898424692935  0.5858836003427825  1.0000
  N   N21       1.0  0.0077486893590902085  0.9005270835668642  0.8426680126072981  1.0000
  N   N22       1.0  0.49225351560016867  0.5994722856503998  0.3426730961960232  1.0000
  N   N23       1.0  0.9922526070456075  0.09947249591131421  0.1573327136196596  1.0000
  N   N24       1.0  0.5077448344818407  0.4005281164448037  0.6573276300309345  1.0000
  O   O1        1.0  0.9024275024940993  0.7483273041965646  0.4790882946738506  1.0000
  O   O2        1.0  0.5975796882707627  0.7516770007228502  0.9790941044895334  1.0000
  O   O3        1.0  0.09757150468365691  0.251674743132682  0.5209095266452692  1.0000
  O   O4        1.0  0.4024216134380226  0.2483266918404539  0.020913157780071905  1.0000
  F   F1        1.0  0.27588128466064893  0.8631555921157599  0.3800178651832269  1.0000
  F   F2        1.0  0.22412910747502934  0.6368437771015111  0.8800193176371494  1.0000
  F   F3        1.0  0.7241344201137282  0.13684316474539324  0.619979956135893  1.0000
  F   F4        1.0  0.7758646588490026  0.3631574476107177  0.1199828610437308  1.0000
  F   F5        1.0  0.87688660923034  0.9003066222041342  0.3417929091199596  1.0000
  F   F6        1.0  0.6231346613563318  0.5996960374812303  0.8417965402547622  1.0000
  F   F7        1.0  0.12313139007507352  0.09969377989106933  0.6582020072913153  1.0000
  F   F8        1.0  0.3768695813710679  0.4003027193799156  0.1582078171070052  1.0000
  F   F9        1.0  0.8213500448368407  0.9528751405772696  0.5329314877485487  1.0000
  F   F10       1.0  0.6786597583987587  0.5471234060229692  0.0329423811529566  1.0000
  F   F11       1.0  0.17866468490208834  0.0471293746030597  0.46706415488968395  1.0000
  F   F12       1.0  0.3213441504766764  0.45287041513603304  0.9670699647053668  1.0000
