data_image0
_chemical_formula_structural       Ni2H24C36S4N4
_chemical_formula_sum              "Ni2 H24 C36 S4 N4"
_cell_length_a       3.645144604123651
_cell_length_b       12.849653580928974
_cell_length_c       14.386374755086155
_cell_angle_alpha    89.99962621488712
_cell_angle_beta     90.0000663181982
_cell_angle_gamma    91.8461211499772

_space_group_name_H-M_alt    "P 1"
_space_group_IT_number       1

loop_
  _space_group_symop_operation_xyz
  'x, y, z'

loop_
  _atom_site_type_symbol
  _atom_site_label
  _atom_site_symmetry_multiplicity
  _atom_site_fract_x
  _atom_site_fract_y
  _atom_site_fract_z
  _atom_site_occupancy
  Ni  Ni1       1.0  0.5000117231939996  2.1692190231001904e-06  1.3981571882e-06  1.0000
  Ni  Ni2       1.0  0.5000130702034298  0.49999684048448484  0.5000050139200738  1.0000
  H   H1        1.0  0.7095309782793393  0.0163247397954223  0.20222464236370294  1.0000
  H   H2        1.0  0.29043755102227214  0.483670362216067  0.7022262596727842  1.0000
  H   H3        1.0  0.2904388048951674  0.9836820933950464  0.7977853854378765  1.0000
  H   H4        1.0  0.7095515872285176  0.5163380563732644  0.2977795975116777  1.0000
  H   H5        1.0  0.7385524944123814  0.8937793013887045  0.3374959584447126  1.0000
  H   H6        1.0  0.26144955026742167  0.6062156603561917  0.8375004323821784  1.0000
  H   H7        1.0  0.2613977108729202  0.10622361055127531  0.6625119840613464  1.0000
  H   H8        1.0  0.7385588687913797  0.3937935650122526  0.1624998639830864  1.0000
  H   H9        1.0  0.5012883286466235  0.7100344572522558  0.31794395267544934  1.0000
  H   H10       1.0  0.4987022169284288  0.7899567391050227  0.8179480765990661  1.0000
  H   H11       1.0  0.4986647689189354  0.28997001599493183  0.6820535632939482  1.0000
  H   H12       1.0  0.5013113926586997  0.21004937981237498  0.1820494393665868  1.0000
  H   H13       1.0  0.18458503135222057  0.5772535542981813  0.2153806157853708  1.0000
  H   H14       1.0  0.8153757943761305  0.9227515888947194  0.715375647819215  1.0000
  H   H15       1.0  0.8154336945248132  0.4227486795202962  0.7846203757022323  1.0000
  H   H16       1.0  0.18460985738589386  0.07724903948812308  0.2846135269359422  1.0000
  H   H17       1.0  0.868488127379763  0.5344378871871811  0.0657356832978238  1.0000
  H   H18       1.0  0.13145335951046627  0.9655504242164027  0.5657290581104348  1.0000
  H   H19       1.0  0.13155469853025892  0.4655581538247659  0.9342597473907192  1.0000
  H   H20       1.0  0.8685065584008315  0.03443926725898899  0.4342566411649003  1.0000
  H   H21       1.0  0.792476901965557  0.6704857686494706  0.9458771082012376  1.0000
  H   H22       1.0  0.2075200554893613  0.8295037161247049  0.44588202190718823  1.0000
  H   H23       1.0  0.2075390800945058  0.32951646117034267  0.0541183224691437  1.0000
  H   H24       1.0  0.7924781270734089  0.1704844743276084  0.5541147990074222  1.0000
  C   C1        1.0  0.5886097112576962  0.937719947555969  0.1979325257297972  1.0000
  C   C2        1.0  0.41134986438750326  0.562273644557365  0.6979393414878601  1.0000
  C   C3        1.0  0.41137112131460907  0.062287680379277795  0.8020656853331545  1.0000
  C   C4        1.0  0.5886632996578527  0.43772780257756233  0.3020672108190965  1.0000
  C   C5        1.0  0.6076205770307511  0.868183991023642  0.2730524143976965  1.0000
  C   C6        1.0  0.39233973343212364  0.6318106058408188  0.7730497948460241  1.0000
  C   C7        1.0  0.39236589166048225  0.13182520219701388  0.7269464917630089  1.0000
  C   C8        1.0  0.6076657190320419  0.3681962796441169  0.2269477211173054  1.0000
  C   C9        1.0  0.47661678646793604  0.7670178208407776  0.2622028526700149  1.0000
  C   C10       1.0  0.5233213404566968  0.73297526639228  0.762208694036616  1.0000
  C   C11       1.0  0.5233742043670803  0.232981258322873  0.7377884073961098  1.0000
  C   C12       1.0  0.47664799711635913  0.2670268950719502  0.2377950778590048  1.0000
  C   C13       1.0  0.3050461189266471  0.7373902896911841  0.17753601762070303  1.0000
  C   C14       1.0  0.6949385114764725  0.7626089390292135  0.6775326583675181  1.0000
  C   C15       1.0  0.694953623182876  0.2626142518578972  0.8224677542685797  1.0000
  C   C16       1.0  0.30505544595046535  0.23739248002050317  0.32246068699839003  1.0000
  C   C17       1.0  0.15893770930601653  0.6356266914170876  0.1611068724186566  1.0000
  C   C18       1.0  0.8410381902129489  0.8643687529173291  0.6611161417615534  1.0000
  C   C19       1.0  0.8410758260616761  0.3643786488345384  0.8389017651835999  1.0000
  C   C20       1.0  0.15895495034988016  0.13562410123321905  0.3388841546503585  1.0000
  C   C21       1.0  0.9848909603070624  0.6124436091875223  0.0780471109546639  1.0000
  C   C22       1.0  0.015092002404230684  0.8875470078131682  0.5780430142592863  1.0000
  C   C23       1.0  0.01512227797671529  0.3875586165952852  0.9219531854307235  1.0000
  C   C24       1.0  0.9849284275530508  0.112444329309433  0.42194894093162827  1.0000
  C   C25       1.0  0.9438612656067066  0.6892256358757861  0.009336738090262  1.0000
  C   C26       1.0  0.05610180576429258  0.8107639010802429  0.509346289531365  1.0000
  C   C27       1.0  0.0561512300296911  0.31076880367619  0.9906586926023806  1.0000
  C   C28       1.0  0.9439181786566452  0.18922276425477233  0.49065609220514983  1.0000
  C   C29       1.0  0.08465655869486707  0.7905209516648097  0.0217738969929897  1.0000
  C   C30       1.0  0.9153201801906119  0.7094669566678814  0.5217805806057001  1.0000
  C   C31       1.0  0.9153480768780613  0.2094773689465228  0.9782236189948534  1.0000
  C   C32       1.0  0.08468393555057929  0.29052591356167307  0.47821902070420214  1.0000
  C   C33       1.0  0.2787158321416996  0.8143184202858789  0.10620997518730489  1.0000
  C   C34       1.0  0.7212269361213474  0.6856797154965903  0.6062147036221788  1.0000
  C   C35       1.0  0.7213053404846618  0.18568070304710454  0.8937924065135476  1.0000
  C   C36       1.0  0.2787475177307641  0.3143185608789451  0.39378976338679905  1.0000
  S   S1        1.0  0.017342440356117084  0.8896968905807582  0.9417225374901292  1.0000
  S   S2        1.0  0.9826719128730304  0.6103027709773983  0.4417308170180974  1.0000
  S   S3        1.0  0.9826571532223056  0.11030609372369331  0.05827984419931201  1.0000
  S   S4        1.0  0.017354004723614494  0.3896885741374092  0.5582736500115573  1.0000
  N   N1        1.0  0.43514810886804167  0.9119445578513916  0.1167404955741205  1.0000
  N   N2        1.0  0.5648541396639716  0.5880434667755665  0.616744388157734  1.0000
  N   N3        1.0  0.5648538571887372  0.08805453735036646  0.88326119102436  1.0000
  N   N4        1.0  0.4351639921184827  0.4119525380362532  0.383258688654152  1.0000
