data_image0
_chemical_formula_structural       Zn2H35C46N3O13
_chemical_formula_sum              "Zn2 H35 C46 N3 O13"
_cell_length_a       13.341486900108317
_cell_length_b       13.952704531089521
_cell_length_c       15.27241765664741
_cell_angle_alpha    90.25532762661672
_cell_angle_beta     92.60277019338432
_cell_angle_gamma    111.90306368984037

_space_group_name_H-M_alt    "P 1"
_space_group_IT_number       1

loop_
  _space_group_symop_operation_xyz
  'x, y, z'

loop_
  _atom_site_type_symbol
  _atom_site_label
  _atom_site_symmetry_multiplicity
  _atom_site_fract_x
  _atom_site_fract_y
  _atom_site_fract_z
  _atom_site_occupancy
  Zn  Zn1       1.0  0.4929682414024014  0.3972971086061107  0.4974889169745609  1.0000
  Zn  Zn2       1.0  0.5083219608998063  0.6038052102084207  0.4963606706771557  1.0000
  H   H1        1.0  0.8622835688084722  0.7459824729603569  0.5925895605069085  1.0000
  H   H2        1.0  0.20254866327846333  0.7067622151294441  0.6482671018218582  1.0000
  H   H3        1.0  0.053178091395274255  0.7722634836884337  0.6384797818801503  1.0000
  H   H4        1.0  0.8068638576230924  0.4412028046161822  0.49835211947249286  1.0000
  H   H5        1.0  0.1362452993540515  0.2440416015651223  0.4643626834050778  1.0000
  H   H6        1.0  0.8581278381242896  0.32066473070789675  0.5041350771138227  1.0000
  H   H7        1.0  0.2795449055535143  0.5816271768361856  0.5997782473597226  1.0000
  H   H8        1.0  0.4580478678784203  0.33325880965083604  0.053724227162930994  1.0000
  H   H9        1.0  0.4664781532302624  0.3346840166018337  0.2171503166323419  1.0000
  H   H10       1.0  0.48683348441995383  0.6484553715152117  0.2225799931424106  1.0000
  H   H11       1.0  0.47244567457023834  0.6468609359235203  0.0590977694006085  1.0000
  H   H12       1.0  0.5810467350623583  0.6512413118475066  0.9455227866674463  1.0000
  H   H13       1.0  0.3568391939760147  0.3335115506210469  0.9248306083190059  1.0000
  H   H14       1.0  0.34582140504336684  0.6961937588296934  0.441606780607259  1.0000
  H   H15       1.0  0.6614014306295387  0.8129760799006148  0.5464659982433062  1.0000
  H   H16       1.0  0.6656586877027949  0.9946446518400336  0.5466507899303819  1.0000
  H   H17       1.0  0.563496255809909  0.0900295895470933  0.6288870587252332  1.0000
  H   H18       1.0  0.5565576149358549  0.26783088570498137  0.6262384963885665  1.0000
  H   H19       1.0  0.44031619760429663  0.22809375968507342  0.3677872254109289  1.0000
  H   H20       1.0  0.4370572173075118  0.0467423409054604  0.3599602931666723  1.0000
  H   H21       1.0  0.7232336271014931  0.6310331549563274  0.7243119729781851  1.0000
  H   H22       1.0  0.7458336755181916  0.66513197726438  0.8385035654927504  1.0000
  H   H23       1.0  0.7759075133082264  0.8497985291603954  0.8024952582142078  1.0000
  H   H24       1.0  0.8691235334708765  0.8073068324995704  0.749979213153935  1.0000
  H   H25       1.0  0.7557310023261009  0.8153943517845262  0.6886538411113676  1.0000
  H   H26       1.0  0.24612682805402383  0.36701882645218814  0.6967367778147279  1.0000
  H   H27       1.0  0.2091080896087263  0.299546596025877  0.796627681611568  1.0000
  H   H28       1.0  0.20474002672861502  0.13624709500871288  0.7208740299031504  1.0000
  H   H29       1.0  0.1132807299638614  0.18573373507453542  0.6672016034666512  1.0000
  H   H30       1.0  0.23974861311576492  0.20592439710677013  0.6213454560331684  1.0000
  H   H31       1.0  0.2920497116173165  0.9483446533728497  0.5372767908683542  1.0000
  H   H32       1.0  0.2118522613020701  0.8132111649207944  0.5259361251801024  1.0000
  H   H33       1.0  0.1142975553136623  0.848992840076363  0.3919276608236259  1.0000
  H   H34       1.0  0.09873332020293182  0.9157877534920614  0.48642144225789247  1.0000
  H   H35       1.0  0.19113139943661384  0.9840818268305043  0.407165426760251  1.0000
  C   C1        1.0  0.48890007335156593  0.4939884803478449  0.3275741661148359  1.0000
  C   C2        1.0  0.2901889578166674  0.4305261643015186  0.5004321374368601  1.0000
  C   C3        1.0  0.49452620105903117  0.4980499778955263  0.6658721609897071  1.0000
  C   C4        1.0  0.7087138441264712  0.5701668097147917  0.5167044167288992  1.0000
  C   C5        1.0  0.999304169516627  0.6994043484557722  0.6076141384027096  1.0000
  C   C6        1.0  0.8245985994092422  0.5906618733464839  0.5433465152734485  1.0000
  C   C7        1.0  0.10301832722542058  0.30011130617358356  0.48544282949728057  1.0000
  C   C8        1.0  0.9907959692351797  0.2734768835632265  0.48662002187946035  1.0000
  C   C9        1.0  0.9457469278912569  0.3450323458709689  0.5072285951953006  1.0000
  C   C10       1.0  0.013402854753593341  0.44613188853976027  0.5337998444738119  1.0000
  C   C11       1.0  0.12755505063321235  0.47157396406849017  0.5425012950864455  1.0000
  C   C12       1.0  0.9704802121261124  0.5252465386319328  0.5526639999623197  1.0000
  C   C13       1.0  0.040471687523570686  0.6212165416586616  0.5920156914417802  1.0000
  C   C14       1.0  0.15117512817097634  0.6364343327276104  0.6123505623546066  1.0000
  C   C15       1.0  0.19420304670107663  0.5667544302945728  0.5859963294872441  1.0000
  C   C16       1.0  0.8630244270430792  0.51221117183713  0.5298539751599591  1.0000
  C   C17       1.0  0.8937002059878836  0.6852680510910999  0.5827116801798197  1.0000
  C   C18       1.0  0.1708641153409828  0.3991565949811217  0.5112798746049876  1.0000
  C   C19       1.0  0.46186824446515107  0.40189041015219823  0.09042302499015159  1.0000
  C   C20       1.0  0.4676143944064464  0.4025903035422402  0.1816078435716904  1.0000
  C   C21       1.0  0.4783064574782471  0.4919539255068556  0.2296175234853237  1.0000
  C   C22       1.0  0.4799365329058745  0.5798030234199273  0.1846271386992839  1.0000
  C   C23       1.0  0.472922466910596  0.5786912819068489  0.09351049831886368  1.0000
  C   C24       1.0  0.4657188097484735  0.49037073733994424  0.044687305657106394  1.0000
  C   C25       1.0  0.5329005206401263  0.5821290676953481  0.9069433914332306  1.0000
  C   C26       1.0  0.5409112352662077  0.584319847954653  0.8162859790481818  1.0000
  C   C27       1.0  0.48446614599621535  0.49603737923428065  0.7632912267208807  1.0000
  C   C28       1.0  0.418324213961789  0.4061168295309939  0.8048278371921498  1.0000
  C   C29       1.0  0.4097977694281595  0.40444108542189366  0.8955977300247894  1.0000
  C   C30       1.0  0.46781771078710926  0.49217510478059967  0.9481017387284041  1.0000
  C   C31       1.0  0.40982042348552017  0.8622990367941269  0.4625670547651524  1.0000
  C   C32       1.0  0.41491046868565473  0.7642110876472118  0.4647139669944877  1.0000
  C   C33       1.0  0.5913333559134415  0.8302836885804439  0.5242741429698015  1.0000
  C   C34       1.0  0.5922520493121225  0.9301001073024294  0.5252171420730676  1.0000
  C   C35       1.0  0.5005304301501281  0.9481216280723285  0.4941209876700227  1.0000
  C   C36       1.0  0.5358259840008229  0.11771637173962551  0.5695263049924365  1.0000
  C   C37       1.0  0.5326071710849192  0.21611085740534716  0.5687820749964915  1.0000
  C   C38       1.0  0.4656800625344815  0.19294882590987328  0.4238505255286427  1.0000
  C   C39       1.0  0.464774059866201  0.0932409447297218  0.4199902160806204  1.0000
  C   C40       1.0  0.5002217724368236  0.053775318801243095  0.4943324632654367  1.0000
  C   C41       1.0  0.7176185881582879  0.6855201092373446  0.7747545424294129  1.0000
  C   C42       1.0  0.7833679791286414  0.7961897071160279  0.7526592689292002  1.0000
  C   C43       1.0  0.2500408953927078  0.3014329678250007  0.7350207234555696  1.0000
  C   C44       1.0  0.19911718795841438  0.2010086048725839  0.6830082308378493  1.0000
  C   C45       1.0  0.2454601605197554  0.8857132223950545  0.4900589406879021  1.0000
  C   C46       1.0  0.15762479289679726  0.9102051840477612  0.440641261244906  1.0000
  N   N1        1.0  0.5039513249355422  0.749026297197744  0.49473434504916713  1.0000
  N   N2        1.0  0.4978961702590111  0.25274083375943235  0.4971014842061833  1.0000
  N   N3        1.0  0.9187851211430883  0.16642958986411568  0.4656141570679537  1.0000
  O   O1        1.0  0.46538564492936985  0.4073369451361657  0.3651828115729074  1.0000
  O   O2        1.0  0.5207622764734623  0.5822377709540946  0.3662782078173166  1.0000
  O   O3        1.0  0.3311230533627096  0.36307624840240027  0.5167682166333591  1.0000
  O   O4        1.0  0.3394319864043496  0.5212993238292967  0.4736114600285503  1.0000
  O   O5        1.0  0.5244017886992508  0.4307195721510908  0.6310900391670203  1.0000
  O   O6        1.0  0.47222920692460235  0.5676251138541275  0.6252034984342599  1.0000
  O   O7        1.0  0.654571636915442  0.4812144304900201  0.4831485541643232  1.0000
  O   O8        1.0  0.6719698564030592  0.6409668091224249  0.5305828572090903  1.0000
  O   O9        1.0  0.6062228324167194  0.6752667220049774  0.7797020977095029  1.0000
  O   O10       1.0  0.36205199959117346  0.31752156631428363  0.7554957802932307  1.0000
  O   O11       1.0  0.3182452228509902  0.8725724493120309  0.4268770379403932  1.0000
  O   O12       1.0  0.9605093327611345  0.10445598013025399  0.4436940487817793  1.0000
  O   O13       1.0  0.8196346335209059  0.1428516601173158  0.472192722443701  1.0000
