data_image0
_chemical_formula_structural       Rb4Sn4H24C48O24
_chemical_formula_sum              "Rb4 Sn4 H24 C48 O24"
_cell_length_a       12.168720590898358
_cell_length_b       12.1231
_cell_length_c       12.168588648839075
_cell_angle_alpha    109.39529178758245
_cell_angle_beta     109.54274291145995
_cell_angle_gamma    109.39573197974298

_space_group_name_H-M_alt    "P 1"
_space_group_IT_number       1

loop_
  _space_group_symop_operation_xyz
  'x, y, z'

loop_
  _atom_site_type_symbol
  _atom_site_label
  _atom_site_symmetry_multiplicity
  _atom_site_fract_x
  _atom_site_fract_y
  _atom_site_fract_z
  _atom_site_occupancy
  Rb  Rb1       1.0  0.5598211405685518  0.9998872908500972  0.00010854974099326992  1.0000
  Rb  Rb2       1.0  0.4402733383297318  0.4399860974947955  0.44008722252763727  1.0000
  Rb  Rb3       1.0  0.9998520655430171  0.9997117580425441  0.5596358799705429  1.0000
  Rb  Rb4       1.0  0.9999394637655642  0.5596148287542917  0.9999978135845994  1.0000
  Sn  Sn1       1.0  0.215091720485262  0.999878106671595  0.9991070518656073  1.0000
  Sn  Sn2       1.0  0.7842937051734965  0.7845904671494496  0.7851971213371486  1.0000
  Sn  Sn3       1.0  0.0008763100556948457  0.0006049069617617128  0.2159748696716406  1.0000
  Sn  Sn4       1.0  0.999948838867688  0.21534486615341553  2.3285188518741922e-05  1.0000
  H   H1        1.0  0.5653951498142575  0.27192697405043015  0.9613037021130848  1.0000
  H   H2        1.0  0.433504422761132  0.39487688296377144  0.7062697061153003  1.0000
  H   H3        1.0  0.6906851482097951  0.7286851387867729  0.2943389722682141  1.0000
  H   H4        1.0  0.3102533955610625  0.6041673566304695  0.03796094694733653  1.0000
  H   H5        1.0  0.6035878447506989  0.03796636026756065  0.30918383281738226  1.0000
  H   H6        1.0  0.7277013739338261  0.29385341302754153  0.6896492436731096  1.0000
  H   H7        1.0  0.3959290873462323  0.706611062580734  0.4346260837104055  1.0000
  H   H8        1.0  0.2728535835338093  0.9614223326512032  0.5665654458896228  1.0000
  H   H9        1.0  0.2937213748222051  0.6885177737998306  0.7270512757173718  1.0000
  H   H10       1.0  0.038625331614753206  0.3106445163124292  0.6040934278680011  1.0000
  H   H11       1.0  0.9619707362990866  0.5661370301546923  0.2722738632608781  1.0000
  H   H12       1.0  0.7055984859937398  0.4343384977924031  0.3962619505446696  1.0000
  H   H13       1.0  0.5136866285203966  0.5233047669512204  0.2618186286311044  1.0000
  H   H14       1.0  0.4869920810328311  0.7486601054884616  0.009628187394653832  1.0000
  H   H15       1.0  0.739875827803708  0.4774421441965018  0.9912699869211892  1.0000
  H   H16       1.0  0.25970593571351963  0.2503625958553429  0.7376332069147794  1.0000
  H   H17       1.0  0.2514174050181026  0.7375803988284559  0.2600954315522869  1.0000
  H   H18       1.0  0.4778522745029791  0.9905931448381368  0.7402373262573646  1.0000
  H   H19       1.0  0.7480319092549836  0.009672983366769649  0.48625450044363566  1.0000
  H   H20       1.0  0.5225960050894686  0.2616784182841768  0.5130105382661796  1.0000
  H   H21       1.0  0.9904346512642948  0.7391388439406655  0.4774320966043888  1.0000
  H   H22       1.0  0.7381830974396025  0.2614688858440814  0.25190274783429356  1.0000
  H   H23       1.0  0.2623273012718316  0.512733129154995  0.5221540152710062  1.0000
  H   H24       1.0  0.008816442042267154  0.4861046462379335  0.7485412426821297  1.0000
  C   C1        1.0  0.5331249170249066  0.3850319472918429  0.11423156618370466  1.0000
  C   C2        1.0  0.4664779931212594  0.5808838825864485  0.8515636600207444  1.0000
  C   C3        1.0  0.7305694244064256  0.6155347704168789  0.1490551279189773  1.0000
  C   C4        1.0  0.26961101194138615  0.4182816908081293  0.8850185050363778  1.0000
  C   C5        1.0  0.41845403059138436  0.8850631760371998  0.26939841183904895  1.0000
  C   C6        1.0  0.6154239133525296  0.14864027061440047  0.7304173222283978  1.0000
  C   C7        1.0  0.5811333763382507  0.8518512313209072  0.4668924789216434  1.0000
  C   C8        1.0  0.385109548563513  0.1143924838660554  0.5335444459650988  1.0000
  C   C9        1.0  0.14839327559295878  0.7293203368116395  0.6148960546400133  1.0000
  C   C10       1.0  0.8857691639095295  0.2708122662690756  0.4188810748505888  1.0000
  C   C11       1.0  0.11500355580551518  0.5332544876505524  0.38454551467376763  1.0000
  C   C12       1.0  0.850932556286118  0.46648645546540024  0.5815062910245744  1.0000
  C   C13       1.0  0.42776568736557863  0.26292498939834996  0.0970982689343316  1.0000
  C   C14       1.0  0.5714342478713165  0.6689165120581678  0.8343766410006097  1.0000
  C   C15       1.0  0.8356663550524247  0.7377243248134775  0.1660377956362709  1.0000
  C   C16       1.0  0.16439168953574798  0.33050675787462325  0.9021305842657412  1.0000
  C   C17       1.0  0.3302854082372235  0.9020415504084627  0.1641916423271255  1.0000
  C   C18       1.0  0.7377199945034932  0.16604654593830756  0.8356229425907314  1.0000
  C   C19       1.0  0.6693381479297218  0.8350540509720618  0.5723889175742657  1.0000
  C   C20       1.0  0.2629742789142996  0.0974579172767065  0.42854390248446356  1.0000
  C   C21       1.0  0.1655718859304543  0.8345279319258339  0.7370892487672904  1.0000
  C   C22       1.0  0.9029243556523101  0.16584206883203478  0.33068969245390184  1.0000
  C   C23       1.0  0.09793704332341954  0.4283526168650412  0.2622541578470887  1.0000
  C   C24       1.0  0.8340170672597368  0.5717237093120033  0.6696949225792537  1.0000
  C   C25       1.0  0.5961610125420265  0.3720938125179885  0.03688000916904606  1.0000
  C   C26       1.0  0.4032436107371141  0.4400456066289705  0.7758424163634459  1.0000
  C   C27       1.0  0.6657956686053695  0.6284688896719501  0.22465795830471078  1.0000
  C   C28       1.0  0.33486527439866637  0.5590637162560769  0.9627777373313364  1.0000
  C   C29       1.0  0.5588435875614834  0.9626953390003338  0.3341625792163399  1.0000
  C   C30       1.0  0.6279168745221926  0.2241961720157023  0.6651551254105287  1.0000
  C   C31       1.0  0.4407553622175726  0.7759537397591599  0.40380684836168257  1.0000
  C   C32       1.0  0.37264906368525175  0.0368882608906063  0.5968662915722192  1.0000
  C   C33       1.0  0.22413231314217102  0.6642169804072253  0.6273174902870196  1.0000
  C   C34       1.0  0.96309934878407  0.33524331936868634  0.5592411366576115  1.0000
  C   C35       1.0  0.037241806998977736  0.5962971883412252  0.372075201302941  1.0000
  C   C36       1.0  0.7752967184117098  0.40384521396642736  0.44111925655619194  1.0000
  C   C37       1.0  0.567737301338866  0.5139334708827334  0.2069472918472783  1.0000
  C   C38       1.0  0.4326568914874118  0.6394238608919095  0.9461695040481785  1.0000
  C   C39       1.0  0.6939532454808486  0.48666273951774736  0.054311462891085724  1.0000
  C   C40       1.0  0.30578718300287755  0.3596742505885261  0.7928019355029151  1.0000
  C   C41       1.0  0.36039038376410565  0.7927882607758081  0.3060365213030778  1.0000
  C   C42       1.0  0.48705070184846033  0.05392811387518042  0.694294168584868  1.0000
  C   C43       1.0  0.6391592578697429  0.9461114611157341  0.43217735928762835  1.0000
  C   C44       1.0  0.5135372647292017  0.20679655716095624  0.5673881115089118  1.0000
  C   C45       1.0  0.0538576404504455  0.693316652910859  0.4864853314544817  1.0000
  C   C46       1.0  0.7930357230555458  0.3069951961988409  0.3608275471297233  1.0000
  C   C47       1.0  0.2072025139052656  0.5668883236356805  0.5129495294524133  1.0000
  C   C48       1.0  0.9457005729073276  0.4323949792614954  0.6396125127282416  1.0000
  O   O1        1.0  0.3894999484754749  0.14682282762355922  9.438290478409483e-05  1.0000
  O   O2        1.0  0.6090274360678551  0.6098676248137737  0.7561645530116223  1.0000
  O   O3        1.0  0.8552512726327282  0.8539782062019726  0.2443880232028094  1.0000
  O   O4        1.0  0.1455981241584682  0.38978298765969305  0.9989803240246076  1.0000
  O   O5        1.0  0.38902033272017894  0.9985884442555744  0.14445209639824705  1.0000
  O   O6        1.0  0.8533541898298226  0.24415990060676748  0.8544386916387552  1.0000
  O   O7        1.0  0.6106839478035512  0.7572475507632321  0.6107292192148678  1.0000
  O   O8        1.0  0.1472031045454258  0.0007490517180101417  0.39090313580138764  1.0000
  O   O9        1.0  0.24371535333121136  0.8535801306796956  0.8528442046919266  1.0000
  O   O10       1.0  0.9999546624208409  0.14681000325924748  0.38946766872055605  1.0000
  O   O11       1.0  0.0011064883756475288  0.3907925365243443  0.1466238948255523  1.0000
  O   O12       1.0  0.7556108049123439  0.609574952894505  0.610935446712972  1.0000
  O   O13       1.0  0.3800739116640202  0.2751798052115788  0.17485759812334578  1.0000
  O   O14       1.0  0.6196206206783476  0.7948155347009094  0.8945820704971653  1.0000
  O   O15       1.0  0.900609128543259  0.7254100819244513  0.10545401188433344  1.0000
  O   O16       1.0  0.09851688828246828  0.20467719533117912  0.8245737468294224  1.0000
  O   O17       1.0  0.20478857381294094  0.8247776953473361  0.09930417337680096  1.0000
  O   O18       1.0  0.7260447096445904  0.10606257786750468  0.901480482788223  1.0000
  O   O19       1.0  0.7947949630623229  0.8950452536565123  0.6201106953465896  1.0000
  O   O20       1.0  0.27490615031793203  0.17518973117422837  0.38035332759366014  1.0000
  O   O21       1.0  0.10545214084335448  0.9003395108728327  0.7252187678326862  1.0000
  O   O22       1.0  0.8251758210958187  0.10035154613549216  0.2052582894020886  1.0000
  O   O23       1.0  0.1754482440801581  0.3800111298598807  0.2738773465700675  1.0000
  O   O24       1.0  0.894600394368432  0.6200817734722079  0.7952397068367176  1.0000
