data_image0
_chemical_formula_structural       Mn2H24C32N20O4
_chemical_formula_sum              "Mn2 H24 C32 N20 O4"
_cell_length_a       9.076878874574717
_cell_length_b       10.342436145676919
_cell_length_c       10.416912765656228
_cell_angle_alpha    117.70975860078794
_cell_angle_beta     90.26747965107498
_cell_angle_gamma    90.7242524567339

_space_group_name_H-M_alt    "P 1"
_space_group_IT_number       1

loop_
  _space_group_symop_operation_xyz
  'x, y, z'

loop_
  _atom_site_type_symbol
  _atom_site_label
  _atom_site_symmetry_multiplicity
  _atom_site_fract_x
  _atom_site_fract_y
  _atom_site_fract_z
  _atom_site_occupancy
  Mn  Mn1       1.0  0.496221144446089  0.5012228803495231  0.9891116595041037  1.0000
  Mn  Mn2       1.0  0.9995300743576152  0.0006731278527851993  0.00026206842073860087  1.0000
  H   H1        1.0  0.5462549934536227  0.7806406447435421  0.5052506859757385  1.0000
  H   H2        1.0  0.0486658472072321  0.7116292686425679  0.4986825562479423  1.0000
  H   H3        1.0  0.45376120348362986  0.21910243798774318  0.4965846338265435  1.0000
  H   H4        1.0  0.952373532482824  0.28742826781952857  0.5010743726998753  1.0000
  H   H5        1.0  0.4260386127498066  0.7507998616101332  0.3629656940986905  1.0000
  H   H6        1.0  0.934848642037508  0.7403691956428275  0.6428554806824492  1.0000
  H   H7        1.0  0.5727325220277066  0.2482241785009904  0.6395337860160167  1.0000
  H   H8        1.0  0.06594741749019309  0.2593284864682985  0.35690843518730014  1.0000
  H   H9        1.0  0.25181573546841923  0.4404023735624847  0.7772022176066  1.0000
  H   H10       1.0  0.7528950583282281  0.04095431210783568  0.22135506548516293  1.0000
  H   H11       1.0  0.7497321113584688  0.5537938416591147  0.22080869077885268  1.0000
  H   H12       1.0  0.24648007414572248  0.9580606997986721  0.7782810762283886  1.0000
  H   H13       1.0  0.1869951971303934  0.5072956437152383  0.5836109924028817  1.0000
  H   H14       1.0  0.6897812204979702  0.9752760967327562  0.41884748251810316  1.0000
  H   H15       1.0  0.8147138883006305  0.48896700721947894  0.4182361481264961  1.0000
  H   H16       1.0  0.3103851424173527  0.023539091394120117  0.5809814391749198  1.0000
  H   H17       1.0  0.5945367489916862  0.7584022651583878  0.6848671093339646  1.0000
  H   H18       1.0  0.09747849016215332  0.737412761434392  0.32549070550242476  1.0000
  H   H19       1.0  0.4037129838444145  0.24395435630923146  0.32199003138886434  1.0000
  H   H20       1.0  0.9035299504965336  0.26284491199509563  0.6743381200548126  1.0000
  H   H21       1.0  0.6379409262251842  0.6908532346335079  0.8770188343446887  1.0000
  H   H22       1.0  0.14211373431123056  0.8124919230358432  0.13571501342532594  1.0000
  H   H23       1.0  0.36054855654188595  0.31213048485221856  0.12794711446581888  1.0000
  H   H24       1.0  0.8582378808884386  0.18806435822952475  0.8640723267605492  1.0000
  C   C1        1.0  0.8215846531618424  0.5343958177717595  0.920868923180407  1.0000
  C   C2        1.0  0.3351394681325033  0.9867848923450923  0.09519159780838748  1.0000
  C   C3        1.0  0.17738402307382728  0.4652769388923659  0.07273182191632088  1.0000
  C   C4        1.0  0.6643552721210568  0.01879511431324937  0.9062216922167536  1.0000
  C   C5        1.0  0.9829051849968733  0.6651750458228493  0.8614592404814444  1.0000
  C   C6        1.0  0.4728000466891445  0.8301593315302683  0.13664192256494795  1.0000
  C   C7        1.0  0.0192498303768076  0.3356898532585362  0.1386978127665159  1.0000
  C   C8        1.0  0.5262930000386277  0.17313766850040918  0.8592946245732803  1.0000
  C   C9        1.0  0.3243768912822063  0.5103852994314052  0.7526787736913007  1.0000
  C   C10       1.0  0.8257634786323321  0.9742710884431033  0.24893264459500125  1.0000
  C   C11       1.0  0.6770637028251157  0.4851788440409949  0.24738496968141982  1.0000
  C   C12       1.0  0.17403354503047547  0.02513914408042681  0.7508647888859696  1.0000
  C   C13       1.0  0.2888045499477911  0.548768162643718  0.6456867433283832  1.0000
  C   C14       1.0  0.7904039476647924  0.9365140498005431  0.35697619852964374  1.0000
  C   C15       1.0  0.7129115167628726  0.4482496736350612  0.35593049874459837  1.0000
  C   C16       1.0  0.20978928837455868  0.06270004869188728  0.642774204501137  1.0000
  C   C17       1.0  0.38433634485090096  0.6386487584870295  0.6155734036516448  1.0000
  C   C18       1.0  0.8874834122345661  0.8506943375264697  0.38831131578591976  1.0000
  C   C19       1.0  0.6156998322578957  0.36051570081927037  0.38663305446286234  1.0000
  C   C20       1.0  0.11315402021402578  0.14885090652677485  0.611455171051176  1.0000
  C   C21       1.0  0.5128860642133901  0.6891911444776823  0.7008209384853358  1.0000
  C   C22       1.0  0.016524201855659698  0.8044863082756207  0.3074042110687499  1.0000
  C   C23       1.0  0.48593967974692714  0.31116730134278475  0.3037871019392142  1.0000
  C   C24       1.0  0.9841960340909849  0.19554525947482654  0.6923693424962563  1.0000
  C   C25       1.0  0.540142289433838  0.6497066201919067  0.8086521445815645  1.0000
  C   C26       1.0  0.0428574010066711  0.8469700752226501  0.20093968282046148  1.0000
  C   C27       1.0  0.4594570240671986  0.3507091159095665  0.19542869477174207  1.0000
  C   C28       1.0  0.9574665815304115  0.15325938610142478  0.7988601961301283  1.0000
  C   C29       1.0  0.345722094961026  0.6713868295585853  0.49429076528478066  1.0000
  C   C30       1.0  0.8496386506704424  0.81778565103172  0.5108248290176647  1.0000
  C   C31       1.0  0.6545647211037319  0.3275931462900629  0.5086331748040464  1.0000
  C   C32       1.0  0.15122184924668147  0.18177855387393993  0.4890887556740039  1.0000
  N   N1        1.0  0.7051598693811627  0.5111566960634518  0.9561451426568295  1.0000
  N   N2        1.0  0.23079728371927635  0.021996596451039397  0.05184086805251549  1.0000
  N   N3        1.0  0.2908544862344796  0.48970986268991373  0.033108470399390896  1.0000
  N   N4        1.0  0.7681850582757689  0.9824427957313376  0.9492680297900761  1.0000
  N   N5        1.0  0.9520799193027543  0.5543377137338936  0.8823546579980216  1.0000
  N   N6        1.0  0.45574622350666527  0.9556316715280603  0.14127444567147757  1.0000
  N   N7        1.0  0.0495790774593772  0.4457114056544996  0.116547867668011  1.0000
  N   N8        1.0  0.5440413112888295  0.05043828113658561  0.8603910673249257  1.0000
  N   N9        1.0  0.020333407310545195  0.7650533092301754  0.8420387440351148  1.0000
  N   N10       1.0  0.4951186244717789  0.716412871152784  0.1340767633516364  1.0000
  N   N11       1.0  0.9810484395410483  0.23686644882594982  0.15957534662528158  1.0000
  N   N12       1.0  0.5017155543666405  0.28417991204414494  0.8568306805354663  1.0000
  N   N13       1.0  0.44970220666107247  0.5587743311216329  0.8350577224366943  1.0000
  N   N14       1.0  0.9504754500009652  0.9308711406278934  0.17198559446713793  1.0000
  N   N15       1.0  0.5520308051034845  0.43742385706375597  0.16812404343027507  1.0000
  N   N16       1.0  0.0493860112757574  0.06907278215916073  0.8278292621369799  1.0000
  N   N17       1.0  0.4441891662781926  0.7465249110668707  0.4575337530562037  1.0000
  N   N18       1.0  0.9487702125906167  0.7462398085316481  0.548304482619919  1.0000
  N   N19       1.0  0.5557178992745547  0.25298612092370115  0.5449171098082956  1.0000
  N   N20       1.0  0.05207174380328179  0.2530092765711628  0.45126987606843727  1.0000
  O   O1        1.0  0.22444166059289472  0.627696588147593  0.4281018143069061  1.0000
  O   O2        1.0  0.7293615312373233  0.8594876318751261  0.5746806188488163  1.0000
  O   O3        1.0  0.7760507084145872  0.370825006977732  0.5737701236906714  1.0000
  O   O4        1.0  0.271719011281128  0.14037592181031033  0.4255691990002929  1.0000
