data_image0
_chemical_formula_structural       Zn4H24C82N4O28F18
_chemical_formula_sum              "Zn4 H24 C82 N4 O28 F18"
_cell_length_a       13.275699804059606
_cell_length_b       13.795841184869714
_cell_length_c       28.429681621739153
_cell_angle_alpha    90.32502279093022
_cell_angle_beta     89.79923222980973
_cell_angle_gamma    89.89459062063503

_space_group_name_H-M_alt    "P 1"
_space_group_IT_number       1

loop_
  _space_group_symop_operation_xyz
  'x, y, z'

loop_
  _atom_site_type_symbol
  _atom_site_label
  _atom_site_symmetry_multiplicity
  _atom_site_fract_x
  _atom_site_fract_y
  _atom_site_fract_z
  _atom_site_occupancy
  Zn  Zn1       1.0  0.5088709302284683  0.4031085411894538  0.4979646671844975  1.0000
  Zn  Zn2       1.0  0.4881950464048471  0.6047964243262528  0.5021716656943767  1.0000
  Zn  Zn3       1.0  0.5095413478059996  0.59721306282745  0.0358475219382228  1.0000
  Zn  Zn4       1.0  0.4892427605925889  0.3955635585403528  0.03156989074119561  1.0000
  H   H1        1.0  0.3956093537991734  0.26142752333194613  0.5463313248257649  1.0000
  H   H2        1.0  0.6214642797982534  0.24742868860298012  0.44753666509166123  1.0000
  H   H3        1.0  0.6019114066725563  0.7468886035971283  0.45352420722235115  1.0000
  H   H4        1.0  0.37210581528735526  0.7609783537604144  0.550209521240987  1.0000
  H   H5        1.0  0.5080087476324238  0.6512429070323548  0.6458373172918074  1.0000
  H   H6        1.0  0.497009349670904  0.34408638420166676  0.6463232761357036  1.0000
  H   H7        1.0  0.5072432948481449  0.3489258723537958  0.887946152591681  1.0000
  H   H8        1.0  0.4984709867002407  0.6561406158941809  0.8875169542785815  1.0000
  H   H9        1.0  0.3960715882221564  0.7392510467717911  0.9878771970048278  1.0000
  H   H10       1.0  0.6224444393473405  0.7523644604410861  0.0856537587395891  1.0000
  H   H11       1.0  0.6031454103131678  0.2530123862000195  0.0797683656592838  1.0000
  H   H12       1.0  0.3731899564284973  0.2397496324707831  0.983911766355952  1.0000
  H   H13       1.0  0.2855125490900861  0.8527039415106116  0.583220143335403  1.0000
  H   H14       1.0  0.2872913354029336  0.18069166958171934  0.5730849562125897  1.0000
  H   H15       1.0  0.6861049900774532  0.8261866750516943  0.4147100195449768  1.0000
  H   H16       1.0  0.6969984492070864  0.15618905924700502  0.4092111014181584  1.0000
  H   H17       1.0  0.5095436950305653  0.7587430184868752  0.8465702682903711  1.0000
  H   H18       1.0  0.513400326157985  0.7548698666773249  0.6862782246335684  1.0000
  H   H19       1.0  0.5119854259812299  0.2452569805714475  0.8475114283755119  1.0000
  H   H20       1.0  0.5069938985513929  0.24120450113260014  0.687266273365303  1.0000
  H   H21       1.0  0.2870028824108458  0.1485595328139837  0.9510129221476404  1.0000
  H   H22       1.0  0.28801212699847406  0.8204838976727657  0.9612759101277464  1.0000
  H   H23       1.0  0.6893167306311342  0.17331584416201912  0.11740854310694712  1.0000
  H   H24       1.0  0.6985318777809084  0.8432132429958371  0.1234322096302662  1.0000
  C   C1        1.0  0.5022051574915309  0.49802495814268594  0.5905199214044148  1.0000
  C   C2        1.0  0.3046442531413617  0.49071382559154847  0.5033415040106348  1.0000
  C   C3        1.0  0.5001276167572826  0.5091984656733147  0.40978484535824583  1.0000
  C   C4        1.0  0.6924768493417092  0.5181217268648054  0.4961774952511036  1.0000
  C   C5        1.0  0.5028041441831307  0.5020980749115437  0.9432683125730748  1.0000
  C   C6        1.0  0.3055861173896517  0.5109098941939223  0.031294704748916  1.0000
  C   C7        1.0  0.500987811270896  0.49029258889977007  0.12395438113453143  1.0000
  C   C8        1.0  0.6934647264947742  0.4826384240270514  0.0375223827912023  1.0000
  C   C9        1.0  0.44106835143829665  0.2121485463416803  0.5249004298809297  1.0000
  C   C10       1.0  0.4315731458903683  0.11117175555268942  0.526660789578763  1.0000
  C   C11       1.0  0.35875280887672284  0.06357319888481068  0.5558305207234469  1.0000
  C   C12       1.0  0.5703091480454106  0.20411469883340772  0.4689564650045881  1.0000
  C   C13       1.0  0.5690217927089235  0.10241708887691907  0.4679351025089957  1.0000
  C   C14       1.0  0.6347433381426268  0.045616528373315604  0.4386038328500774  1.0000
  C   C15       1.0  0.5534025249780967  0.7963516463764719  0.47332030897783994  1.0000
  C   C16       1.0  0.560535081284179  0.8974278675189427  0.4703698849610448  1.0000
  C   C17       1.0  0.6308497591636666  0.945066583604742  0.4399036555954652  1.0000
  C   C18       1.0  0.42336554296726087  0.8043470434864018  0.5288529475050012  1.0000
  C   C19       1.0  0.4234196707268082  0.9060617810128877  0.5292879306861664  1.0000
  C   C20       1.0  0.3555973922559943  0.9630756989499928  0.5575892749336333  1.0000
  C   C21       1.0  0.4981595624309135  0.05505487796142459  0.4979060228696781  1.0000
  C   C22       1.0  0.49400224127249  0.9535051527812471  0.4991779644092347  1.0000
  C   C23       1.0  0.5069363939438389  0.5568555521798401  0.207323703309882  1.0000
  C   C24       1.0  0.5152334173381163  0.3852031204119583  0.19708345830299834  1.0000
  C   C25       1.0  0.513548278426846  0.37172312312171135  0.24508626930927593  1.0000
  C   C26       1.0  0.5091575871059391  0.4515136416329355  0.2766972192106607  1.0000
  C   C27       1.0  0.5056708093253944  0.4422726164094612  0.326392893038836  1.0000
  C   C28       1.0  0.5156511086847857  0.6138281450302472  0.33659007370164323  1.0000
  C   C29       1.0  0.5147164719934024  0.6272786108988767  0.2885965260905152  1.0000
  C   C30       1.0  0.5098171325842812  0.5475202219968907  0.2570113808986321  1.0000
  C   C31       1.0  0.5087134844124676  0.4784239568086334  0.1765258439524331  1.0000
  C   C32       1.0  0.508001199737862  0.5207252870022073  0.3571635080724604  1.0000
  C   C33       1.0  0.5050856464629517  0.5860167465913121  0.6673666375590841  1.0000
  C   C34       1.0  0.5040439240000367  0.5889389363853752  0.7166660194558574  1.0000
  C   C35       1.0  0.5055744006503957  0.67879005323789  0.7423322167899401  1.0000
  C   C36       1.0  0.49978643968027114  0.410273706099396  0.667534986650324  1.0000
  C   C37       1.0  0.5014447695015675  0.40920354312796553  0.7168970137251733  1.0000
  C   C38       1.0  0.5029116452099202  0.32033818660340785  0.7429259479004813  1.0000
  C   C39       1.0  0.504912378760288  0.41416244820626963  0.8664140373212277  1.0000
  C   C40       1.0  0.503732715349777  0.41125071993993606  0.8171314056167915  1.0000
  C   C41       1.0  0.504489170042774  0.3213856510558771  0.7914726132843057  1.0000
  C   C42       1.0  0.5008160840202508  0.5899448843251135  0.8662797712296424  1.0000
  C   C43       1.0  0.5023003668326993  0.5910106427578796  0.8169117724291726  1.0000
  C   C44       1.0  0.5042812001721941  0.6798608617276403  0.7908914637599197  1.0000
  C   C45       1.0  0.5023180812267326  0.4977769712013115  0.6430726626946992  1.0000
  C   C46       1.0  0.5025673154096565  0.49955517730517585  0.7420676728285542  1.0000
  C   C47       1.0  0.5028206148164784  0.50242369376668  0.8907242717737135  1.0000
  C   C48       1.0  0.5027220309905617  0.5006470130640821  0.791737805505129  1.0000
  C   C49       1.0  0.870116845270573  0.44904009276074675  0.49842239584882725  1.0000
  C   C50       1.0  0.8525967565891149  0.6209213557379273  0.49346577996964675  1.0000
  C   C51       1.0  0.955797455973439  0.6319241151964902  0.4929446886216056  1.0000
  C   C52       1.0  0.021354600005572898  0.5512125542115527  0.49649507509363394  1.0000
  C   C53       1.0  0.12797412787838874  0.5585760287286661  0.49704444307428025  1.0000
  C   C54       1.0  0.1448711887327434  0.38879414221339914  0.510289060743169  1.0000
  C   C55       1.0  0.042023657912281485  0.3765575297313434  0.5078290128102196  1.0000
  C   C56       1.0  0.9766480257557717  0.45663406725975636  0.5005899584895346  1.0000
  C   C57       1.0  0.8056511041726891  0.5286128466736244  0.4958172281451212  1.0000
  C   C58       1.0  0.19157211748714076  0.4800433919882535  0.5039355778534969  1.0000
  C   C59       1.0  0.4417000731887484  0.7883763875007264  0.0090776162300372  1.0000
  C   C60       1.0  0.4323485842480038  0.8894018022797496  0.007297179526744902  1.0000
  C   C61       1.0  0.3595570800206004  0.9373057149521102  0.9783636217200995  1.0000
  C   C62       1.0  0.5712257042252844  0.7959039769715447  0.064460579867891  1.0000
  C   C63       1.0  0.5700732575446777  0.8975943548577091  0.06544837864519341  1.0000
  C   C64       1.0  0.6361156671588687  0.954107881060871  0.0944249346856196  1.0000
  C   C65       1.0  0.554749191930142  0.20372106690077632  0.06006618092956731  1.0000
  C   C66       1.0  0.5619407119653914  0.10260783901902931  0.0629507075489713  1.0000
  C   C67       1.0  0.6324411759033666  0.054681287243731384  0.0930794295475579  1.0000
  C   C68       1.0  0.42455466416136284  0.19622339399809618  0.0050470349053313  1.0000
  C   C69       1.0  0.42455399609275446  0.09451882127069672  0.004613033628523101  1.0000
  C   C70       1.0  0.3566042494524169  0.0378271295586714  0.9765852332958858  1.0000
  C   C71       1.0  0.4991433627506723  0.9452417346397654  0.0357592624249889  1.0000
  C   C72       1.0  0.4952061307676204  0.046793802959911104  0.0344456520361689  1.0000
  C   C73       1.0  0.8707373407750935  0.552316550159034  0.0352779986087697  1.0000
  C   C74       1.0  0.8543445060521789  0.3808060621276894  0.04271902761072251  1.0000
  C   C75       1.0  0.9575710872666219  0.3702393792226034  0.0438656881159005  1.0000
  C   C76       1.0  0.022653330919140992  0.45087600810378353  0.0393195086770106  1.0000
  C   C77       1.0  0.12927255369047688  0.44368921303199466  0.0389628537916451  1.0000
  C   C78       1.0  0.14552098710894507  0.6127179337852693  0.0236302139691134  1.0000
  C   C79       1.0  0.04253026850420839  0.6249022554849972  0.025799530989346  1.0000
  C   C80       1.0  0.9774371845988696  0.5450262171592044  0.0337666134900871  1.0000
  C   C81       1.0  0.8067173671154322  0.4726967402212026  0.03869194415977971  1.0000
  C   C82       1.0  0.19250542211629101  0.5218721288957228  0.030987552974551105  1.0000
  N   N1        1.0  0.5084551735747809  0.2557733401656678  0.4968421790294997  1.0000
  N   N2        1.0  0.48674681846487994  0.7525391347807044  0.5016436607995871  1.0000
  N   N3        1.0  0.5091722712286497  0.7445098731451338  0.03686398042042781  1.0000
  N   N4        1.0  0.4879943607198313  0.2477930251398135  0.0320161881794547  1.0000
  O   O1        1.0  0.4828609839817092  0.4185494126753825  0.5693081300326029  1.0000
  O   O2        1.0  0.5215601412835936  0.5785728504932877  0.5705203686211534  1.0000
  O   O3        1.0  0.34013212810877747  0.5704573473998665  0.5182001896989945  1.0000
  O   O4        1.0  0.35416978996983767  0.4187220728865455  0.4876092297067629  1.0000
  O   O5        1.0  0.4587290133018058  0.5789206554773543  0.4319020345618156  1.0000
  O   O6        1.0  0.535068445162139  0.43193327642363505  0.4274450821550033  1.0000
  O   O7        1.0  0.6573521587888607  0.4374830260696854  0.5096509788358503  1.0000
  O   O8        1.0  0.6411108482654767  0.5910482446468704  0.4832934633934798  1.0000
  O   O9        1.0  0.4834164279008916  0.5815699301909305  0.9645966480317086  1.0000
  O   O10       1.0  0.5222280478755863  0.42141531163097307  0.9631263999956446  1.0000
  O   O11       1.0  0.3410577730151799  0.43110439767597347  0.0162492360746427  1.0000
  O   O12       1.0  0.3549926597754194  0.5827498733646903  0.046918444398912115  1.0000
  O   O13       1.0  0.45954290910254514  0.42086755142783266  0.10189053155764331  1.0000
  O   O14       1.0  0.5359278247023056  0.5675173574997885  0.10626396979610322  1.0000
  O   O15       1.0  0.6582146872118811  0.5631883291394004  0.0239157814212163  1.0000
  O   O16       1.0  0.6421293941953861  0.4094434123408206  0.0499813645127176  1.0000
  O   O17       1.0  0.28584253122927084  0.9229143953900163  0.5866559574219253  1.0000
  O   O18       1.0  0.29179865426190327  0.11337272570682438  0.5830964120093114  1.0000
  O   O19       1.0  0.6954583817545982  0.895801585672146  0.4113368598109091  1.0000
  O   O20       1.0  0.7029664845003722  0.0858723808728854  0.4087892389554782  1.0000
  O   O21       1.0  0.5056896943330782  0.768337578471332  0.8127321997099699  1.0000
  O   O22       1.0  0.508398684686469  0.7662931489880905  0.7200252542844582  1.0000
  O   O23       1.0  0.5066424120713506  0.23389312613995372  0.8137877915042395  1.0000
  O   O24       1.0  0.5034181102889335  0.23178675071277158  0.7211339455917597  1.0000
  O   O25       1.0  0.2868440035743447  0.07831160215584282  0.9477600217054631  1.0000
  O   O26       1.0  0.292488867668574  0.8878465013765222  0.9513342538393063  1.0000
  O   O27       1.0  0.6973947723254382  0.10363924787951362  0.1213032561133147  1.0000
  O   O28       1.0  0.7045294457236579  0.9135073912901459  0.1238902833275546  1.0000
  F   F1        1.0  0.5267623459984634  0.6936993041600062  0.3638677168384064  1.0000
  F   F2        1.0  0.5219649208049546  0.7189876744955797  0.2724700796552569  1.0000
  F   F3        1.0  0.4992953090968512  0.6473287335985487  0.18981358622735917  1.0000
  F   F4        1.0  0.5259180537619416  0.3052055616738727  0.1697962088620599  1.0000
  F   F5        1.0  0.5195778229930922  0.279888519958277  0.2611737545690573  1.0000
  F   F6        1.0  0.49694480768903293  0.3519120058960326  0.34395028801447586  1.0000
  F   F7        1.0  0.20113629404907127  0.3094146119029518  0.520249205339006  1.0000
  F   F8        1.0  0.005242476675149999  0.286332923794653  0.5142600272894384  1.0000
  F   F9        1.0  0.8316385894185528  0.35862943481063075  0.4983694063661944  1.0000
  F   F10       1.0  0.7974521261457426  0.7032512949643178  0.49201789272278523  1.0000
  F   F11       1.0  0.9925299242050584  0.7230365581111685  0.49031015603614486  1.0000
  F   F12       1.0  0.16816988779114436  0.6469451180924181  0.4894577171124013  1.0000
  F   F13       1.0  0.20170267452714796  0.6916855986698566  0.0129795708086888  1.0000
  F   F14       1.0  0.005452533046408801  0.7147905687731467  0.0184465955623878  1.0000
  F   F15       1.0  0.8316878436195195  0.6425430915978582  0.0336841712995906  1.0000
  F   F16       1.0  0.799924149956759  0.29830352034260693  0.0452684783771744  1.0000
  F   F17       1.0  0.9948828505328889  0.27951074607415183  0.0480824860893492  1.0000
  F   F18       1.0  0.17001577131462398  0.3559506834035417  0.0477344774994748  1.0000
