data_image0
_chemical_formula_structural       Dy4H32C24O28
_chemical_formula_sum              "Dy4 H32 C24 O28"
_cell_length_a       7.654796386368723
_cell_length_b       10.686275655718347
_cell_length_c       12.675057311611988
_cell_angle_alpha    95.33411165817202
_cell_angle_beta     107.57134497740496
_cell_angle_gamma    110.99166455159738

_space_group_name_H-M_alt    "P 1"
_space_group_IT_number       1

loop_
  _space_group_symop_operation_xyz
  'x, y, z'

loop_
  _atom_site_type_symbol
  _atom_site_label
  _atom_site_symmetry_multiplicity
  _atom_site_fract_x
  _atom_site_fract_y
  _atom_site_fract_z
  _atom_site_occupancy
  Dy  Dy1       1.0  0.7554223309398368  0.31023771227084757  0.7702142680790091  1.0000
  Dy  Dy2       1.0  0.17503897209397926  0.18980285770410893  0.7298435227252825  1.0000
  Dy  Dy3       1.0  0.24457602945840753  0.6897592160123621  0.22978509685713536  1.0000
  Dy  Dy4       1.0  0.8249594907193939  0.8101961284416818  0.2701564777277739  1.0000
  H   H1        1.0  0.14714642365332506  0.1361667265216937  0.04096751805412422  1.0000
  H   H2        1.0  0.4702710782993833  0.3637955072607255  0.4590530929085831  1.0000
  H   H3        1.0  0.8528503104640849  0.8638312307615267  0.9590325426636  1.0000
  H   H4        1.0  0.529726774143626  0.636202449976679  0.540946715793723  1.0000
  H   H5        1.0  0.1268498940781626  0.2587576059551395  0.13745872084771804  1.0000
  H   H6        1.0  0.23080462489610204  0.24130736947146406  0.36259870796664734  1.0000
  H   H7        1.0  0.8731494030186228  0.7412403509428742  0.862539795517293  1.0000
  H   H8        1.0  0.7691923331343418  0.7586885296555864  0.6373996769122742  1.0000
  H   H9        1.0  0.4873924248213443  0.29689025464726626  0.14906916746661392  1.0000
  H   H10       1.0  0.541416046034982  0.20302129618306006  0.35095190520498687  1.0000
  H   H11       1.0  0.5126067275743296  0.703106673883717  0.8509309857760031  1.0000
  H   H12       1.0  0.458582677617386  0.7969735747789314  0.6490486528425947  1.0000
  H   H13       1.0  0.429689497759412  0.3349209271580519  0.014371233270345863  1.0000
  H   H14       1.0  0.5803204904905926  0.1649706130109863  0.4856327527881136  1.0000
  H   H15       1.0  0.5703076841840727  0.6650729138128427  0.9856254757697657  1.0000
  H   H16       1.0  0.41968031138912204  0.8350304309057603  0.5143673791510325  1.0000
  H   H17       1.0  0.021875008530997813  0.3639452104454861  0.47012970328246695  1.0000
  H   H18       1.0  0.6878885139288188  0.13594514996550805  0.02973259588981149  1.0000
  H   H19       1.0  0.9781185945226413  0.6360506888190045  0.5298694376426953  1.0000
  H   H20       1.0  0.3121114536674907  0.8640569231990158  0.9702690201373868  1.0000
  H   H21       1.0  0.19557162995085534  0.5007652767223122  0.5835039639606806  1.0000
  H   H22       1.0  0.6110799581701157  0.998993034622579  0.9164083795184583  1.0000
  H   H23       1.0  0.8044264464051948  0.4992306223589366  0.4164941689028226  1.0000
  H   H24       1.0  0.38891637040718763  0.0010080094774096  0.08359276048234689  1.0000
  H   H25       1.0  0.18845248922596602  0.49713110110420194  0.8527691481668497  1.0000
  H   H26       1.0  0.33851195273665985  0.0028697673640110002  0.6471537627175011  1.0000
  H   H27       1.0  0.8115456240560307  0.5028627409494035  0.14723121812998144  1.0000
  H   H28       1.0  0.6614876653282735  0.9971271617083273  0.3528482191534722  1.0000
  H   H29       1.0  0.08465819155716758  0.5786224277640811  0.9117360165803277  1.0000
  H   H30       1.0  0.09424153956058492  0.9213716414069992  0.5882060860346598  1.0000
  H   H31       1.0  0.9153435607438426  0.4213724433540664  0.08826482574290419  1.0000
  H   H32       1.0  0.9057563128824171  0.07862631583040522  0.41179372266765313  1.0000
  C   C1        1.0  0.02811555378491434  0.26852165833526703  0.9634789984148852  1.0000
  C   C2        1.0  0.2962441682961481  0.2316039537130834  0.5365954018090234  1.0000
  C   C3        1.0  0.9718855089337951  0.7314752703976808  0.036521691118793095  1.0000
  C   C4        1.0  0.7037535817317251  0.7683919456617473  0.4634037713763705  1.0000
  C   C5        1.0  0.16925976821426764  0.2439342949634025  0.06354504110031914  1.0000
  C   C6        1.0  0.3619254665609761  0.25606185605217047  0.43650271153804004  1.0000
  C   C7        1.0  0.8307395288825178  0.7560636619346112  0.9364534752646919  1.0000
  C   C8        1.0  0.6380728938372684  0.7439350722310465  0.5634966533981044  1.0000
  C   C9        1.0  0.39096674460129316  0.33621387316594553  0.09112032310329005  1.0000
  C   C10       1.0  0.46359291777514505  0.1637119540280239  0.40890301057605444  1.0000
  C   C11       1.0  0.6090322261673152  0.6637840840256499  0.9088792335836049  1.0000
  C   C12       1.0  0.5364068449909002  0.8362860034113456  0.591097334417313  1.0000
  C   C13       1.0  0.45176315947063017  0.48569463437625165  0.1459000625398518  1.0000
  C   C14       1.0  0.3201172906637098  0.0142476844790096  0.3540750198834886  1.0000
  C   C15       1.0  0.5482361376261551  0.5143033225217621  0.8540984538251524  1.0000
  C   C16       1.0  0.679883119398653  0.985749244841102  0.6459277502939572  1.0000
  C   C17       1.0  0.9226666242282777  0.3937234110398365  0.6057509418792153  1.0000
  C   C18       1.0  0.423135673767362  0.10620379470657329  0.8942439849142615  1.0000
  C   C19       1.0  0.07733010988912531  0.6062745462433767  0.3942491188385091  1.0000
  C   C20       1.0  0.5768623835059118  0.8937982782559857  0.10575709482188252  1.0000
  C   C21       1.0  0.03493228515220182  0.4505911215197358  0.5302945520792264  1.0000
  C   C22       1.0  0.554021222142772  0.04930323499362291  0.9696506023726457  1.0000
  C   C23       1.0  0.9650649569204431  0.5494058068092896  0.4697050648723364  1.0000
  C   C24       1.0  0.4459763271752666  0.950699866923131  0.030350921129660167  1.0000
  O   O1        1.0  0.02454932730628199  0.23506637522298493  0.8624579600418015  1.0000
  O   O2        1.0  0.42712284336882084  0.265021184430104  0.6376190629729949  1.0000
  O   O3        1.0  0.9754472621100092  0.7649305536932117  0.1375437375535286  1.0000
  O   O4        1.0  0.5728768169820884  0.7349747151466844  0.36238064650345353  1.0000
  O   O5        1.0  0.9059370294349093  0.318876159399018  0.9752120836306092  1.0000
  O   O6        1.0  0.1119647973779294  0.1812334170479062  0.5248547472168354  1.0000
  O   O7        1.0  0.09406215988671827  0.681118712104329  0.024790303045328758  1.0000
  O   O8        1.0  0.8880335630203149  0.8187635112353034  0.475144617719309  1.0000
  O   O9        1.0  0.635551535067208  0.5688864056481789  0.17283077215989112  1.0000
  O   O10       1.0  0.3939095726852459  0.9311112078235981  0.3272271815709262  1.0000
  O   O11       1.0  0.36444851710105286  0.4311136085252372  0.8271662990782644  1.0000
  O   O12       1.0  0.6060905110489473  0.06888572179010312  0.6727766289284036  1.0000
  O   O13       1.0  0.31680895070174847  0.5183222542637581  0.16107217779755706  1.0000
  O   O14       1.0  0.1373051313598382  0.9815964520436397  0.33871218127862335  1.0000
  O   O15       1.0  0.683190854350272  0.4816746736800609  0.8389258948012854  1.0000
  O   O16       1.0  0.8626956050307015  0.018400476982897405  0.6612895485769317  1.0000
  O   O17       1.0  0.9636843290383226  0.3046313718748905  0.659727733456876  1.0000
  O   O18       1.0  0.49930703047206726  0.19539233129981426  0.8403339260538871  1.0000
  O   O19       1.0  0.03631384973285623  0.695366585068932  0.34027103492354627  1.0000
  O   O20       1.0  0.5006894428063475  0.8046097411672051  0.15966557706931192  1.0000
  O   O21       1.0  0.7893096679938623  0.4305550239242634  0.6177952923409294  1.0000
  O   O22       1.0  0.24091767579862733  0.0693573055962631  0.882236355926331  1.0000
  O   O23       1.0  0.21068828686427563  0.5694449911757217  0.3822051518783027  1.0000
  O   O24       1.0  0.7590802790595106  0.9306427095037219  0.11776408829289417  1.0000
  O   O25       1.0  0.06521305228645953  0.5122176820767166  0.8443452812605088  1.0000
  O   O26       1.0  0.20860052200727358  0.9878229295033093  0.6555657657911597  1.0000
  O   O27       1.0  0.9347853873237143  0.4877761596833068  0.15565404471443878  1.0000
  O   O28       1.0  0.7913990591317058  0.012176056596665302  0.34443398264648556  1.0000
