data_image0
_chemical_formula_structural       Yb2H26C32O24
_chemical_formula_sum              "Yb2 H26 C32 O24"
_cell_length_a       7.402179456886398
_cell_length_b       10.690990362243301
_cell_length_c       10.942111820240347
_cell_angle_alpha    87.28231411221256
_cell_angle_beta     77.79575631691742
_cell_angle_gamma    77.949447658227

_space_group_name_H-M_alt    "P 1"
_space_group_IT_number       1

loop_
  _space_group_symop_operation_xyz
  'x, y, z'

loop_
  _atom_site_type_symbol
  _atom_site_label
  _atom_site_symmetry_multiplicity
  _atom_site_fract_x
  _atom_site_fract_y
  _atom_site_fract_z
  _atom_site_occupancy
  Yb  Yb1       1.0  0.16897410521517023  0.24017865754142784  0.9330764900123327  1.0000
  Yb  Yb2       1.0  0.8310216984185388  0.7598214252475087  0.06692237394425861  1.0000
  H   H1        1.0  0.32597896512093166  0.16545858230305296  0.3479512498627387  1.0000
  H   H2        1.0  0.6740222634883395  0.834536575769036  0.6520530131939495  1.0000
  H   H3        1.0  0.343649461649953  0.03818901407529301  0.5453237592260791  1.0000
  H   H4        1.0  0.6563619653525238  0.9617977086333976  0.4546718186803176  1.0000
  H   H5        1.0  0.22421123987189862  0.8364697267279622  0.5742105915043396  1.0000
  H   H6        1.0  0.775794895660276  0.163518989232287  0.4257823391145621  1.0000
  H   H7        1.0  0.28922973902432864  0.6115360979534187  0.2564464552467172  1.0000
  H   H8        1.0  0.7107692522432885  0.3884611954933204  0.7435485894104731  1.0000
  H   H9        1.0  0.4329366025724396  0.29675425901615426  0.5070261472064175  1.0000
  H   H10       1.0  0.5670684787917394  0.7032523929629448  0.4929763004095022  1.0000
  H   H11       1.0  0.019216345259827978  0.6329760388499394  0.6452879448419893  1.0000
  H   H12       1.0  0.9807895700539506  0.36703362837840803  0.3547080134173655  1.0000
  H   H13       1.0  0.6883719384502954  0.23028670909338442  0.2015969186672066  1.0000
  H   H14       1.0  0.31162492852982393  0.7697027970562755  0.7984045905910406  1.0000
  H   H15       1.0  0.37562919036864884  0.390706125630146  0.04733050942543569  1.0000
  H   H16       1.0  0.6243691198095715  0.6092901278235274  0.9526682556605975  1.0000
  H   H17       1.0  0.4085571400806458  0.4434641939776611  0.9095654969002638  1.0000
  H   H18       1.0  0.591448012028266  0.5565376814547561  0.0904368955500843  1.0000
  H   H19       1.0  0.9544991643205735  0.42601344299699656  0.12483064315533449  1.0000
  H   H20       1.0  0.045499514338594185  0.5739886060504275  0.8751653910534145  1.0000
  H   H21       1.0  0.835065120271878  0.4182605417965347  0.02626515250103271  1.0000
  H   H22       1.0  0.16492616088827805  0.5817385354418576  0.9737365887285847  1.0000
  H   H23       1.0  0.517787070092936  0.08469010278872698  0.8172779131139124  1.0000
  H   H24       1.0  0.48220923552698736  0.915312844128671  0.1827209717779965  1.0000
  H   H25       1.0  0.5885641886749297  0.14994446137870193  0.9171231474393055  1.0000
  H   H26       1.0  0.41142871369034134  0.8500574545433255  0.08287951870156722  1.0000
  C   C1        1.0  0.17801829168931252  0.11721340205878758  0.1566340197919587  1.0000
  C   C2        1.0  0.8219716649057676  0.8827913241514266  0.8433715312623206  1.0000
  C   C3        1.0  0.18392161394225326  0.04054795830571579  0.2742031290885478  1.0000
  C   C4        1.0  0.8160705000713409  0.9594520496969422  0.7257995332321343  1.0000
  C   C5        1.0  0.2708338038276068  0.0782598019011616  0.36425911234375263  1.0000
  C   C6        1.0  0.7291634053904869  0.9217392992338347  0.6357406384736493  1.0000
  C   C7        1.0  0.2850139085423606  0.005758615789687803  0.472182481050929  1.0000
  C   C8        1.0  0.7149866663166614  0.9942337873827253  0.5278171195505338  1.0000
  C   C9        1.0  0.2155553305095309  0.8934767852501436  0.4898554899476509  1.0000
  C   C10       1.0  0.784446498169828  0.10651474549713673  0.5101403559947215  1.0000
  C   C11       1.0  0.1270575921013517  0.85649415859514  0.4011133061810099  1.0000
  C   C12       1.0  0.8729393569942444  0.14350209935737715  0.5988854893150801  1.0000
  C   C13       1.0  0.10894820508315212  0.9284627124260677  0.2924622504789554  1.0000
  C   C14       1.0  0.8910480115332573  0.07154218880152288  0.707534799871226  1.0000
  C   C15       1.0  0.013740968340982871  0.8806694924403471  0.20044597275017398  1.0000
  C   C16       1.0  0.9862594467698005  0.1193296415889407  0.7995518484751258  1.0000
  C   C17       1.0  0.15118223311552012  0.6353505844855147  0.4491942098935624  1.0000
  C   C18       1.0  0.8488214061467189  0.3646514046745536  0.5508035714469486  1.0000
  C   C19       1.0  0.27676001587364846  0.5687569719868221  0.3493447558503533  1.0000
  C   C20       1.0  0.7232483056103899  0.431239291866916  0.6506519275932945  1.0000
  C   C21       1.0  0.3782710628573368  0.4459153378916838  0.36935301967548634  1.0000
  C   C22       1.0  0.6217327920256462  0.554090471605953  0.6306447997154622  1.0000
  C   C23       1.0  0.355152244290352  0.39166057621750366  0.48913483021361503  1.0000
  C   C24       1.0  0.6448553881200995  0.6083412692712357  0.510868435802614  1.0000
  C   C25       1.0  0.22680480351777985  0.45912199833665573  0.5883672421021302  1.0000
  C   C26       1.0  0.7731979504050628  0.5408866588423109  0.41163156302018683  1.0000
  C   C27       1.0  0.12310096432469915  0.5814601257041969  0.5687971618378853  1.0000
  C   C28       1.0  0.8769078329025747  0.41854280166959495  0.4312005149775118  1.0000
  C   C29       1.0  0.5021249679056012  0.3773683931058897  0.2592242781239662  1.0000
  C   C30       1.0  0.4978855475144995  0.6226287970132702  0.7407732960006826  1.0000
  C   C31       1.0  0.2004154518857533  0.39524613676393017  0.713828805814444  1.0000
  C   C32       1.0  0.7995817310893614  0.6047567637626443  0.2861719174393969  1.0000
  O   O1        1.0  0.24639114075544194  0.21858659002142383  0.14014924277658744  1.0000
  O   O2        1.0  0.7535987895966654  0.7814219355803687  0.8598572807141309  1.0000
  O   O3        1.0  0.10670359028026159  0.07846417656256928  0.0724638175812657  1.0000
  O   O4        1.0  0.8932881666231289  0.9215415641958771  0.9275389170201082  1.0000
  O   O5        1.0  0.8376573546698654  0.9193427671356105  0.20694064947204543  1.0000
  O   O6        1.0  0.1623385824691112  0.0806543841880369  0.7930609662971478  1.0000
  O   O7        1.0  0.11211508804746008  0.7920777382638706  0.12465270907526362  1.0000
  O   O8        1.0  0.8878851673150763  0.207928126622285  0.8753433327738734  1.0000
  O   O9        1.0  0.03974305325689185  0.7516190222550421  0.4247776581617515  1.0000
  O   O10       1.0  0.9602569054655914  0.24837835497566368  0.5752136489514683  1.0000
  O   O11       1.0  0.5100494452699635  0.4205796693512695  0.15134250698156393  1.0000
  O   O12       1.0  0.48995904623689757  0.5794193075101574  0.8486607076892838  1.0000
  O   O13       1.0  0.6079726438192381  0.2644293980428642  0.2815160782091297  1.0000
  O   O14       1.0  0.3920215295289963  0.7355723832055289  0.7184921334275743  1.0000
  O   O15       1.0  0.05803093618018801  0.43875159678606224  0.8009187615260913  1.0000
  O   O16       1.0  0.9419764999644541  0.5612513350865739  0.1990789456993625  1.0000
  O   O17       1.0  0.3212356698364331  0.29624450238516437  0.7312123080467074  1.0000
  O   O18       1.0  0.6787543665837461  0.7037509101352767  0.2687829152506396  1.0000
  O   O19       1.0  0.3230975570648056  0.40063864794904447  0.9709105442005708  1.0000
  O   O20       1.0  0.6769009231362375  0.5993603185123105  0.02909475211266971  1.0000
  O   O21       1.0  0.9267058024891385  0.3638730229767901  0.06906584937787841  1.0000
  O   O22       1.0  0.07329326979779432  0.6361289377878306  0.9309338919647844  1.0000
  O   O23       1.0  0.478289504302758  0.12141279430668563  0.9011159256853531  1.0000
  O   O24       1.0  0.5217047146433912  0.8785900942715869  0.0988857927745883  1.0000
