data_image0
_chemical_formula_structural       NiH36C40N4O10
_chemical_formula_sum              "Ni1 H36 C40 N4 O10"
_cell_length_a       7.445209323950243
_cell_length_b       7.897215790469341
_cell_length_c       15.956346812905617
_cell_angle_alpha    89.33894065081094
_cell_angle_beta     78.47370031674637
_cell_angle_gamma    69.82677179246672

_space_group_name_H-M_alt    "P 1"
_space_group_IT_number       1

loop_
  _space_group_symop_operation_xyz
  'x, y, z'

loop_
  _atom_site_type_symbol
  _atom_site_label
  _atom_site_symmetry_multiplicity
  _atom_site_fract_x
  _atom_site_fract_y
  _atom_site_fract_z
  _atom_site_occupancy
  Ni  Ni1       1.0  6.830770545434819e-07  0.9999939235229431  0.9999990236052482  1.0000
  H   H1        1.0  0.06195593653929877  0.28868092954180474  0.025738519376211903  1.0000
  H   H2        1.0  0.9380490671429771  0.7113197402523709  0.9742613074523305  1.0000
  H   H3        1.0  0.06060824077389534  0.41735462822647657  0.09692534375106021  1.0000
  H   H4        1.0  0.9393950583258361  0.5826433338130529  0.9030759143932557  1.0000
  H   H5        1.0  0.8836286853858438  0.5790687348722372  0.464350408007455  1.0000
  H   H6        1.0  0.11637044947755018  0.42092925021684374  0.5356474879394072  1.0000
  H   H7        1.0  0.002732806207760131  0.6466940338343362  0.2548958862512123  1.0000
  H   H8        1.0  0.9972648358248221  0.35331881290925077  0.7451026976499266  1.0000
  H   H9        1.0  0.7295195524378147  0.4634022842916892  0.33689317557693244  1.0000
  H   H10       1.0  0.2704807512206172  0.5365997701125522  0.6631014526637744  1.0000
  H   H11       1.0  0.5797477067772123  0.33660444321043304  0.3851856253727277  1.0000
  H   H12       1.0  0.4202544953979909  0.6633962518567031  0.6148100821996678  1.0000
  H   H13       1.0  0.5198479880947957  0.560657401025324  0.4219441703116473  1.0000
  H   H14       1.0  0.48016250875374306  0.43934326115149946  0.5780557579340951  1.0000
  H   H15       1.0  0.679881776568479  0.6909643569216399  0.07792952906616793  1.0000
  H   H16       1.0  0.32012278427448854  0.3090376381088688  0.9220753466062916  1.0000
  H   H17       1.0  0.5208010016869196  0.6442609506399536  0.01879545154465493  1.0000
  H   H18       1.0  0.47921087102456283  0.35575053035962867  0.9812024056031063  1.0000
  H   H19       1.0  0.7088207325704872  0.4665428828452178  0.05511912720638179  1.0000
  H   H20       1.0  0.2911863175476057  0.5334632002348484  0.9448785940492856  1.0000
  H   H21       1.0  0.5886988556878804  0.06307362029806278  0.024898199375613203  1.0000
  H   H22       1.0  0.4113067800840896  0.9369108372664808  0.9751010292261455  1.0000
  H   H23       1.0  0.3235200655191264  0.07104811970988578  0.14679397774607142  1.0000
  H   H24       1.0  0.6764819671535207  0.92893498943711  0.853205602839779  1.0000
  H   H25       1.0  0.726184641393921  0.04671898391737269  0.312819905167082  1.0000
  H   H26       1.0  0.2738097262589464  0.9532844033405536  0.6871796705003419  1.0000
  H   H27       1.0  0.9674495457667194  0.05736107276323569  0.18299438208671864  1.0000
  H   H28       1.0  0.03254926414306423  0.9426342001902128  0.8170054399780186  1.0000
  H   H29       1.0  0.1025980303389602  0.20030721271644578  0.268945338110349  1.0000
  H   H30       1.0  0.8973944932621478  0.7996866908616552  0.7310594797078027  1.0000
  H   H31       1.0  0.8637808287158252  0.17411806993269607  0.3921526152017806  1.0000
  H   H32       1.0  0.13621754680449547  0.8258785249548948  0.607852881637271  1.0000
  H   H33       1.0  0.3312668331826104  0.8540265961739663  0.5117826136588521  1.0000
  H   H34       1.0  0.6687404615687315  0.1459754000011628  0.48822137382662595  1.0000
  H   H35       1.0  0.568921296113679  0.8784519315391462  0.3885873460565393  1.0000
  H   H36       1.0  0.4310789488079011  0.12155413712167729  0.611414786422948  1.0000
  C   C1        1.0  0.4666981770331304  0.5995658982764027  0.15456641476294666  1.0000
  C   C2        1.0  0.5332999454041032  0.4004347868183159  0.8454321899159041  1.0000
  C   C3        1.0  0.2625131043026344  0.643467181433209  0.1657727187896896  1.0000
  C   C4        1.0  0.737491156524236  0.3565281004138753  0.8342240750402966  1.0000
  C   C5        1.0  0.15952790375054346  0.6194332968129003  0.245223124473938  1.0000
  C   C6        1.0  0.8404736785508008  0.38057278397792516  0.7547763731556929  1.0000
  C   C7        1.0  0.2563191721736189  0.5612431936979903  0.3124710137299474  1.0000
  C   C8        1.0  0.7436776091178529  0.4387683024704713  0.6875276598986844  1.0000
  C   C9        1.0  0.46023313772153074  0.526831888577064  0.29714232860349915  1.0000
  C   C10       1.0  0.5397638290543371  0.47317554380184396  0.7028582297422121  1.0000
  C   C11       1.0  0.14415315801415576  0.5383446838664482  0.39616120297392143  1.0000
  C   C12       1.0  0.8558458420638645  0.46165734519900076  0.6038385638382096  1.0000
  C   C13       1.0  0.1456297215482679  0.7182869698465665  0.0990264792085043  1.0000
  C   C14       1.0  0.8543624851370669  0.28170022715249826  0.9009690049063934  1.0000
  C   C15       1.0  0.5802893143839185  0.4692552156575047  0.36408466560259717  1.0000
  C   C16       1.0  0.4197110230738588  0.5307468255379462  0.6359124663596775  1.0000
  C   C17       1.0  0.597899605490312  0.6020744654660389  0.07111546392528112  1.0000
  C   C18       1.0  0.4021074699772953  0.39793160770743435  0.9288841351215567  1.0000
  C   C19       1.0  0.611367134776664  0.06051624590486429  0.09017254338495921  1.0000
  C   C20       1.0  0.38862961179762584  0.9394736203670957  0.9098281323918657  1.0000
  C   C21       1.0  0.46424783492083327  0.06353320166825678  0.1597182365506313  1.0000
  C   C22       1.0  0.5357515023266259  0.9364607130268822  0.8402827959740904  1.0000
  C   C23       1.0  0.5018854378405565  0.05187852846120221  0.24282675653570604  1.0000
  C   C24       1.0  0.49810773566775873  0.9481207993881641  0.7571742090466955  1.0000
  C   C25       1.0  0.6873428352418216  0.05026034380069428  0.2504268639213194  1.0000
  C   C26       1.0  0.31264882385217874  0.949743032406026  0.7495754777242567  1.0000
  C   C27       1.0  0.8249838191317667  0.0541348585194825  0.17852660867950476  1.0000
  C   C28       1.0  0.17501721424840627  0.9458617672325003  0.8214723665990462  1.0000
  C   C29       1.0  0.3558388041038043  0.04027753593231149  0.31811902281843635  1.0000
  C   C30       1.0  0.6441584744919883  0.9597217919828862  0.6818809234486949  1.0000
  C   C31       1.0  0.15387132056510217  0.12106199259584827  0.3214999267642967  1.0000
  C   C32       1.0  0.8461246206509331  0.8789373231893476  0.6785026543526912  1.0000
  C   C33       1.0  0.017830767954436104  0.10590410517593797  0.392120764463698  1.0000
  C   C34       1.0  0.9821638358818416  0.8940951984792563  0.6078844515031464  1.0000
  C   C35       1.0  0.07380319426260942  0.0089450939515672  0.4629354701652987  1.0000
  C   C36       1.0  0.9261972361433665  0.9910569109197096  0.5370685470312682  1.0000
  C   C37       1.0  0.2766196438289229  0.9309416489152864  0.45941306250908553  1.0000
  C   C38       1.0  0.7233831617324855  0.06905765817376872  0.5405894888968135  1.0000
  C   C39       1.0  0.4136879184150717  0.9461800469281553  0.3891610291989737  1.0000
  C   C40       1.0  0.586312486641397  0.05382196784971429  0.6108411102064224  1.0000
  N   N1        1.0  0.7914320822503954  0.05129397548274279  0.0984779874798107  1.0000
  N   N2        1.0  0.20856673610922638  0.9487012941685078  0.9015224605153167  1.0000
  N   N3        1.0  0.5590424156616366  0.543966829288962  0.21967714046518694  1.0000
  N   N4        1.0  0.4409567661347752  0.45604195919067786  0.7803219451639478  1.0000
  O   O1        1.0  0.09158962529281918  0.2874679311112446  0.0831527406012  1.0000
  O   O2        1.0  0.9084141504455588  0.7125286924831614  0.9168459724207593  1.0000
  O   O3        1.0  0.17607122215553533  0.85753588503362  0.0633652916647591  1.0000
  O   O4        1.0  0.823927346887004  0.14245265162102064  0.9366308300702357  1.0000
  O   O5        1.0  0.02068244308010494  0.65508753468751  0.08530688646088441  1.0000
  O   O6        1.0  0.9793233575105875  0.3449036888956271  0.9146904090970978  1.0000
  O   O7        1.0  0.9521642918609317  0.6081799512873972  0.4050130154022328  1.0000
  O   O8        1.0  0.04783794411361696  0.39182073057094874  0.5949851958917307  1.0000
  O   O9        1.0  0.22626683739119358  0.45776909816005673  0.4538902916417912  1.0000
  O   O10       1.0  0.7737331666631424  0.5422302342019519  0.5461081405079612  1.0000
