data_image0
_chemical_formula_structural       Zn4P4H32C16N12O16
_chemical_formula_sum              "Zn4 P4 H32 C16 N12 O16"
_cell_length_a       8.815055566159872
_cell_length_b       9.344614321318872
_cell_length_c       10.046147169732041
_cell_angle_alpha    87.66584215868038
_cell_angle_beta     85.69572624944946
_cell_angle_gamma    88.25795423749746

_space_group_name_H-M_alt    "P 1"
_space_group_IT_number       1

loop_
  _space_group_symop_operation_xyz
  'x, y, z'

loop_
  _atom_site_type_symbol
  _atom_site_label
  _atom_site_symmetry_multiplicity
  _atom_site_fract_x
  _atom_site_fract_y
  _atom_site_fract_z
  _atom_site_occupancy
  Zn  Zn1       1.0  0.12234388105888172  0.20079452448648283  0.0429473318224396  1.0000
  Zn  Zn2       1.0  0.8776592502624893  0.7992011425167007  0.9570569873941256  1.0000
  Zn  Zn3       1.0  0.18094119883141246  0.6678352396407379  0.4334494144236701  1.0000
  Zn  Zn4       1.0  0.8190618894623326  0.3321625527136264  0.5665478546595965  1.0000
  P   P1        1.0  0.007620404507463299  0.42009327661753576  0.2960754548560729  1.0000
  P   P2        1.0  0.9923747202787608  0.5799046065818774  0.7039243320845332  1.0000
  P   P3        1.0  0.978410883172195  0.10744765069644305  0.7868090922690387  1.0000
  P   P4        1.0  0.021591038362245695  0.8925523164724327  0.21319613072670768  1.0000
  H   H1        1.0  0.9068312949182913  0.5348972298497188  0.26580072311702463  1.0000
  H   H2        1.0  0.0931638270314608  0.46510064591090855  0.7341960780819365  1.0000
  H   H3        1.0  0.11744168591871332  0.05344492219676062  0.7273478207708879  1.0000
  H   H4        1.0  0.8825568880734094  0.9465507790064867  0.27265082831262794  1.0000
  H   H5        1.0  0.6745988400000654  0.09726362762766882  0.9377826561654248  1.0000
  H   H6        1.0  0.3253996294919972  0.9027385140985874  0.0622207189457669  1.0000
  H   H7        1.0  0.6455672901675911  0.23393338258632923  0.8145218961701135  1.0000
  H   H8        1.0  0.3544414129871853  0.7660686288784934  0.18547283892532823  1.0000
  H   H9        1.0  0.8158941292622117  0.3552083711114094  0.9876485765858052  1.0000
  H   H10       1.0  0.18410547436194952  0.6447937484270626  0.012350742198961503  1.0000
  H   H11       1.0  0.7500632767720603  0.3150429417681125  0.1569100385341073  1.0000
  H   H12       1.0  0.24993625592473734  0.6849634681462364  0.843091103939493  1.0000
  H   H13       1.0  0.6929979732153555  0.47922772547373454  0.07723678111759112  1.0000
  H   H14       1.0  0.30699814101176065  0.5207787088508695  0.9227596111326125  1.0000
  H   H15       1.0  0.4597087121352956  0.45782074014724844  0.2104606104889798  1.0000
  H   H16       1.0  0.5402909624162291  0.5421770890153399  0.7895368846069604  1.0000
  H   H17       1.0  0.27790590652409014  0.3966668899272535  0.18246059102180825  1.0000
  H   H18       1.0  0.7220959710372341  0.6033352001132074  0.8175365865934128  1.0000
  H   H19       1.0  0.7490287218310314  0.65786935541  0.4883112993061688  1.0000
  H   H20       1.0  0.2509699755710102  0.3421199548621275  0.5117025286939736  1.0000
  H   H21       1.0  0.7252944479877925  0.8002017809911524  0.3652491205325746  1.0000
  H   H22       1.0  0.27471335083583875  0.1997874261665232  0.6347621142726612  1.0000
  H   H23       1.0  0.7903931063182554  0.9145738039472278  0.5976398789306787  1.0000
  H   H24       1.0  0.2096030079088678  0.08543263037736894  0.40235651331953204  1.0000
  H   H25       1.0  0.6645473971359976  0.8679060352743591  0.7379257525867119  1.0000
  H   H26       1.0  0.3354476711454808  0.13209505702837993  0.26207191875526803  1.0000
  H   H27       1.0  0.623510312703047  0.0205049989370778  0.6343181388643799  1.0000
  H   H28       1.0  0.37648584360620413  0.9794993075567437  0.3656843082719163  1.0000
  H   H29       1.0  0.37243284595813714  0.9254086570420343  0.7140736644908402  1.0000
  H   H30       1.0  0.6275576122713177  0.07459568848247501  0.28592020210832203  1.0000
  H   H31       1.0  0.23235297726495216  0.8175474387287451  0.6510873618692445  1.0000
  H   H32       1.0  0.7676443266535172  0.18245576182513906  0.3489060944059619  1.0000
  C   C1        1.0  0.43592402979817274  0.14705342066069  0.9087383118183398  1.0000
  C   C2        1.0  0.5640812433007767  0.8529497039257169  0.09125859808280272  1.0000
  C   C3        1.0  0.6004792305941109  0.18943642864855556  0.9118760027431353  1.0000
  C   C4        1.0  0.3995238011948885  0.8105645728091349  0.08811915074149823  1.0000
  C   C5        1.0  0.7189769601783099  0.3653697667519751  0.0617477885676578  1.0000
  C   C6        1.0  0.2810248646602318  0.6346355423101929  0.9382512544377949  1.0000
  C   C7        1.0  0.4446748829054812  0.30842564255964094  0.06328161646806053  1.0000
  C   C8        1.0  0.5553269573011762  0.6915785877095716  0.9367144824971521  1.0000
  C   C9        1.0  0.5345918221965817  0.660168454133725  0.3940889778858931  1.0000
  C   C10       1.0  0.465411213374388  0.3398325572423461  0.6059101565876048  1.0000
  C   C11       1.0  0.6669358929437125  0.735029989503417  0.44591258132636113  1.0000
  C   C12       1.0  0.3330627441716132  0.264962519953663  0.5540951500862833  1.0000
  C   C13       1.0  0.6707875356675146  0.9107511751778719  0.6346063369417152  1.0000
  C   C14       1.0  0.3292074635775819  0.08925421245994163  0.36539514858352373  1.0000
  C   C15       1.0  0.4424339897847815  0.7959548726889099  0.5585300395138262  1.0000
  C   C16       1.0  0.5575622537654397  0.20404406711566747  0.4414686351406092  1.0000
  N   N1        1.0  0.3492873521967468  0.22257058885244876  0.0016405880662162956  1.0000
  N   N2        1.0  0.6507202560715797  0.7774293095306039  0.9983612725000842  1.0000
  N   N3        1.0  0.5897356282619556  0.29602397194330615  0.013589606548038105  1.0000
  N   N4        1.0  0.4102663478862496  0.703972781163053  0.9864157415519089  1.0000
  N   N5        1.0  0.393586845668743  0.3912299908051865  0.16115127952637923  1.0000
  N   N6        1.0  0.606411659287005  0.6087700057331347  0.8388511837403957  1.0000
  N   N7        1.0  0.4026230289292839  0.7021107173091681  0.46526670583495655  1.0000
  N   N8        1.0  0.5973777634407469  0.29788816597899637  0.534728681727593  1.0000
  N   N9        1.0  0.5915689229767693  0.8220712842433217  0.5486944676695488  1.0000
  N   N10       1.0  0.40842728510976656  0.17792980074920453  0.45130511882930363  1.0000
  N   N11       1.0  0.3414226724188225  0.8549618181476365  0.645667986744769  1.0000
  N   N12       1.0  0.6585711995528455  0.14504249056864893  0.3543256538417126  1.0000
  O   O1        1.0  0.1366701738349079  0.4808331262845586  0.37106802349959633  1.0000
  O   O2        1.0  0.8633272076293821  0.5191658012506154  0.628930575817279  1.0000
  O   O3        1.0  0.0718015620195587  0.3619263618716745  0.16232031438405412  1.0000
  O   O4        1.0  0.9281957638854693  0.6380757772464208  0.8376771645814076  1.0000
  O   O5        1.0  0.9174691051915077  0.3068117485216604  0.38278945968646394  1.0000
  O   O6        1.0  0.08252836635022481  0.693181819763055  0.6172083528901953  1.0000
  O   O7        1.0  0.01595936532260109  0.22534668748041756  0.8812484076491459  1.0000
  O   O8        1.0  0.9840517323427704  0.7746488961165031  0.11875637945172464  1.0000
  O   O9        1.0  0.8880923308224381  0.16875154121713365  0.6722917294174169  1.0000
  O   O10       1.0  0.1119062124334675  0.8312463175720313  0.3277128077465862  1.0000
  O   O11       1.0  0.8980516667319022  0.9809777815410573  0.8590598383738668  1.0000
  O   O12       1.0  0.1019502758436062  0.019021121712427206  0.14094841206492253  1.0000
  O   O13       1.0  0.38707602742179853  0.05733825456584192  0.8359235154284408  1.0000
  O   O14       1.0  0.6129245992159582  0.9426702659506887  0.1640695063270883  1.0000
  O   O15       1.0  0.5471686500068174  0.5772588924564844  0.30055372896806193  1.0000
  O   O16       1.0  0.45284012880278374  0.42273884103043013  0.6994441586746165  1.0000
