data_image0
_chemical_formula_structural       Zn4H44C52N24O12
_chemical_formula_sum              "Zn4 H44 C52 N24 O12"
_cell_length_a       6.875883417910775
_cell_length_b       13.414157738878826
_cell_length_c       15.307860959001374
_cell_angle_alpha    90.00002723177188
_cell_angle_beta     89.99995846557579
_cell_angle_gamma    91.38422095065938

_space_group_name_H-M_alt    "P 1"
_space_group_IT_number       1

loop_
  _space_group_symop_operation_xyz
  'x, y, z'

loop_
  _atom_site_type_symbol
  _atom_site_label
  _atom_site_symmetry_multiplicity
  _atom_site_fract_x
  _atom_site_fract_y
  _atom_site_fract_z
  _atom_site_occupancy
  Zn  Zn1       1.0  0.5839021218208629  0.7536308944329663  0.02418566709488351  1.0000
  Zn  Zn2       1.0  0.9160946965714347  0.7463680061690355  0.5241888448952778  1.0000
  Zn  Zn3       1.0  0.41609862395403513  0.24636779485889806  0.9758129978390357  1.0000
  Zn  Zn4       1.0  0.08390325460119644  0.25363292313699054  0.4758143928535078  1.0000
  H   H1        1.0  0.25632473761954344  0.8372580583004848  0.9734241752139567  1.0000
  H   H2        1.0  0.24367593076182467  0.6627439449734284  0.4734241734433269  1.0000
  H   H3        1.0  0.7436760461455592  0.16274137668910535  0.026576449497504498  1.0000
  H   H4        1.0  0.7563235126909692  0.337257728568609  0.5265771045279521  1.0000
  H   H5        1.0  0.1830225247784797  0.7323751385919907  0.0161166732013527  1.0000
  H   H6        1.0  0.3169758632943882  0.7676251292098969  0.5161185863052893  1.0000
  H   H7        1.0  0.8169767667084715  0.2676235521608917  0.9838832982510723  1.0000
  H   H8        1.0  0.6830235801579081  0.23237654433231114  0.4838833449251254  1.0000
  H   H9        1.0  0.47561001994569113  0.5453812148303002  0.06933630156652272  1.0000
  H   H10       1.0  0.024382279061335107  0.9546153590736497  0.56934034804474  1.0000
  H   H11       1.0  0.5243847567145751  0.4546144975154292  0.9306623633677945  1.0000
  H   H12       1.0  0.9756141418429325  0.04538408029794281  0.43066027666746015  1.0000
  H   H13       1.0  0.3586953057372427  0.4441577155777879  0.1949123041569152  1.0000
  H   H14       1.0  0.14130118825589486  0.05584285654136781  0.6949128841887103  1.0000
  H   H15       1.0  0.6412939197157217  0.5558432224915394  0.8050883205567915  1.0000
  H   H16       1.0  0.8587039963612569  0.9441573197636046  0.305088393781304  1.0000
  H   H17       1.0  0.40143705796601376  0.7113132990537209  0.3530559351978155  1.0000
  H   H18       1.0  0.0985695749351123  0.7886878876683028  0.8530592365716034  1.0000
  H   H19       1.0  0.598559362940769  0.28868614031699025  0.6469414232187134  1.0000
  H   H20       1.0  0.9014356856654618  0.21131378003106255  0.1469420413986953  1.0000
  H   H21       1.0  0.5207497904786251  0.8017704437506697  0.2205625690582949  1.0000
  H   H22       1.0  0.9792540729123261  0.6982300470090339  0.7205663595084033  1.0000
  H   H23       1.0  0.4792494630186256  0.1982275013043093  0.7794347893574525  1.0000
  H   H24       1.0  0.020746786834692405  0.30177087937548924  0.2794362249807563  1.0000
  H   H25       1.0  0.25565607624405834  0.5959312174718436  0.6269622653529368  1.0000
  H   H26       1.0  0.24434367139915036  0.9040706001328619  0.1269623607536872  1.0000
  H   H27       1.0  0.7443432152413864  0.40406747328157167  0.3730396658769024  1.0000
  H   H28       1.0  0.7556644977758186  0.0959310646449936  0.8730382639569854  1.0000
  H   H29       1.0  0.07619446605340131  0.3906174280215852  0.8165752905977967  1.0000
  H   H30       1.0  0.4238062794258895  0.10938469682147911  0.3165732471021343  1.0000
  H   H31       1.0  0.9238047494496161  0.609379771337075  0.1834253341134868  1.0000
  H   H32       1.0  0.5761932780030536  0.890619213811796  0.6834267243513068  1.0000
  H   H33       1.0  0.04798857506261811  0.2567631121442133  0.7014644762396643  1.0000
  H   H34       1.0  0.4520051142434555  0.24323970352611474  0.20146247730693997  1.0000
  H   H35       1.0  0.9520121707122872  0.7432355771476511  0.2985341886942479  1.0000
  H   H36       1.0  0.547990042334945  0.7567634657912592  0.7985348811105482  1.0000
  H   H37       1.0  0.13695641723168714  0.560814526231809  0.938894821378611  1.0000
  H   H38       1.0  0.36304713691505003  0.9391859640765008  0.4388948911411036  1.0000
  H   H39       1.0  0.8630443665349292  0.4391849087572553  0.06110384355545052  1.0000
  H   H40       1.0  0.6369537228334822  0.06081496230748942  0.5611057335706491  1.0000
  H   H41       1.0  0.9141815758214875  0.5008083262887979  0.9070313113949169  1.0000
  H   H42       1.0  0.5858205081315406  0.999191520948834  0.4070334581291136  1.0000
  H   H43       1.0  0.0858206242413644  0.4991903615420485  0.0929660470204894  1.0000
  H   H44       1.0  0.41417893532275946  0.0008101525926704998  0.5929658600647658  1.0000
  C   C1        1.0  0.45664063052230125  0.5795773360946229  0.133232894104566  1.0000
  C   C2        1.0  0.04335317633925229  0.9204222536487237  0.6332356139018671  1.0000
  C   C3        1.0  0.5433514275221399  0.4204221076586164  0.8667664240900947  1.0000
  C   C4        1.0  0.9566520462691133  0.07957866835361933  0.3667663173274249  1.0000
  C   C5        1.0  0.39145213135816453  0.5232637449930664  0.2035059385401965  1.0000
  C   C6        1.0  0.10854447585678173  0.9767358797847834  0.7035093124602696  1.0000
  C   C7        1.0  0.6085370181138927  0.4767357016809869  0.7964914198775547  1.0000
  C   C8        1.0  0.89146507162171  0.023264292138002005  0.2964913122498771  1.0000
  C   C9        1.0  0.3704811196900908  0.5691557576320464  0.2853233916087561  1.0000
  C   C10       1.0  0.1295226709540387  0.9308446497302897  0.7853254334549291  1.0000
  C   C11       1.0  0.6295109383543508  0.43084368612119317  0.7146759265859046  1.0000
  C   C12       1.0  0.8704839679505697  0.06915552511383541  0.21467519125570791  1.0000
  C   C13       1.0  0.4156743742687966  0.6715304075337017  0.29147383943920613  1.0000
  C   C14       1.0  0.08432795261725803  0.8284700046110773  0.7914752018668381  1.0000
  C   C15       1.0  0.5843235009229204  0.32846903037704334  0.7085261320136099  1.0000
  C   C16       1.0  0.9156728691390585  0.1715301760758977  0.20852607610390816  1.0000
  C   C17       1.0  0.4804373699497476  0.7226608185686204  0.2176170144175487  1.0000
  C   C18       1.0  0.019565032682066916  0.7773388079881729  0.7176203377074444  1.0000
  C   C19       1.0  0.5195604292595563  0.2773371279473764  0.7823816505167117  1.0000
  C   C20       1.0  0.9804372813529058  0.22266211693532512  0.2823809402632023  1.0000
  C   C21       1.0  0.30580698416884644  0.5097498322665359  0.3598654837775968  1.0000
  C   C22       1.0  0.19419676766440835  0.9902521067516407  0.8598675279087119  1.0000
  C   C23       1.0  0.6941866041464594  0.4902511014202633  0.640133181157978  1.0000
  C   C24       1.0  0.805807000658014  0.009748816711017102  0.1401330968025505  1.0000
  C   C25       1.0  0.22837198213771615  0.46067249505951935  0.4867826312732078  1.0000
  C   C26       1.0  0.2716269329604232  0.039327486084801  0.9867818544128611  1.0000
  C   C27       1.0  0.7716302939060429  0.5393276841666078  0.513217993438154  1.0000
  C   C28       1.0  0.7283767973712898  0.9606726916803013  0.0132174637799878  1.0000
  C   C29       1.0  0.19003015816921487  0.44621990061489214  0.579587893718724  1.0000
  C   C30       1.0  0.309969573963933  0.053783589082897314  0.07958782573925301  1.0000
  C   C31       1.0  0.8099720798833447  0.5537795329138576  0.4204120777333672  1.0000
  C   C32       1.0  0.690029869489365  0.9462180844589627  0.9204127989728905  1.0000
  C   C33       1.0  0.20767105303046668  0.5202022649672317  0.6440345323372512  1.0000
  C   C34       1.0  0.2923285923386488  0.9797980704639143  0.1440339889481734  1.0000
  C   C35       1.0  0.792326784169042  0.4797964272464982  0.3559660923745582  1.0000
  C   C36       1.0  0.7076765542872964  0.0202013601436732  0.855966635762563  1.0000
  C   C37       1.0  0.1094556401412206  0.40774262741157935  0.748394632615785  1.0000
  C   C38       1.0  0.3905424157370377  0.0922617006188986  0.2483925933648123  1.0000
  C   C39       1.0  0.8905450676404599  0.5922553161836106  0.2516059920953921  1.0000
  C   C40       1.0  0.6094585579876367  0.9077414628563434  0.7516067248291025  1.0000
  C   C41       1.0  0.09346407819862185  0.3329912450707795  0.6849265757488681  1.0000
  C   C42       1.0  0.4065281822882626  0.16701156312798562  0.18492521456281713  1.0000
  C   C43       1.0  0.906538121862724  0.6670074427605925  0.3150727424439381  1.0000
  C   C44       1.0  0.5934654440187617  0.8329901162560135  0.8150734503728927  1.0000
  C   C45       1.0  0.8826033681714877  0.62764639748238  0.9914827234064704  1.0000
  C   C46       1.0  0.6173927685772186  0.8723535012122383  0.4914874213976574  1.0000
  C   C47       1.0  0.11739588532676491  0.37235154757225086  0.008513328491012802  1.0000
  C   C48       1.0  0.3826052965725567  0.12764966518468412  0.5085132033150188  1.0000
  C   C49       1.0  0.9912698820750098  0.5368319631297994  0.9615385946545559  1.0000
  C   C50       1.0  0.508730663650738  0.9631679150086255  0.4615400994454575  1.0000
  C   C51       1.0  0.008730825709186294  0.4631659804645166  0.038458763760949914  1.0000
  C   C52       1.0  0.49126885578698426  0.0368352499272788  0.538459218748706  1.0000
  N   N1        1.0  0.5017398616835322  0.6777371842168449  0.13948263648871523  1.0000
  N   N2        1.0  0.9982611040213745  0.8222610285797954  0.6394858173618728  1.0000
  N   N3        1.0  0.4982593918132139  0.32226076083831157  0.860515375186175  1.0000
  N   N4        1.0  0.0017412859960117997  0.17774138773845752  0.3605167671273222  1.0000
  N   N5        1.0  0.2917420505706261  0.5430111010088581  0.4439699933689099  1.0000
  N   N6        1.0  0.20826298803904564  0.9569901362771702  0.9439700595814318  1.0000
  N   N7        1.0  0.7082616417688785  0.4569883310592218  0.5560299780829328  1.0000
  N   N8        1.0  0.7917422725625375  0.04301153142183981  0.0560299118706027  1.0000
  N   N9        1.0  0.20276447579904305  0.38255855781701337  0.4316880509253522  1.0000
  N   N10       1.0  0.29723605441370904  0.11744288350389104  0.9316886035204632  1.0000
  N   N11       1.0  0.7972320210886468  0.6174423729489787  0.5683125737871322  1.0000
  N   N12       1.0  0.7027705844919014  0.8825572913398788  0.0683107146719024  1.0000
  N   N13       1.0  0.25287062840772023  0.41265456191525374  0.3508733610761753  1.0000
  N   N14       1.0  0.2471299882678651  0.087346090058908  0.8508732650704902  1.0000
  N   N15       1.0  0.7471171047670923  0.5873456319173658  0.6491266103785023  1.0000
  N   N16       1.0  0.7528751963508001  0.9126540862455316  0.1491260531221172  1.0000
  N   N17       1.0  0.13218550208822683  0.3523541280437854  0.601266942112531  1.0000
  N   N18       1.0  0.36781125009422777  0.14764863058718453  0.10126623935682488  1.0000
  N   N19       1.0  0.8678181902512778  0.6476453040242945  0.39873302933931143  1.0000
  N   N20       1.0  0.6321838304987395  0.8523530473365001  0.8987337320969147  1.0000
  N   N21       1.0  0.16593354471029195  0.501272700688709  0.7279783342902775  1.0000
  N   N22       1.0  0.3340733567963384  0.9987299098699796  0.2279771312829055  1.0000
  N   N23       1.0  0.8340700716447745  0.4987252399853261  0.2720229436795448  1.0000
  N   N24       1.0  0.6659377209520232  0.0012717519867137999  0.7720241466864195  1.0000
  O   O1        1.0  0.9657967732976689  0.689967955318906  0.0418647421626801  1.0000
  O   O2        1.0  0.5341984496067768  0.8100287192009719  0.5418680737372699  1.0000
  O   O3        1.0  0.0342009119369919  0.31002775410532013  0.9581332695120184  1.0000
  O   O4        1.0  0.4657980852731358  0.18997295726204308  0.4581318977162284  1.0000
  O   O5        1.0  0.704107216016709  0.6348214134600243  0.9667497106981102  1.0000
  O   O6        1.0  0.7958918673935999  0.8651784689548807  0.4667556524467287  1.0000
  O   O7        1.0  0.2958950980227898  0.3651795114618891  0.0332456879403225  1.0000
  O   O8        1.0  0.20410757605768742  0.13482320458768274  0.5332475853019504  1.0000
  O   O9        1.0  0.2978644140998057  0.7673245310383905  0.9877468606583975  1.0000
  O   O10       1.0  0.20213473994553516  0.7326767357350973  0.48774755430273603  1.0000
  O   O11       1.0  0.7021349153783591  0.23267490541186933  0.0122537640533125  1.0000
  O   O12       1.0  0.7978661198019882  0.2673241906492408  0.512254376927288  1.0000
