data_image0
_chemical_formula_structural       ZnH28C28N10O6
_chemical_formula_sum              "Zn1 H28 C28 N10 O6"
_cell_length_a       8.673936779827233
_cell_length_b       9.41032015330472
_cell_length_c       9.843766077162712
_cell_angle_alpha    83.05681952220802
_cell_angle_beta     64.7446313901906
_cell_angle_gamma    81.76943673182448

_space_group_name_H-M_alt    "P 1"
_space_group_IT_number       1

loop_
  _space_group_symop_operation_xyz
  'x, y, z'

loop_
  _atom_site_type_symbol
  _atom_site_label
  _atom_site_symmetry_multiplicity
  _atom_site_fract_x
  _atom_site_fract_y
  _atom_site_fract_z
  _atom_site_occupancy
  Zn  Zn1       1.0  0.9999984625748298  0.4999995446435076  9.207095672882806e-07  1.0000
  H   H1        1.0  0.5757568356131768  0.5604320171655955  0.1762606291008453  1.0000
  H   H2        1.0  0.42424249896102845  0.4395630331070707  0.8237392036250167  1.0000
  H   H3        1.0  0.36370279191300625  0.3683967052585331  0.1628172546804904  1.0000
  H   H4        1.0  0.6362941229706819  0.6315972594448169  0.8371846166666541  1.0000
  H   H5        1.0  0.8803549204023182  0.1865329748238409  0.9793895202045134  1.0000
  H   H6        1.0  0.11964415638406221  0.8134642156389801  0.0206112004469787  1.0000
  H   H7        1.0  0.387488757861597  0.0739026516125705  0.2607070758677565  1.0000
  H   H8        1.0  0.6125090440554357  0.9260945400611008  0.7392941234021249  1.0000
  H   H9        1.0  0.8843453654391593  0.1262582345527292  0.7469257375637283  1.0000
  H   H10       1.0  0.1156494981336493  0.8737421996544439  0.2530752085858693  1.0000
  H   H11       1.0  0.7311404798714634  0.27644241126316865  0.7596162182031417  1.0000
  H   H12       1.0  0.26885451374952396  0.7235569349529882  0.24038580933095222  1.0000
  H   H13       1.0  0.7613641465581722  0.13448545301145737  0.6427117974977319  1.0000
  H   H14       1.0  0.23863225121084497  0.8655128159334566  0.3572898159042595  1.0000
  H   H15       1.0  0.7422782046747042  0.7900378608401295  0.1436952308653119  1.0000
  H   H16       1.0  0.2577227762265507  0.2099646955723244  0.8563052270161504  1.0000
  H   H17       1.0  0.0005739243710465041  0.47561986613713697  0.3367540950429628  1.0000
  H   H18       1.0  0.9994211985286086  0.5243784040186271  0.663247996977425  1.0000
  H   H19       1.0  0.8166821945780995  0.6857833263682807  0.5444051772063856  1.0000
  H   H20       1.0  0.1833200611925108  0.3142192288333234  0.4555948020566801  1.0000
  H   H21       1.0  0.445202541579448  0.6365462759669568  0.5978107848200336  1.0000
  H   H22       1.0  0.5547999735180155  0.363454115183238  0.4021903403138224  1.0000
  H   H23       1.0  0.4390908959367223  0.6674993324355113  0.41973752197123537  1.0000
  H   H24       1.0  0.5609122468672323  0.33250644973641397  0.5802617852145743  1.0000
  H   H25       1.0  0.252829364888477  0.714495078770959  0.5839354803400025  1.0000
  H   H26       1.0  0.7471749235061651  0.2855117782505089  0.41606328374112406  1.0000
  H   H27       1.0  0.8067957215816932  0.0403498937978313  0.3522838820153992  1.0000
  H   H28       1.0  0.19320755203995785  0.9596547884524468  0.6477175234531173  1.0000
  C   C1        1.0  0.6069743197281454  0.4531796122116489  0.13632978524099568  1.0000
  C   C2        1.0  0.3930224643378465  0.546815452413341  0.8636699878234494  1.0000
  C   C3        1.0  0.5003618965256108  0.3603820941268125  0.1328935614957203  1.0000
  C   C4        1.0  0.4996334826228478  0.6396140597000437  0.8671056088026172  1.0000
  C   C5        1.0  0.7712534884839498  0.2647834751751432  0.02951052054375217  1.0000
  C   C6        1.0  0.22874584685976626  0.7352115631668923  0.97049032908032  1.0000
  C   C7        1.0  0.5555497579948393  0.11809482224952457  0.02880428418848874  1.0000
  C   C8        1.0  0.44444970816657303  0.8818991161708781  0.9711986637182898  1.0000
  C   C9        1.0  0.43565105211234106  0.0403384487672014  0.1463473836044357  1.0000
  C   C10       1.0  0.5643468798528699  0.9596576549154532  0.8536548970499421  1.0000
  C   C11       1.0  0.6242463767250116  0.0796825657574018  0.8789083278095899  1.0000
  C   C12       1.0  0.3757516837493567  0.9203124737954911  0.12109300043287155  1.0000
  C   C13       1.0  0.7560853654452443  0.1594255453791078  0.7504480428222704  1.0000
  C   C14       1.0  0.24390988673308558  0.8405716487162634  0.2495541136844038  1.0000
  C   C15       1.0  0.7860700537820406  0.7300322719908436  0.22415755097468795  1.0000
  C   C16       1.0  0.21393347608840682  0.26997029393052685  0.7758409327717855  1.0000
  C   C17       1.0  0.918499137209217  0.5717986696613551  0.32920848592723917  1.0000
  C   C18       1.0  0.08150095588918298  0.42820067171140147  0.6707916271332763  1.0000
  C   C19       1.0  0.8263991219772109  0.671800700776828  0.43311574372307143  1.0000
  C   C20       1.0  0.1736033908117136  0.328199726165245  0.5668823307161616  1.0000
  C   C21       1.0  0.6185520798684505  0.8879772337783362  0.4344250223320215  1.0000
  C   C22       1.0  0.38145272410184106  0.1120253428628146  0.5655719658978454  1.0000
  C   C23       1.0  0.44688674296480013  0.8593669522918572  0.5157818241876054  1.0000
  C   C24       1.0  0.5531166591660083  0.14063666582865864  0.4842186288689872  1.0000
  C   C25       1.0  0.3926509126931136  0.7118642971128253  0.5302098567311899  1.0000
  C   C26       1.0  0.6073524894376944  0.2881393210076908  0.46979059632540987  1.0000
  C   C27       1.0  0.6718153410707829  0.024382645872300688  0.41788628521293686  1.0000
  C   C28       1.0  0.3281921426863903  0.9756188403561268  0.5821108271646408  1.0000
  N   N1        1.0  0.8919586640929184  0.6094948834126865  0.20013574919645544  1.0000
  N   N2        1.0  0.10804244531749421  0.3905066088699983  0.7998637562730903  1.0000
  N   N3        1.0  0.7434813070459896  0.771488259242325  0.36457476661351496  1.0000
  N   N4        1.0  0.2565220943153009  0.22851537080881457  0.6354246695448749  1.0000
  N   N5        1.0  0.774974612902568  0.3924612287732998  0.07207826347872985  1.0000
  N   N6        1.0  0.2250220434237775  0.6075348880508287  0.9279234788958346  1.0000
  N   N7        1.0  0.6072897856322328  0.24124117147118798  0.0636377643775602  1.0000
  N   N8        1.0  0.392708402581782  0.7587528158825592  0.936361594554782  1.0000
  N   N9        1.0  0.08057273196017427  0.21754543542038368  0.18625119624120853  1.0000
  N   N10       1.0  0.9194272310900473  0.7824549939433895  0.8137478354348104  1.0000
  O   O1        1.0  0.0442436485508182  0.12149898419751538  0.12960412521422873  1.0000
  O   O2        1.0  0.9557574600900834  0.8785025200157931  0.870394363357107  1.0000
  O   O3        1.0  0.0583894718245119  0.20622015517254508  0.32217270726010117  1.0000
  O   O4        1.0  0.9416103627165529  0.7937813383209897  0.6778272768278338  1.0000
  O   O5        1.0  0.14439861860127928  0.330636779936505  0.10349874514201216  1.0000
  O   O6        1.0  0.8556023615304653  0.6693657884065727  0.8965006958412471  1.0000
