data_image0
_chemical_formula_structural       Al2H24C48O24
_chemical_formula_sum              "Al2 H24 C48 O24"
_cell_length_a       4.023829382514534
_cell_length_b       28.939324443901018
_cell_length_c       28.940265471971532
_cell_angle_alpha    119.99644443554618
_cell_angle_beta     89.99864540879592
_cell_angle_gamma    89.99973384770706

_space_group_name_H-M_alt    "P 1"
_space_group_IT_number       1

loop_
  _space_group_symop_operation_xyz
  'x, y, z'

loop_
  _atom_site_type_symbol
  _atom_site_label
  _atom_site_symmetry_multiplicity
  _atom_site_fract_x
  _atom_site_fract_y
  _atom_site_fract_z
  _atom_site_occupancy
  Al  Al1       1.0  0.9999244448266963  0.5000028327648919  0.49999821706048664  1.0000
  Al  Al2       1.0  1.5375318717799986e-05  0.1666681793452866  0.8333491807066125  1.0000
  H   H1        1.0  0.20257679134527956  0.17769863549770537  0.6978474656184942  1.0000
  H   H2        1.0  0.797256963845335  0.30219076558220326  0.8222984214692488  1.0000
  H   H3        1.0  0.7970867888735215  0.3644728805590276  0.5110234844760839  1.0000
  H   H4        1.0  0.20258880256854891  0.4889742537234127  0.6355219306051582  1.0000
  H   H5        1.0  0.2026342308978215  0.0200923211315002  0.8223107019571285  1.0000
  H   H6        1.0  0.797309000489598  0.02013287073189917  0.6978435513566481  1.0000
  H   H7        1.0  0.7969999550594407  0.6465547255124873  0.6355290374581202  1.0000
  H   H8        1.0  0.2026655677424074  0.646555459803615  0.5110112421854396  1.0000
  H   H9        1.0  0.2024851225489499  0.3021838449641479  0.9798965625542806  1.0000
  H   H10       1.0  0.7973310782164731  0.17771058633160666  0.979913010037322  1.0000
  H   H11       1.0  0.7970623752197029  0.48898494103119106  0.3534419734020844  1.0000
  H   H12       1.0  0.2026059169781718  0.364473641538936  0.3534578303604761  1.0000
  H   H13       1.0  0.7849891818586696  0.37654786478782404  0.754460550495665  1.0000
  H   H14       1.0  0.21438124022185429  0.24550548199129438  0.6234594608528069  1.0000
  H   H15       1.0  0.21465216630279116  0.4211554898497666  0.709894803337292  1.0000
  H   H16       1.0  0.7848878295085983  0.29010168226231764  0.5788416940674637  1.0000
  H   H17       1.0  0.7851475156075124  0.877947305727872  0.6234417236738778  1.0000
  H   H18       1.0  0.21464323041135455  0.8779105167720545  0.7544566723819416  1.0000
  H   H19       1.0  0.21481778440395513  0.7887353567515731  0.5788045667761706  1.0000
  H   H20       1.0  0.7848439597286044  0.7887393070714452  0.7098791106539366  1.0000
  H   H21       1.0  0.7850864457757183  0.2455127565188562  0.12208524161790991  1.0000
  H   H22       1.0  0.21442877802946467  0.3765298379412556  0.12207557322877702  1.0000
  H   H23       1.0  0.21469654895827966  0.29011018261240207  0.21127929733548004  1.0000
  H   H24       1.0  0.7848228363750422  0.4211731337169908  0.21126811954367508  1.0000
  C   C1        1.0  0.4999328289487934  0.459044376605  0.4180825938649094  1.0000
  C   C2        1.0  0.49989075326003973  0.45904805938540966  0.5409606824230124  1.0000
  C   C3        1.0  0.49990106066580625  0.5819206998585428  0.5409494703482096  1.0000
  C   C4        1.0  0.49996954038796554  0.20762402847879008  0.792389786169835  1.0000
  C   C5        1.0  0.5000313030994974  0.08475165102431956  0.7924076452487228  1.0000
  C   C6        1.0  0.500014446425851  0.20763063583529373  0.9152684051346683  1.0000
  C   C7        1.0  0.49990429279376514  0.2373853353705472  0.7626262685857269  1.0000
  C   C8        1.0  0.3340044150976453  0.21543430827639296  0.7136250172819771  1.0000
  C   C9        1.0  0.33884982631223437  0.2427225907043393  0.6854823027450223  1.0000
  C   C10       1.0  0.4997139060380107  0.29292528532213413  0.7070691999796566  1.0000
  C   C11       1.0  0.6606681572504554  0.3145305350466074  0.7572620476495758  1.0000
  C   C12       1.0  0.6656915363312946  0.286397109343099  0.7845616227898873  1.0000
  C   C13       1.0  0.49974796414061  0.32103474171423557  0.6789484416806458  1.0000
  C   C14       1.0  0.49975943510985116  0.34561043871849517  0.6543667413233294  1.0000
  C   C15       1.0  0.49974627344948874  0.37373020759820014  0.6262570933411666  1.0000
  C   C16       1.0  0.6605949311624428  0.35212384983861983  0.5760640261634009  1.0000
  C   C17       1.0  0.665614223954762  0.38026398518698584  0.5487687568721428  1.0000
  C   C18       1.0  0.4998093753101571  0.4292808541291394  0.5707135138658899  1.0000
  C   C19       1.0  0.33400035654455  0.45122971592326877  0.6197272820568145  1.0000
  C   C20       1.0  0.338894424776825  0.4239273684530359  0.6478619075757166  1.0000
  C   C21       1.0  0.49992286347949016  0.02522742408226714  0.762626848283716  1.0000
  C   C22       1.0  0.33416420876938696  0.9981472807062702  0.7845629472305048  1.0000
  C   C23       1.0  0.3389612765825872  0.9427195172151597  0.7572541758906297  1.0000
  C   C24       1.0  0.49992934334005673  0.9141431560899774  0.7070678371253648  1.0000
  C   C25       1.0  0.6607872869280841  0.942759917237012  0.68547797821369  1.0000
  C   C26       1.0  0.665871287186846  0.9981829546841609  0.7136255080941183  1.0000
  C   C27       1.0  0.4999027275251322  0.8579140999331473  0.6789322588739213  1.0000
  C   C28       1.0  0.4998483707014359  0.8087538115392691  0.654343288958188  1.0000
  C   C29       1.0  0.49982920779196155  0.752531136873209  0.6262400272966248  1.0000
  C   C30       1.0  0.6605877814527261  0.7239339463028145  0.6478511430501256  1.0000
  C   C31       1.0  0.665586215055512  0.6685083050648686  0.6197241419877173  1.0000
  C   C32       1.0  0.49984547920308126  0.641436400110905  0.5707097708527231  1.0000
  C   C33       1.0  0.334071835848782  0.6685072839257059  0.548757028411316  1.0000
  C   C34       1.0  0.33899933730299375  0.723935999178849  0.576042003936479  1.0000
  C   C35       1.0  0.49993464554228234  0.23738766201217498  0.9747916640381646  1.0000
  C   C36       1.0  0.3340523173609711  0.2863884277830806  0.0018527147793890484  1.0000
  C   C37       1.0  0.338878645037795  0.31451914934689285  0.05727627529507376  1.0000
  C   C38       1.0  0.4998204468782178  0.29293046165816605  0.0858733976121897  1.0000
  C   C39       1.0  0.6607822002647622  0.24273242721451277  0.0572727747337964  1.0000
  C   C40       1.0  0.6658195959672213  0.21544482712300816  0.0018540010508517318  1.0000
  C   C41       1.0  0.4998552554767172  0.3210349302965056  0.14210063819205496  1.0000
  C   C42       1.0  0.49986831999412107  0.3456258959390226  0.19125733341648757  1.0000
  C   C43       1.0  0.49980869118506627  0.3737408954253709  0.24748233658620222  1.0000
  C   C44       1.0  0.6605976582799612  0.42394293111490106  0.27607348504152185  1.0000
  C   C45       1.0  0.6656426974725278  0.4512365887657808  0.3314979074828699  1.0000
  C   C46       1.0  0.4998585474955703  0.42928410501264846  0.35856327183175557  1.0000
  C   C47       1.0  0.3340741963298298  0.3802752106073227  0.3315051947905445  1.0000
  C   C48       1.0  0.33896498072653  0.352140765355891  0.2760790983635815  1.0000
  O   O1        1.0  0.7349330135063356  0.558480528208932  0.5507952734315467  1.0000
  O   O2        1.0  0.7349279300554414  0.4923331979950731  0.44152026243048687  1.0000
  O   O3        1.0  0.7348935932638768  0.44919231239251184  0.5076710337880357  1.0000
  O   O4        1.0  0.26496124779286123  0.5584793379231598  0.5076518528524474  1.0000
  O   O5        1.0  0.26491670948487916  0.4923423714064156  0.5508098348454311  1.0000
  O   O6        1.0  0.2649534780839176  0.4491933550566998  0.4415292741638766  1.0000
  O   O7        1.0  0.7350417590264513  0.17434118738218268  0.8918356439720229  1.0000
  O   O8        1.0  0.7350934929717639  0.21748505548385563  0.8256742889043096  1.0000
  O   O9        1.0  0.7350789242306419  0.10818965724898534  0.7825572311096991  1.0000
  O   O10       1.0  0.26500369078396346  0.21748047434748946  0.8918213914021038  1.0000
  O   O11       1.0  0.2650307137807175  0.10818619438101239  0.8257008898578704  1.0000
  O   O12       1.0  0.26502306324166364  0.1743262071292834  0.7825391710164382  1.0000
  O   O13       1.0  0.8142481437841979  0.3629021470984244  0.7790843494843642  1.0000
  O   O14       1.0  0.1851621439351447  0.22088491506248423  0.6371118966092197  1.0000
  O   O15       1.0  0.18534243958622204  0.44576615365684796  0.6962373088297654  1.0000
  O   O16       1.0  0.8141278678834494  0.3037532059281887  0.5542284328923301  1.0000
  O   O17       1.0  0.8144511873342493  0.9162192342215789  0.6370982522708034  1.0000
  O   O18       1.0  0.18542963326304124  0.9161715607407572  0.7790757742786525  1.0000
  O   O19       1.0  0.1855199534439222  0.7504743476099022  0.554196727905193  1.0000
  O   O20       1.0  0.8140889923852298  0.7504761771334715  0.6962301272808774  1.0000
  O   O21       1.0  0.8144450335358612  0.22089574595550943  0.08382161085641832  1.0000
  O   O22       1.0  0.18522853060343888  0.3628842979216814  0.08381222384240064  1.0000
  O   O23       1.0  0.18541767636474302  0.3037611586453793  0.2495457446579793  1.0000
  O   O24       1.0  0.8141322431497712  0.4457870731878372  0.24953181506513286  1.0000
