data_image0
_chemical_formula_structural       Zn8H48C80N8O42
_chemical_formula_sum              "Zn8 H48 C80 N8 O42"
_cell_length_a       23.87635421710091
_cell_length_b       23.87899021095932
_cell_length_c       23.876233830768196
_cell_angle_alpha    66.89667494842055
_cell_angle_beta     72.32169512344606
_cell_angle_gamma    107.68872953772448

_space_group_name_H-M_alt    "P 1"
_space_group_IT_number       1

loop_
  _space_group_symop_operation_xyz
  'x, y, z'

loop_
  _atom_site_type_symbol
  _atom_site_label
  _atom_site_symmetry_multiplicity
  _atom_site_fract_x
  _atom_site_fract_y
  _atom_site_fract_z
  _atom_site_occupancy
  Zn  Zn1       1.0  0.055984931463313986  0.9565626507008104  0.4879228298289605  1.0000
  Zn  Zn2       1.0  0.05598434311505679  0.09942045090561888  0.45611199438211975  1.0000
  Zn  Zn3       1.0  0.944016109264524  0.9879242139308673  0.45655391444042703  1.0000
  Zn  Zn4       1.0  0.9440274540962004  0.9561043849915687  0.5994260306742237  1.0000
  Zn  Zn5       1.0  0.9444640590899454  0.543883132977882  0.012082762106636672  1.0000
  Zn  Zn6       1.0  0.05553460292817644  0.5120764718253739  0.04390248321728764  1.0000
  Zn  Zn7       1.0  0.9444644059607368  0.40057631862651244  0.04344866336011689  1.0000
  Zn  Zn8       1.0  0.05551759045702898  0.5434349255836608  0.9005804765532163  1.0000
  H   H1        1.0  0.9190762685119722  0.7099288243243578  0.18048605850642477  1.0000
  H   H2        1.0  0.0808913973488003  0.6804641031641765  0.20999407339731857  1.0000
  H   H3        1.0  0.9275708025881854  0.8303034770181982  0.27955084076068454  1.0000
  H   H4        1.0  0.07237901906761814  0.7795211175928144  0.33036978624048186  1.0000
  H   H5        1.0  0.0809046376964132  0.40040245260498597  0.7091492934641651  1.0000
  H   H6        1.0  0.9190779049269222  0.20914721865462116  0.9004269999784074  1.0000
  H   H7        1.0  0.07238162953041881  0.29285745192483853  0.5972748930747117  1.0000
  H   H8        1.0  0.9275840828963806  0.09728151685498419  0.792862731716966  1.0000
  H   H9        1.0  0.6098630539355199  0.4027234352276068  0.16967025477253367  1.0000
  H   H10       1.0  0.6098535562446585  0.20713396438033263  0.2204526699761261  1.0000
  H   H11       1.0  0.39043853810732526  0.2908536437356019  0.2900393950423776  1.0000
  H   H12       1.0  0.3904447852420175  0.09958588792176921  0.3194820538072848  1.0000
  H   H13       1.0  0.3901425043529726  0.669644863899954  0.9027294014157194  1.0000
  H   H14       1.0  0.39011930594320876  0.7204512543126284  0.707128427451778  1.0000
  H   H15       1.0  0.60957478233135  0.7900204477019414  0.7908625140001181  1.0000
  H   H16       1.0  0.6095577847509188  0.81950807560748  0.5995663108291966  1.0000
  H   H17       1.0  0.9199205266207281  0.8450777830778616  0.7503431146637927  1.0000
  H   H18       1.0  0.9106779131814662  0.8027756172944649  0.8322970575594866  1.0000
  H   H19       1.0  0.09538593817752145  0.6702126186986843  0.7496684706630249  1.0000
  H   H20       1.0  0.13507025971362885  0.7429322390546246  0.6677318963942015  1.0000
  H   H21       1.0  0.9045847177497063  0.6549108350316002  0.9251570003282128  1.0000
  H   H22       1.0  0.8649218529158486  0.6972021580295189  0.8921077095964026  1.0000
  H   H23       1.0  0.08010534352811755  0.8297791000137734  0.5748357458101055  1.0000
  H   H24       1.0  0.08935600988111499  0.7570779883881543  0.6078649228674282  1.0000
  H   H25       1.0  0.9199390577033028  0.07485721525125616  0.3297296101126934  1.0000
  H   H26       1.0  0.9106749070846475  0.10789396548634758  0.2570297982597014  1.0000
  H   H27       1.0  0.09542007853684696  0.4251442431600835  0.15492714845554906  1.0000
  H   H28       1.0  0.1350721539357237  0.3920990768260068  0.1972405630482897  1.0000
  H   H29       1.0  0.9045976223282891  0.2496582921131177  0.1702120955278801  1.0000
  H   H30       1.0  0.8649307998665989  0.16772269691544042  0.24292674658220648  1.0000
  H   H31       1.0  0.08013002031543687  0.2503408594900733  0.34506906085658073  1.0000
  H   H32       1.0  0.08934218150909597  0.3322728536702684  0.30281015321450877  1.0000
  H   H33       1.0  0.9163944007281658  0.6227455827832883  0.09133037903472288  1.0000
  H   H34       1.0  0.08362749503218932  0.591358264383416  0.12275687229038829  1.0000
  H   H35       1.0  0.9241600659804728  0.918314164903236  0.36802693821469046  1.0000
  H   H36       1.0  0.07578077530922658  0.8679972707232508  0.4183809165823364  1.0000
  H   H37       1.0  0.0836294815106625  0.492244379017599  0.7936535333292483  1.0000
  H   H38       1.0  0.9164020304301488  0.29366470320655924  0.9922541599220979  1.0000
  H   H39       1.0  0.07579335517321785  0.20777821392736226  0.5058641039634894  1.0000
  H   H40       1.0  0.9241817988909773  0.00586865164434146  0.7077840379812843  1.0000
  H   H41       1.0  0.7863521113564642  0.494118321162247  0.08167161503916288  1.0000
  H   H42       1.0  0.7863359458778446  0.29218159362766016  0.13198947501421543  1.0000
  H   H43       1.0  0.21409702621151167  0.2063528712846575  0.37726945924313793  1.0000
  H   H44       1.0  0.21409805295267148  0.00775610547419346  0.40861743470372863  1.0000
  H   H45       1.0  0.21365538585856556  0.5816464493830863  0.9941289177343793  1.0000
  H   H46       1.0  0.21364034096826862  0.6319896182055657  0.792178856917957  1.0000
  H   H47       1.0  0.7859114378705526  0.8772369146890923  0.7063741882977866  1.0000
  H   H48       1.0  0.785898469965474  0.908650868393636  0.507741078885232  1.0000
  C   C1        1.0  0.18378118171980157  0.09189507015703664  0.40809418965383787  1.0000
  C   C2        1.0  4.652622735066613e-06  0.1396098983435792  0.3604039285580285  1.0000
  C   C3        1.0  0.9999707045346041  0.9082285737136362  0.40827644331644564  1.0000
  C   C4        1.0  0.8162224766005366  0.9080976977435355  0.5918970216547381  1.0000
  C   C5        1.0  9.49357869445404e-06  0.8604025359965275  0.6396047363040938  1.0000
  C   C6        1.0  0.9999826233954819  0.09175261828758591  0.5917518489807705  1.0000
  C   C7        1.0  2.6419915858979355e-07  0.5918736498996182  0.09189914439831885  1.0000
  C   C8        1.0  0.999992513976025  0.36038928994055647  0.13961036204097607  1.0000
  C   C9        1.0  0.8164879543937287  0.4082236735235581  0.09176642649089943  1.0000
  C   C10       1.0  1.860699527593253e-05  0.40810971905126775  0.9081132565369645  1.0000
  C   C11       1.0  0.9999998608620398  0.63959616684491  0.8603941652148923  1.0000
  C   C12       1.0  0.18350114619745023  0.5917555912048584  0.9082328388436952  1.0000
  C   C13       1.0  8.284464321540973e-06  0.8046082395173498  0.695397082824755  1.0000
  C   C14       1.0  0.999997309608055  0.6953872243237598  0.8046025584675578  1.0000
  C   C15       1.0  0.9575386639786319  0.7780540135339322  0.7667902450928707  1.0000
  C   C16       1.0  0.04484241919544722  0.7243134410024153  0.7332090127819131  1.0000
  C   C17       1.0  0.9551546830208224  0.7219380973298825  0.8205198363537748  1.0000
  C   C18       1.0  0.042475580937491264  0.7756823123479818  0.6794773633640863  1.0000
  C   C19       1.0  2.8707876395777182e-06  0.19539912040721666  0.30460946114458665  1.0000
  C   C20       1.0  0.9999956152259983  0.3046013804536187  0.19540098090574518  1.0000
  C   C21       1.0  0.9575356568686288  0.17948398715606106  0.27567407139657973  1.0000
  C   C22       1.0  0.044843340203648524  0.320513665512486  0.22195749074298027  1.0000
  C   C23       1.0  0.9551533502997032  0.23320944446274436  0.2243166144828024  1.0000
  C   C24       1.0  0.042475228042483965  0.26678827744519396  0.27806479668407047  1.0000
  C   C25       1.0  0.999998542521183  0.6282865850362638  0.12830844392971863  1.0000
  C   C26       1.0  0.954224823356455  0.6553540523893348  0.13840509533378043  1.0000
  C   C27       1.0  0.9544431403843421  0.6901471377126072  0.17347097377674467  1.0000
  C   C28       1.0  0.9999823808717276  0.6992298481333703  0.19927997784179047  1.0000
  C   C29       1.0  0.04552611332702121  0.6734370725328062  0.19020260991579369  1.0000
  C   C30       1.0  0.04577059578002001  0.6383959240331051  0.15538827220569132  1.0000
  C   C31       1.0  0.9999727447933037  0.7347345154907212  0.23480146945961913  1.0000
  C   C32       1.0  0.999966605893576  0.7653535533109161  0.26542665031743706  1.0000
  C   C33       1.0  0.9999668850474916  0.8008699847217924  0.30093705111702485  1.0000
  C   C34       1.0  0.9591448097643961  0.8326071382179518  0.3040904614941907  1.0000
  C   C35       1.0  0.9587779020071777  0.867482970254869  0.3390526614172559  1.0000
  C   C36       1.0  0.9999631248303937  0.8718131191067611  0.3718797493323083  1.0000
  C   C37       1.0  0.04115747103729438  0.8390004827237688  0.36755657912439  1.0000
  C   C38       1.0  0.04079590550961834  0.8040405672117358  0.332678554528414  1.0000
  C   C39       1.0  1.2346658458121352e-05  0.37169556662085756  0.8717068545364415  1.0000
  C   C40       1.0  0.04578158177036316  0.40735638065990537  0.7988651224254683  1.0000
  C   C41       1.0  0.045547325949044565  0.37206624779744146  0.7643005937647944  1.0000
  C   C42       1.0  0.9999952823295927  0.3007404284920341  0.800753414384616  1.0000
  C   C43       1.0  0.9544580577809683  0.26428486905752635  0.872091952269898  1.0000
  C   C44       1.0  0.9542356798003127  0.29886174876488514  0.9073714754856822  1.0000
  C   C45       1.0  0.9999881650164113  0.2652280744839715  0.765240965886939  1.0000
  C   C46       1.0  0.9999870284229715  0.2346102912079573  0.7346155029775545  1.0000
  C   C47       1.0  0.9999802631141534  0.199100361204344  0.6990986423341499  1.0000
  C   C48       1.0  0.040800860793396544  0.23675744246807542  0.6265397899470102  1.0000
  C   C49       1.0  0.04116550477971966  0.20216170392863825  0.5912966373529829  1.0000
  C   C50       1.0  0.9999725013278964  0.12815819096270784  0.6281598923347788  1.0000
  C   C51       1.0  0.95878569574937  0.09130349954354917  0.7021603180361852  1.0000
  C   C52       1.0  0.9591522978800312  0.1265445698306492  0.7367576921698744  1.0000
  C   C53       1.0  0.7436749756448933  0.3718232992913499  0.12816848710194512  1.0000
  C   C54       1.0  0.7065358562481378  0.40869031577724246  0.13249302915267697  1.0000
  C   C55       1.0  0.6366981627279384  0.3734555971554484  0.16736036151196038  1.0000
  C   C56       1.0  0.6017970066222631  0.3008989191884126  0.19909052418453402  1.0000
  C   C57       1.0  0.6366924158775902  0.26323371265504386  0.19593726860254185  1.0000
  C   C58       1.0  0.7065310178371077  0.2978223594889256  0.1609790567424911  1.0000
  C   C59       1.0  0.5307731086307825  0.2653916549575398  0.23458580766170206  1.0000
  C   C60       1.0  0.469530838690467  0.2347654281405198  0.2652123031382985  1.0000
  C   C61       1.0  0.39850740210258084  0.1992529306890701  0.3007216543673294  1.0000
  C   C62       1.0  0.36363026974525076  0.23571252995911607  0.3098070637674937  1.0000
  C   C63       1.0  0.2937739451226091  0.20114021541333918  0.3446167834044617  1.0000
  C   C64       1.0  0.2566001861191722  0.12830456741825458  0.37167958976206716  1.0000
  C   C65       1.0  0.2937787501373847  0.09264133518980337  0.3615652806982582  1.0000
  C   C66       1.0  0.36363282825450927  0.12792589087999318  0.32650330866393074  1.0000
  C   C67       1.0  0.25631502603723516  0.6281511439891003  0.8718290539768179  1.0000
  C   C68       1.0  0.29346813117316367  0.6324720121921742  0.9086940932305225  1.0000
  C   C69       1.0  0.3633035458691011  0.6673408745500138  0.8734580921731593  1.0000
  C   C70       1.0  0.3981976125742148  0.6990749251026853  0.8008974775271157  1.0000
  C   C71       1.0  0.3632901892268448  0.6959250832496406  0.7632342839467017  1.0000
  C   C72       1.0  0.2934526504908843  0.6609676858703607  0.7978256301615974  1.0000
  C   C73       1.0  0.4692266994767847  0.7345790242556659  0.7653826029529044  1.0000
  C   C74       1.0  0.5304628783869275  0.7652028181536465  0.7347664499323657  1.0000
  C   C75       1.0  0.6014936377199119  0.8007210696182979  0.6992521948935321  1.0000
  C   C76       1.0  0.6363770914905017  0.8098003439376099  0.7357139122340471  1.0000
  C   C77       1.0  0.7062330437497337  0.8446108517979951  0.7011463724302872  1.0000
  C   C78       1.0  0.743403999727569  0.8716866341952778  0.628303702213593  1.0000
  C   C79       1.0  0.7062223683691825  0.8615855660753977  0.5926320167688818  1.0000
  C   C80       1.0  0.6363672126787775  0.8265238983594683  0.6279126748272434  1.0000
  N   N1        1.0  0.9143958163431093  0.8019085068177387  0.7890525222884224  1.0000
  N   N2        1.0  0.09094036385953058  0.7034092899738624  0.7109528685015789  1.0000
  N   N3        1.0  0.9090381647110063  0.6980761530626719  0.8875191828578938  1.0000
  N   N4        1.0  0.08563724408070766  0.7965936385459002  0.6124731758108767  1.0000
  N   N5        1.0  0.9143933232460739  0.11248699393576081  0.29655555526827737  1.0000
  N   N6        1.0  0.09095793999705379  0.38751230381901536  0.1981038678815353  1.0000
  N   N7        1.0  0.909051956576846  0.21095278585782024  0.2034100996463196  1.0000
  N   N8        1.0  0.08563544774559513  0.28904624839026377  0.3019115065296348  1.0000
  O   O1        1.0  4.56657639350043e-06  5.635576521000352e-06  0.5000038895648943  1.0000
  O   O2        1.0  0.1521715811468525  0.025991516324872108  0.43197954853733495  1.0000
  O   O3        1.0  0.040729296474388714  0.15571323340137158  0.38370844005521587  1.0000
  O   O4        1.0  0.9609603230948447  0.9359406403876985  0.4121583948831784  1.0000
  O   O5        1.0  0.15217291517534898  0.12618756583880494  0.41583180525267954  1.0000
  O   O6        1.0  0.038984408531121006  0.9121234958820279  0.4359887052965875  1.0000
  O   O7        1.0  0.9592807706293627  0.07559080673436112  0.3850213972757643  1.0000
  O   O8        1.0  0.847828456773065  0.932008528981967  0.5259850571453768  1.0000
  O   O9        1.0  0.9592881082885042  0.8837029930992627  0.6557114892933884  1.0000
  O   O10       1.0  0.8478328687136522  0.91580062539937  0.6262063419532781  1.0000
  O   O11       1.0  0.040727550340605406  0.8850245406139974  0.5755818827602399  1.0000
  O   O12       1.0  0.03899901194655088  0.12686350492357687  0.5250405815319611  1.0000
  O   O13       1.0  0.9609729119910143  0.02503652341562202  0.6268704123372191  1.0000
  O   O14       1.0  0.9999947327366526  0.4999920322962335  2.815022526337256e-06  1.0000
  O   O15       1.0  0.9579885374002682  0.5841654718721966  0.067991938649307  1.0000
  O   O16       1.0  0.039396884355007024  0.4244090045576598  0.11631053991227701  1.0000
  O   O17       1.0  0.8480851386486774  0.37310640917969795  0.08787563820119018  1.0000
  O   O18       1.0  0.04201759623857263  0.5679806092584981  0.08419082477564639  1.0000
  O   O19       1.0  0.848090781529329  0.47494042669791964  0.06406054114495435  1.0000
  O   O20       1.0  0.9605810322749163  0.34428409342174143  0.1149933328723947  1.0000
  O   O21       1.0  0.9579883058319821  0.37382029925503696  0.9740150454087982  1.0000
  O   O22       1.0  0.03940147297857516  0.6149761993420028  0.8442949082570907  1.0000
  O   O23       1.0  0.04203822980976919  0.4740118033420657  0.8738145925615017  1.0000
  O   O24       1.0  0.9605970533877934  0.6162979027161838  0.92441655147816  1.0000
  O   O25       1.0  0.15190575700921016  0.5640367028206014  0.974957352174741  1.0000
  O   O26       1.0  0.15189841589256045  0.5878841693205245  0.8731091868344338  1.0000
  O   O27       1.0  0.9094797362729564  0.6483731522313645  0.11477670277793106  1.0000
  O   O28       1.0  0.0905303566616735  0.6147933669045499  0.14839624224307374  1.0000
  O   O29       1.0  0.918531611813435  0.8967896380319257  0.3405000087330521  1.0000
  O   O30       1.0  0.08140456343268429  0.8404630191477125  0.39686958435120107  1.0000
  O   O31       1.0  0.09053420867360967  0.47571386742204413  0.7611097954030656  1.0000
  O   O32       1.0  0.9094900401265207  0.26111195468163106  0.9757332102404207  1.0000
  O   O33       1.0  0.08141032224835949  0.24094151152247176  0.521746932603435  1.0000
  O   O34       1.0  0.9185458151150598  0.02175449889192966  0.7409449955330063  1.0000
  O   O35       1.0  0.7373079703190014  0.4782392015629851  0.10318179706139571  1.0000
  O   O36       1.0  0.7372885558821096  0.2590313626429436  0.1595244515139882  1.0000
  O   O37       1.0  0.26317225813411227  0.23889577822531283  0.35162217366480775  1.0000
  O   O38       1.0  0.2631711962241353  0.024281121250083984  0.3851787705217831  1.0000
  O   O39       1.0  0.26270102563630343  0.6031561332933248  0.9782502907166022  1.0000
  O   O40       1.0  0.26268797015929096  0.659516774567322  0.7590306275098513  1.0000
  O   O41       1.0  0.7368377641026381  0.8516022947859693  0.7389108411868152  1.0000
  O   O42       1.0  0.7368246694335311  0.8852127010455743  0.5242643765629966  1.0000
