data_image0
_chemical_formula_structural       Zn2H16C36S4N6O20
_chemical_formula_sum              "Zn2 H16 C36 S4 N6 O20"
_cell_length_a       9.89279829381274
_cell_length_b       10.862806390074327
_cell_length_c       19.543031333847203
_cell_angle_alpha    96.80335042659382
_cell_angle_beta     90.13654181828734
_cell_angle_gamma    89.88236352763192

_space_group_name_H-M_alt    "P 1"
_space_group_IT_number       1

loop_
  _space_group_symop_operation_xyz
  'x, y, z'

loop_
  _atom_site_type_symbol
  _atom_site_label
  _atom_site_symmetry_multiplicity
  _atom_site_fract_x
  _atom_site_fract_y
  _atom_site_fract_z
  _atom_site_occupancy
  Zn  Zn1       1.0  0.35249458023034924  0.5004246908875558  0.5000242675718027  1.0000
  Zn  Zn2       1.0  0.6342964780949244  0.4994971210655664  0.5001538931774051  1.0000
  H   H1        1.0  0.6973364026687037  0.4954064378534682  0.2887301665456192  1.0000
  H   H2        1.0  0.2645959154508404  0.4898894701097802  0.7202555492291935  1.0000
  H   H3        1.0  0.6989790024867588  0.4811534275197431  0.7105165863480353  1.0000
  H   H4        1.0  0.2641241803284586  0.525838215244413  0.2801516630121769  1.0000
  H   H5        1.0  0.7095467909504691  0.496392853930729  0.1618722010907661  1.0000
  H   H6        1.0  0.2753306011798102  0.49276848554520575  0.8472481754252287  1.0000
  H   H7        1.0  0.71060260021072  0.482738708660186  0.8377538473045477  1.0000
  H   H8        1.0  0.2750328587721286  0.5233510864547526  0.1533629287354898  1.0000
  H   H9        1.0  0.3387550903266927  0.6430857602433804  0.0689360371299372  1.0000
  H   H10       1.0  0.6598537134604568  0.3626149851812245  0.9312557039436485  1.0000
  H   H11       1.0  0.339001629916055  0.6331108747321252  0.9421571310412631  1.0000
  H   H12       1.0  0.6590763088769337  0.3719319449597336  0.0580918396828665  1.0000
  H   H13       1.0  0.9513771446882515  0.8363208505470752  0.49326365101405406  1.0000
  H   H14       1.0  0.3102622276225588  0.3172777432482761  0.5980588914011449  1.0000
  H   H15       1.0  0.9511422144867295  0.1623162967984513  0.5063185142953942  1.0000
  H   H16       1.0  0.3102794850083583  0.6833291327135242  0.4018755526852686  1.0000
  C   C1        1.0  0.5034740777724879  0.1299763595218906  0.5108478523315867  1.0000
  C   C2        1.0  0.5034496083374336  0.8698077940860998  0.4892448086352275  1.0000
  C   C3        1.0  0.4075797038337043  0.5795733033195775  0.03883796874190891  1.0000
  C   C4        1.0  0.5904723011187585  0.4256402365683201  0.9613657875710048  1.0000
  C   C5        1.0  0.40764952544526517  0.5740053775443883  0.9674734151632763  1.0000
  C   C6        1.0  0.5901370814018136  0.4309917776413242  0.0328904040198665  1.0000
  C   C7        1.0  0.49814773259602413  0.4960374459476925  0.9273070297020781  1.0000
  C   C8        1.0  0.49779136256123024  0.5071761063016069  0.0729356136531507  1.0000
  C   C9        1.0  0.5072841809452555  0.7348233292286608  0.49911948300002973  1.0000
  C   C10       1.0  0.5072816661676852  0.2649447803375651  0.5010061796964038  1.0000
  C   C11       1.0  0.4761487137939753  0.4906911269404333  0.6324354102246093  1.0000
  C   C12       1.0  0.4752091256580329  0.5077704537518031  0.36763393815017764  1.0000
  C   C13       1.0  0.626337699708202  0.9356745555479548  0.4902724586577705  1.0000
  C   C14       1.0  0.3803252306607376  0.06508428072574193  0.5071900335331067  1.0000
  C   C15       1.0  0.6263930687804589  0.06372047977791341  0.5098292322165605  1.0000
  C   C16       1.0  0.38028462376594513  0.9351223169371962  0.4928532813059477  1.0000
  C   C17       1.0  0.6055355643516904  0.5014248600819684  0.258507793501053  1.0000
  C   C18       1.0  0.3618986943023828  0.4881555506079066  0.7462424201084161  1.0000
  C   C19       1.0  0.6068776810704788  0.48318897947682876  0.7409894038744085  1.0000
  C   C20       1.0  0.3614652337358777  0.5206542063942905  0.2540942753756923  1.0000
  C   C21       1.0  0.6116222947071464  0.5011429361491437  0.18756813814690082  1.0000
  C   C22       1.0  0.3683771568622163  0.4908977839304001  0.8173547755284787  1.0000
  C   C23       1.0  0.612722461591602  0.4833632216498884  0.8119887146401227  1.0000
  C   C24       1.0  0.36804929017876015  0.5197608657068927  0.1830905959893556  1.0000
  C   C25       1.0  0.4929635381919439  0.5097535775439541  0.14847790745600523  1.0000
  C   C26       1.0  0.49365966123284716  0.4893273699860927  0.8515409283947193  1.0000
  C   C27       1.0  0.9215449770505516  0.43014780785600243  0.45072329147792806  1.0000
  C   C28       1.0  0.0651081695995757  0.5679402742413302  0.5501945681002454  1.0000
  C   C29       1.0  0.9213897199147852  0.5695188743277413  0.5494312198834308  1.0000
  C   C30       1.0  0.0652044810656704  0.4328493870279289  0.4497070760265842  1.0000
  C   C31       1.0  0.48026583233420433  0.5108437383312392  0.2924531499705552  1.0000
  C   C32       1.0  0.48130633376281634  0.4861343568689662  0.7075295763565067  1.0000
  C   C33       1.0  0.8530408362585644  0.3523167076123386  0.397964326901267  1.0000
  C   C34       1.0  0.13411296867612776  0.6386088835257979  0.6056474524369406  1.0000
  C   C35       1.0  0.8526295274486628  0.6467188863143889  0.6023191926684532  1.0000
  C   C36       1.0  0.1342620522969327  0.3629090936531584  0.3940752841498778  1.0000
  S   S1        1.0  0.7712322591983208  0.8745469523732582  0.43795287246483383  1.0000
  S   S2        1.0  0.22656569428569637  0.138424058766212  0.5467598992104641  1.0000
  S   S3        1.0  0.7719915046473531  0.12436199853059551  0.5619314891406688  1.0000
  S   S4        1.0  0.22631164479953714  0.862401354127904  0.45309926310758897  1.0000
  N   N1        1.0  0.13481986761696874  0.5006296575530129  0.4999091668550689  1.0000
  N   N2        1.0  0.8517069744702467  0.4995455085972651  0.5001334041588024  1.0000
  N   N3        1.0  0.8067049559538048  0.2868356570665895  0.3522879241806082  1.0000
  N   N4        1.0  0.18090221700574458  0.696691769618141  0.6539652912418461  1.0000
  N   N5        1.0  0.8058726523884018  0.7117360844965503  0.6480274505086785  1.0000
  N   N6        1.0  0.1811781764883307  0.3054683034507661  0.3456340620812668  1.0000
  O   O1        1.0  0.39708809897422265  0.687396346137156  0.5166983515028818  1.0000
  O   O2        1.0  0.6221201212103082  0.31607656389970634  0.5047774759675718  1.0000
  O   O3        1.0  0.3969873475345764  0.3130962727499949  0.4835906045849683  1.0000
  O   O4        1.0  0.621925085467801  0.6829168966320367  0.49526509530500823  1.0000
  O   O5        1.0  0.3621288979575326  0.46333460584173747  0.6003750893699903  1.0000
  O   O6        1.0  0.5799948233328749  0.4757419152850134  0.39836090921296835  1.0000
  O   O7        1.0  0.36187688915605787  0.5376177479111632  0.3996722548278768  1.0000
  O   O8        1.0  0.5812845219376683  0.5217830075047658  0.6020339983197048  1.0000
  O   O9        1.0  0.711431279010263  0.7954193175284773  0.38217992989896743  1.0000
  O   O10       1.0  0.8451448197418898  0.9830739090280431  0.4244093460169509  1.0000
  O   O11       1.0  0.8667711411140289  0.7910792202490526  0.4790847758131491  1.0000
  O   O12       1.0  0.14193733209379636  0.20585679245687774  0.5033601521810667  1.0000
  O   O13       1.0  0.1672826737216653  0.039475376855577324  0.5788738672444822  1.0000
  O   O14       1.0  0.2890361240757358  0.2290637978153143  0.6071685293820366  1.0000
  O   O15       1.0  0.7129706274374783  0.2035376820204107  0.617882828077768  1.0000
  O   O16       1.0  0.8462890900845323  0.015591917397436804  0.5752623353763511  1.0000
  O   O17       1.0  0.8667444276106196  0.2077205016312362  0.5207251221866045  1.0000
  O   O18       1.0  0.14182574328758343  0.7952382438109423  0.4963850862252812  1.0000
  O   O19       1.0  0.16693675010533576  0.9615925615754576  0.4209339329530409  1.0000
  O   O20       1.0  0.28855094991901353  0.7715977060597085  0.3927618375976465  1.0000
