data_image0
_chemical_formula_structural       Cd6H48C56Br12N24
_chemical_formula_sum              "Cd6 H48 C56 Br12 N24"
_cell_length_a       8.256727039
_cell_length_b       9.943982519319759
_cell_length_c       24.658
_cell_angle_alpha    100.92180065587178
_cell_angle_beta     90.0
_cell_angle_gamma    114.52936545778152

_space_group_name_H-M_alt    "P 1"
_space_group_IT_number       1

loop_
  _space_group_symop_operation_xyz
  'x, y, z'

loop_
  _atom_site_type_symbol
  _atom_site_label
  _atom_site_symmetry_multiplicity
  _atom_site_fract_x
  _atom_site_fract_y
  _atom_site_fract_z
  _atom_site_occupancy
  Cd  Cd1       1.0  0.9904771539844077  0.9825765395707009  0.5809651982701283  1.0000
  Cd  Cd2       1.0  0.0079955117095878  0.0173911952865282  0.9190399201493165  1.0000
  Cd  Cd3       1.0  0.0095197606112762  0.0174239704791006  0.4190351245854628  1.0000
  Cd  Cd4       1.0  0.9920044712008292  0.9826081845842224  0.08095869415957678  1.0000
  Cd  Cd5       1.0  0.0033580556836839  0.0001469232770503  0.7499662103482477  1.0000
  Cd  Cd6       1.0  0.9966444304552269  0.9998501962355918  0.2500338534420052  1.0000
  H   H1        1.0  0.2872177429956366  0.3219620184326004  0.5652076905589425  1.0000
  H   H2        1.0  0.9655170225995561  0.6778949588773173  0.9347666599252449  1.0000
  H   H3        1.0  0.7127833700872445  0.678039621796259  0.4347923131038627  1.0000
  H   H4        1.0  0.034485866703214206  0.3221078115305929  0.06523424118846317  1.0000
  H   H5        1.0  0.08940463310451459  0.4455640506987422  0.5507460856496209  1.0000
  H   H6        1.0  0.6441120453803676  0.5543166603713203  0.9492657665067056  1.0000
  H   H7        1.0  0.9105971260257917  0.5544364593510664  0.4492538316580762  1.0000
  H   H8        1.0  0.3558921360172462  0.4456838496784883  0.05073496189677229  1.0000
  H   H9        1.0  0.2104577997773163  0.718616440380373  0.5508447038341515  1.0000
  H   H10       1.0  0.49210172918008505  0.2813479039396967  0.949196249282629  1.0000
  H   H11       1.0  0.7895427482193327  0.2813840696694356  0.4491556190214396  1.0000
  H   H12       1.0  0.5079023712563426  0.7186548664682135  0.0508038407352913  1.0000
  H   H13       1.0  0.5393247581143541  0.8777784264088879  0.5588353534063231  1.0000
  H   H14       1.0  0.6616609282542854  0.122105675198334  0.9412700338312376  1.0000
  H   H15       1.0  0.4606763549685268  0.1222232138199786  0.44116546135226997  1.0000
  H   H16       1.0  0.3383402657897818  0.8778937046724167  0.0587289860255567  1.0000
  H   H17       1.0  0.02839238369174517  0.3298924848561455  0.6682517983287467  1.0000
  H   H18       1.0  0.6985416449421749  0.6705838305754882  0.831744325239647  1.0000
  H   H19       1.0  0.9716064690462006  0.6701046346564965  0.33174704881781736  1.0000
  H   H20       1.0  0.3014569649122123  0.32942007001148  0.16825828442075869  1.0000
  H   H21       1.0  0.3572950391662458  0.4439478946511883  0.687942331799448  1.0000
  H   H22       1.0  0.9138955980582183  0.5570415220710743  0.8121051634268426  1.0000
  H   H23       1.0  0.6426997770068752  0.5560435739661855  0.31205689466735  1.0000
  H   H24       1.0  0.08610599914970861  0.4429635086949517  0.18789631594498246  1.0000
  H   H25       1.0  0.5330101865145167  0.7215176100125902  0.7179270311509355  1.0000
  H   H26       1.0  0.812619631560338  0.279475197246839  0.7821414060833476  1.0000
  H   H27       1.0  0.4669894741932338  0.2784738586047837  0.2820730064116503  1.0000
  H   H28       1.0  0.1873807545139385  0.720529833519187  0.2178588566447957  1.0000
  H   H29       1.0  0.3835604556646999  0.8944429165635412  0.7329981882922494  1.0000
  H   H30       1.0  0.4904524165208528  0.1062029257262296  0.7669752003282326  1.0000
  H   H31       1.0  0.6164433225690615  0.1055519425909921  0.2670017027877805  1.0000
  H   H32       1.0  0.5095503918207243  0.8938021050397965  0.2330238457562288  1.0000
  H   H33       1.0  0.7983163281491272  0.3617556229321295  0.5756515308941131  1.0000
  H   H34       1.0  0.43660992653566677  0.638118307063607  0.9242872100582956  1.0000
  H   H35       1.0  0.20168244362763227  0.6382437569386283  0.42434789451056787  1.0000
  H   H36       1.0  0.5633898944523708  0.3618855935233611  0.07571377741052739  1.0000
  H   H37       1.0  0.5622682278340818  0.2743125393270986  0.5751977429701398  1.0000
  H   H38       1.0  0.28796387260715045  0.725509402432138  0.9247893413255781  1.0000
  H   H39       1.0  0.4377311090289168  0.7256879707227029  0.4248013632417623  1.0000
  H   H40       1.0  0.7120330419885336  0.2744911076176706  0.0752117926258009  1.0000
  H   H41       1.0  0.5758218199254869  0.3981270452554355  0.6737412608096278  1.0000
  H   H42       1.0  0.17772426310688158  0.6017627072470546  0.8262007168538333  1.0000
  H   H43       1.0  0.42417759789869075  0.6018712044362573  0.3262584837878464  1.0000
  H   H44       1.0  0.8222744277086917  0.3982389329818048  0.17380009790475975  1.0000
  H   H45       1.0  0.7084356587382742  0.2952615382763568  0.6670636496573578  1.0000
  H   H46       1.0  0.4131697321742323  0.7047457528477779  0.8329347580415387  1.0000
  H   H47       1.0  0.2915643241721426  0.7047378415943939  0.3329349646515354  1.0000
  H   H48       1.0  0.5868283125939155  0.29525701756013945  0.16706614307217646  1.0000
  C   C1        1.0  0.597561611830983  0.6871341726456706  0.5669617848404442  1.0000
  C   C2        1.0  0.910668255551073  0.312745408245334  0.9331594788924773  1.0000
  C   C3        1.0  0.402439501251898  0.3128674675831888  0.43303862437025487  1.0000
  C   C4        1.0  0.08933293849299419  0.6872539716254167  0.0668411631558996  1.0000
  C   C5        1.0  0.5263312871036376  0.5329415839186211  0.5699465885556236  1.0000
  C   C6        1.0  0.9935811804442166  0.46688713891494166  0.9301172568750713  1.0000
  C   C7        1.0  0.4736698259792504  0.46706005631024544  0.43005341510718137  1.0000
  C   C8        1.0  0.006423566039629185  0.5331145013139178  0.0698839634314226  1.0000
  C   C9        1.0  0.3424109336953904  0.4414422876879556  0.5637971960848489  1.0000
  C   C10       1.0  0.9012613186364788  0.5584542458888606  0.9362337091504429  1.0000
  C   C11       1.0  0.6575884031676011  0.558558222361853  0.4362035323186361  1.0000
  C   C12       1.0  0.09874278179994181  0.4415485245190496  0.0637671919632723  1.0000
  C   C13       1.0  0.23352651020277904  0.5126673018647381  0.5562423826788603  1.0000
  C   C14       1.0  0.7211853982210457  0.4872518352931579  0.9438113381492244  1.0000
  C   C15       1.0  0.7664752489275202  0.4873332081850635  0.44375794017672376  1.0000
  C   C16       1.0  0.27881934826280735  0.5127498049357015  0.05618907106147468  1.0000
  C   C17       1.0  0.3031714685417768  0.6684489223420442  0.555446071873611  1.0000
  C   C18       1.0  0.6350353516683711  0.3314803864273443  0.9446331645721029  1.0000
  C   C19       1.0  0.6968308556747616  0.3315527178868152  0.44455433733709526  1.0000
  C   C20       1.0  0.3649676185955926  0.6685201236224643  0.05536715828348799  1.0000
  C   C21       1.0  0.48557321962832833  0.7583038080488009  0.5601343484369039  1.0000
  C   C22       1.0  0.7275024060519115  0.24158594445368917  0.9399921535188795  1.0000
  C   C23       1.0  0.5144273283683205  0.2416967020010077  0.4398659744186871  1.0000
  C   C24       1.0  0.2725012102594704  0.7584134354170615  0.0600076774337026  1.0000
  C   C25       1.0  0.11907523163210948  0.7089319360646513  0.7090912626857387  1.0000
  C   C26       1.0  0.41089085495766403  0.2913771128669609  0.7908937025175999  1.0000
  C   C27       1.0  0.8809291116878768  0.2910640532689399  0.2909083092015052  1.0000
  C   C28       1.0  0.5891125184701522  0.708629048078123  0.20910624101775707  1.0000
  C   C29       1.0  0.023065110319890884  0.5514256623505887  0.689546127327624  1.0000
  C   C30       1.0  0.47207111693221293  0.44885174156750207  0.8104279034267705  1.0000
  C   C31       1.0  0.9769349535517123  0.4485714571620534  0.31045353091473515  1.0000
  C   C32       1.0  0.5279293501032498  0.5511510288404153  0.18957421433062646  1.0000
  C   C33       1.0  0.10444987603572291  0.4516523252638933  0.6818159525519576  1.0000
  C   C34       1.0  0.6531393961482479  0.5488511144650516  0.818180621347551  1.0000
  C   C35       1.0  0.8955472814435196  0.5483414037115892  0.3181830410771624  1.0000
  C   C36       1.0  0.3468592946673255  0.4511505257638078  0.1818218156026248  1.0000
  C   C37       1.0  0.2884283336090192  0.5176231370175515  0.6932026866381163  1.0000
  C   C38       1.0  0.77143185303931  0.4831730190864363  0.8068280141244769  1.0000
  C   C39       1.0  0.7115718112237701  0.48237172213698193  0.30679639334612563  1.0000
  C   C40       1.0  0.22856974416862388  0.5168320116795897  0.1931738707952491  1.0000
  C   C41       1.0  0.38805251108957606  0.6756187782620984  0.7107396301764836  1.0000
  C   C42       1.0  0.7134194785604606  0.3252203246459544  0.7893081407088117  1.0000
  C   C43       1.0  0.6119494909242889  0.32437495071338424  0.2892609856442192  1.0000
  C   C44       1.0  0.2865815535612342  0.6747835759410208  0.21069325230789804  1.0000
  C   C45       1.0  0.30572583250979324  0.7734549884498421  0.7192874018279483  1.0000
  C   C46       1.0  0.5333319494465342  0.2271558182892477  0.7807262978609372  1.0000
  C   C47       1.0  0.6942768155514969  0.22653761034658262  0.2807123165418517  1.0000
  C   C48       1.0  0.4666715049424681  0.7728480822977204  0.219273472964197  1.0000
  C   C49       1.0  0.6829774364725623  0.3756082275998551  0.5932170014855912  1.0000
  C   C50       1.0  0.3073884771133137  0.6242419686357366  0.9067369590210603  1.0000
  C   C51       1.0  0.3170237575715049  0.6243911522708956  0.40678242391909686  1.0000
  C   C52       1.0  0.6926107787884915  0.3757608017721736  0.09326353654475382  1.0000
  C   C53       1.0  0.6957614386002433  0.3930932277478831  0.6565422138557722  1.0000
  C   C54       1.0  0.3026961316878172  0.606839471558665  0.8434204838614576  1.0000
  C   C55       1.0  0.3042379792239344  0.6069050219438097  0.343457936289596  1.0000
  C   C56       1.0  0.6973019130803308  0.3931632988492453  0.1565812283480383  1.0000
  Br  Br1       1.0  0.8030345705050479  0.0426145314188915  0.6752412628158025  1.0000
  Br  Br2       1.0  0.7607231152494265  0.9580493937357488  0.824740401800689  1.0000
  Br  Br3       1.0  0.1969505565988356  0.9573769371984825  0.3247595858425711  1.0000
  Br  Br4       1.0  0.239272023126361  0.0419499861350019  0.17525780696031026  1.0000
  Br  Br5       1.0  0.2810240080357786  0.0793656939044283  0.6444432264771791  1.0000
  Br  Br6       1.0  0.2017604370778515  0.9208619821352855  0.8555294379396372  1.0000
  Br  Br7       1.0  0.7189747637409808  0.9206336859663296  0.355557010023297  1.0000
  Br  Br8       1.0  0.798211610439381  0.0791227054077623  0.1444607538906837  1.0000
  Br  Br9       1.0  0.8649331349021949  0.11403054585584732  0.5195037038180104  1.0000
  Br  Br10      1.0  0.7507772537458025  0.8858580764675921  0.9803659999649951  1.0000
  Br  Br11      1.0  0.135067413094454  0.8859699641939613  0.48049580794179286  1.0000
  Br  Br12      1.0  0.24922450538449678  0.1141424335822165  0.019632295151119198  1.0000
  N   N1        1.0  0.6738330459988973  0.505732523187973  0.5774174310605247  1.0000
  N   N2        1.0  0.16822915160926039  0.4940781167807273  0.9225574343430054  1.0000
  N   N3        1.0  0.3261675019977517  0.49426798686183565  0.4225820806992714  1.0000
  N   N4        1.0  0.8317726075210458  0.5059223932690813  0.0774436996083736  1.0000
  N   N5        1.0  0.8255453032831354  0.6315643987281092  0.5786144844538299  1.0000
  N   N6        1.0  0.1941695280478797  0.368282406970323  0.9213749052022635  1.0000
  N   N7        1.0  0.1744552447135135  0.3684361113216923  0.4213850273059733  1.0000
  N   N8        1.0  0.8058327961686588  0.6317192332585435  0.07862550400843557  1.0000
  N   N9        1.0  0.7808140420518725  0.7396965400999207  0.5720952728599968  1.0000
  N   N10       1.0  0.04136488352265388  0.260218076341765  0.9279812187776669  1.0000
  N   N11       1.0  0.2191882821646658  0.2603051001289458  0.4279047308028083  1.0000
  N   N12       1.0  0.9586380867413027  0.7397824337080365  0.07201869853002309  1.0000
  N   N13       1.0  0.8484896055521247  0.5296505025126947  0.6831726956696684  1.0000
  N   N14       1.0  0.31910373810364223  0.47039069398306316  0.8167816646746501  1.0000
  N   N15       1.0  0.1515133647118319  0.4703500075371139  0.3168264105422409  1.0000
  N   N16       1.0  0.6808943066645128  0.5296120764248471  0.1832196419869518  1.0000
  N   N17       1.0  0.833781305831856  0.6610417288206065  0.6981046117816163  1.0000
  N   N18       1.0  0.17319328016539967  0.3388819290535139  0.8018415787267942  1.0000
  N   N19       1.0  0.166222875565758  0.33895878122920214  0.301894088882392  1.0000
  N   N20       1.0  0.8268059757364057  0.6611208413544034  0.1981577001953312  1.0000
  N   N21       1.0  0.994618049826187  0.7688732425639843  0.714027755382844  1.0000
  N   N22       1.0  0.22644223977821548  0.23119507822907787  0.785929083032066  1.0000
  N   N23       1.0  0.005387423666270802  0.2311250071277158  0.28597036702304013  1.0000
  N   N24       1.0  0.7735593574297113  0.7688099525369481  0.21406996305239545  1.0000
