data_image0
_chemical_formula_structural       Dy2Cd4H38C40N12Cl4O26
_chemical_formula_sum              "Dy2 Cd4 H38 C40 N12 Cl4 O26"
_cell_length_a       7.351650853475077
_cell_length_b       12.498492845646165
_cell_length_c       17.248418943226895
_cell_angle_alpha    68.79427781350387
_cell_angle_beta     87.0724930019848
_cell_angle_gamma    81.37648722772481

_space_group_name_H-M_alt    "P 1"
_space_group_IT_number       1

loop_
  _space_group_symop_operation_xyz
  'x, y, z'

loop_
  _atom_site_type_symbol
  _atom_site_label
  _atom_site_symmetry_multiplicity
  _atom_site_fract_x
  _atom_site_fract_y
  _atom_site_fract_z
  _atom_site_occupancy
  Dy  Dy1       1.0  0.7746656229180007  0.5883717015211687  0.7742399052640677  1.0000
  Dy  Dy2       1.0  0.2748698242917199  0.3622435700395387  0.22602898082901388  1.0000
  Cd  Cd1       1.0  0.8139635689231137  0.020674518797903985  0.9049200815053025  1.0000
  Cd  Cd2       1.0  0.3137604860819892  0.9255317418347316  0.09470605181761008  1.0000
  Cd  Cd3       1.0  0.5565060458627685  0.8349931426227216  0.47298537801668755  1.0000
  Cd  Cd4       1.0  0.05619580478010275  0.308716578224008  0.5269961615309453  1.0000
  H   H1        1.0  0.26848059746257047  0.32839913302856893  0.8333426625222555  1.0000
  H   H2        1.0  0.7683830914798334  0.1625216566366562  0.16676022520962863  1.0000
  H   H3        1.0  0.37950824945424694  0.7775360750522756  0.8446357920972003  1.0000
  H   H4        1.0  0.879274749395414  0.6219418361969745  0.15497641947983704  1.0000
  H   H5        1.0  0.3479493431547168  0.483602689118243  0.5797237792493988  1.0000
  H   H6        1.0  0.8478461451383695  0.06287902860428574  0.42073869905632927  1.0000
  H   H7        1.0  0.20366219350169235  0.8686481381250817  0.6018303708970832  1.0000
  H   H8        1.0  0.7047824216059694  0.47000507849977424  0.3973585603619582  1.0000
  H   H9        1.0  0.860452274628905  0.7084643940427287  0.5546178446545295  1.0000
  H   H10       1.0  0.35909154296273726  0.26294155336361785  0.4454939636739111  1.0000
  H   H11       1.0  0.828322837928809  0.6136307689318701  0.5200796767553724  1.0000
  H   H12       1.0  0.32735361474581737  0.1336161348211321  0.4799178354123084  1.0000
  H   H13       1.0  0.533174753985918  0.30285383160872953  0.5718303997822501  1.0000
  H   H14       1.0  0.03322995371370038  0.8742141140298615  0.42855745744674306  1.0000
  H   H15       1.0  0.2445410926353802  0.9699054700221912  0.8503289986731982  1.0000
  H   H16       1.0  0.744076396071442  0.8200019785760729  0.14932024441662137  1.0000
  H   H17       1.0  0.05288558009713997  0.06420636429471241  0.5972105578552058  1.0000
  H   H18       1.0  0.554525205583779  0.6608650083613768  0.4020799985291318  1.0000
  H   H19       1.0  0.440472590738139  0.14045084959848028  0.8364711263680886  1.0000
  H   H20       1.0  0.9406620848535422  0.9778358395137448  0.1635055696318658  1.0000
  H   H21       1.0  0.946950142569662  0.40315808286963106  0.9473317185219654  1.0000
  H   H22       1.0  0.44678473339149594  0.35089840280474505  0.05250837971070867  1.0000
  H   H23       1.0  0.09584186260095605  0.4840331556602778  0.9122545638921264  1.0000
  H   H24       1.0  0.5952591168576333  0.396739565752867  0.08805635769733297  1.0000
  H   H25       1.0  0.5576973745095658  0.08824204792851044  0.5879920517341118  1.0000
  H   H26       1.0  0.05826856722114827  0.6764193685909136  0.4121034972989221  1.0000
  H   H27       1.0  0.46434908833739286  0.6227226989816759  0.6706207053045572  1.0000
  H   H28       1.0  0.9654786918116396  0.29255432185956226  0.32922528498515635  1.0000
  H   H29       1.0  0.3999256576415178  0.704432174930304  0.7240179488913937  1.0000
  H   H30       1.0  0.9006018074033051  0.42769695406939706  0.2756972027647321  1.0000
  H   H31       1.0  0.17539805350588014  0.5092404222024173  0.7329056501058415  1.0000
  H   H32       1.0  0.6757827449232182  0.2419792495625331  0.2676402795117595  1.0000
  H   H33       1.0  0.1623908116141948  0.6217288703670292  0.7585643428409908  1.0000
  H   H34       1.0  0.66202884484354  0.38030908989843243  0.2421077310046654  1.0000
  H   H35       1.0  0.5726624026706019  0.516529525698225  0.9454675341631711  1.0000
  H   H36       1.0  0.0726722024773281  0.4616098151198145  0.05442693634925178  1.0000
  H   H37       1.0  0.6746725715778438  0.625544745066883  0.9245022932946437  1.0000
  H   H38       1.0  0.1743758710855872  0.5496550726434464  0.07577702784477214  1.0000
  C   C1        1.0  0.7446592100313012  0.9173812623321073  0.7607492695962248  1.0000
  C   C2        1.0  0.24436706605474962  0.6782148182441787  0.23967686109475744  1.0000
  C   C3        1.0  0.8982060942632085  0.26235523430017366  0.7828622173987225  1.0000
  C   C4        1.0  0.3985575865099377  0.04503832926278059  0.2169025975019067  1.0000
  C   C5        1.0  0.6991591415039478  0.9353583634105863  0.6785409914326335  1.0000
  C   C6        1.0  0.199211695130316  0.6140059449770875  0.321763273270605  1.0000
  C   C7        1.0  0.32914013598998776  0.3193284797871246  0.7765453221585472  1.0000
  C   C8        1.0  0.829191304936671  0.09639436438659034  0.2235980635337285  1.0000
  C   C9        1.0  0.9191991930789457  0.32153578432905067  0.697070394550664  1.0000
  C   C10       1.0  0.41982025454563393  0.018041212080461912  0.30278956413163627  1.0000
  C   C11       1.0  0.6007712071893963  0.09397711781589628  0.7078002887590243  1.0000
  C   C12       1.0  0.10080987754400893  0.8019574324461517  0.29242606886501216  1.0000
  C   C13       1.0  0.3072540585681196  0.8444924396681447  0.7911571550345825  1.0000
  C   C14       1.0  0.8072406922667598  0.6353562167189325  0.20836634709780802  1.0000
  C   C15       1.0  0.04389349908026932  0.1416376165639763  0.7287655767041483  1.0000
  C   C16       1.0  0.5443673244805468  0.8699852401466189  0.2709486987847851  1.0000
  C   C17       1.0  0.8538358912319097  0.4407006899967173  0.6411327287169398  1.0000
  C   C18       1.0  0.3545671642914456  0.08113326784004475  0.35876203887849556  1.0000
  C   C19       1.0  0.8076075764348475  0.29332257024286457  0.8528269874303545  1.0000
  C   C20       1.0  0.307908661427085  0.14628038439955302  0.14684328420452888  1.0000
  C   C21       1.0  0.8456076922827194  0.8171905433117533  0.8286536093672152  1.0000
  C   C22       1.0  0.3443895694030275  0.6456868328196564  0.17189348240318475  1.0000
  C   C23       1.0  0.3728318429427659  0.4054827269190613  0.6351277104856192  1.0000
  C   C24       1.0  0.8728017462777374  0.04043108704291861  0.36524885909305727  1.0000
  C   C25       1.0  0.13720592926758707  0.033246832939511514  0.7238657694532475  1.0000
  C   C26       1.0  0.6377333181026329  0.7567389574769904  0.2756431824744609  1.0000
  C   C27       1.0  0.5017505400021206  0.20603365620152678  0.7039565688134457  1.0000
  C   C28       1.0  0.0018434049341138033  0.9102191441904212  0.2962342712692986  1.0000
  C   C29       1.0  0.20878526878326645  0.8960198119334352  0.6549392661415893  1.0000
  C   C30       1.0  0.7097624347509209  0.5505072502673373  0.34436582980063674  1.0000
  C   C31       1.0  0.4744610552434095  0.30415350482750386  0.6308649278765655  1.0000
  C   C32       1.0  0.9744724719711756  0.9348628491209325  0.3694579761275562  1.0000
  C   C33       1.0  0.23099347187503128  0.9512097160183901  0.794115255106014  1.0000
  C   C34       1.0  0.730894345037413  0.745036539054361  0.20543368434709908  1.0000
  C   C35       1.0  0.1284876208566246  0.004885735298956144  0.652558785741412  1.0000
  C   C36       1.0  0.6296295672928806  0.6569747610889822  0.3468003689515837  1.0000
  C   C37       1.0  0.4267166869339007  0.2147206032767174  0.7782808409086924  1.0000
  C   C38       1.0  0.9268901121728913  0.9936097088209053  0.22180024873019724  1.0000
  C   C39       1.0  0.725134235665905  0.8650297744820323  0.6245998346077569  1.0000
  C   C40       1.0  0.2248399779541685  0.48969412602320267  0.3756338956833146  1.0000
  N   N1        1.0  0.9757676057355624  0.14962021392631922  0.8010797533193139  1.0000
  N   N2        1.0  0.4759850385307445  0.9506067388959565  0.1986014462575126  1.0000
  N   N3        1.0  0.010219345353775075  0.24323010093444025  0.664337843700771  1.0000
  N   N4        1.0  0.5108387859214362  0.9068703669897433  0.3354950456678622  1.0000
  N   N5        1.0  0.3007492409660202  0.41323355040752585  0.7065691566067966  1.0000
  N   N6        1.0  0.80075465803219  0.1199230759706964  0.29370167238437256  1.0000
  N   N7        1.0  0.29474304006395613  0.8169975509670594  0.7232892753274098  1.0000
  N   N8        1.0  0.7951874120335916  0.5398937692240581  0.2761052147845077  1.0000
  N   N9        1.0  0.611321774590486  0.04814530475935916  0.6469251892522577  1.0000
  N   N10       1.0  0.11152933977268727  0.6952313970524743  0.3532579537707007  1.0000
  N   N11       1.0  0.6836332735442595  0.016097436780576412  0.776722560745057  1.0000
  N   N12       1.0  0.18336178168029696  0.7929509115517349  0.22363959020452026  1.0000
  Cl  Cl1       1.0  0.32559281389590206  0.7054812842236872  0.5391841677494184  1.0000
  Cl  Cl2       1.0  0.8253398518728545  0.2447614539208659  0.4606518478683269  1.0000
  Cl  Cl3       1.0  0.9924671354711662  0.9262601846217677  0.03925262534706763  1.0000
  Cl  Cl4       1.0  0.4934743340590302  0.9646019744542831  0.9610753821824711  1.0000
  O   O1        1.0  0.8668087559171337  0.7168802711921463  0.822313321187195  1.0000
  O   O2        1.0  0.3659507526508676  0.5389364021403155  0.17847126223084323  1.0000
  O   O3        1.0  0.8052217604785455  0.3975064856369317  0.8518440068416238  1.0000
  O   O4        1.0  0.3058451832465394  0.24931964777424306  0.14807824951854795  1.0000
  O   O5        1.0  0.7440422110056772  0.2145008378457194  0.9112968830648281  1.0000
  O   O6        1.0  0.24400833103604916  0.12624638830369153  0.08811328789460758  1.0000
  O   O7        1.0  0.8352277341101412  0.6991678671638014  0.5018731301102191  1.0000
  O   O8        1.0  0.33426369245483295  0.2008856578761284  0.4981693746556671  1.0000
  O   O9        1.0  0.8659250006567945  0.46422912376763065  0.5627284605874789  1.0000
  O   O10       1.0  0.3662578087713939  0.026163490892763406  0.43716742184786733  1.0000
  O   O11       1.0  0.026771069447057996  0.44880355309435777  0.9626177836051963  1.0000
  O   O12       1.0  0.5270829534623119  0.4114337166428114  0.037321899839923796  1.0000
  O   O13       1.0  0.47779548401206967  0.6243468008078924  0.7266779136095919  1.0000
  O   O14       1.0  0.9783520518001936  0.35026092541199455  0.2732369919956027  1.0000
  O   O15       1.0  0.6762501803273153  0.9209127267382797  0.5490378049212267  1.0000
  O   O16       1.0  0.17567891231416868  0.4701591367160065  0.451033918315886  1.0000
  O   O17       1.0  0.0954038530500796  0.5578167848758399  0.763841464508111  1.0000
  O   O18       1.0  0.5951581195515202  0.3216327772758946  0.23675660164919768  1.0000
  O   O19       1.0  0.7863767321851042  0.5162340728653306  0.6721259311678975  1.0000
  O   O20       1.0  0.2874322143366754  0.18781894249546133  0.32775138562202233  1.0000
  O   O21       1.0  0.7896712548949195  0.7577782808198993  0.6534453894778733  1.0000
  O   O22       1.0  0.2893465835589381  0.4111523814923076  0.3469745616464478  1.0000
  O   O23       1.0  0.9027601694383874  0.8361126186851713  0.8891674187740718  1.0000
  O   O24       1.0  0.400423608288996  0.7249576696881019  0.11118334727071741  1.0000
  O   O25       1.0  0.6050749644406398  0.586435529212267  0.8987942685220104  1.0000
  O   O26       1.0  0.10513093199782021  0.4848060809775916  0.10124012199717204  1.0000
