data_image0
_chemical_formula_structural       Cd2H24C24N20
_chemical_formula_sum              "Cd2 H24 C24 N20"
_cell_length_a       7.6255352855951175
_cell_length_b       8.95856986731367
_cell_length_c       13.931600638129067
_cell_angle_alpha    79.23816919583315
_cell_angle_beta     74.11615120721618
_cell_angle_gamma    64.82729717355858

_space_group_name_H-M_alt    "P 1"
_space_group_IT_number       1

loop_
  _space_group_symop_operation_xyz
  'x, y, z'

loop_
  _atom_site_type_symbol
  _atom_site_label
  _atom_site_symmetry_multiplicity
  _atom_site_fract_x
  _atom_site_fract_y
  _atom_site_fract_z
  _atom_site_occupancy
  Cd  Cd1       1.0  4.224845994713215e-06  0.49999996993700085  0.9999987690711265  1.0000
  Cd  Cd2       1.0  0.4999997194823608  7.959251810498866e-06  0.4999975088203143  1.0000
  H   H1        1.0  0.6157258584308354  0.38137487155484723  0.011844153403060885  1.0000
  H   H2        1.0  0.008594874223639658  0.11818608480231063  0.488440643626042  1.0000
  H   H3        1.0  0.3842758466038275  0.6186300610068116  0.9881530562119353  1.0000
  H   H4        1.0  0.9914117543882812  0.8818126986257584  0.5115589638076373  1.0000
  H   H5        1.0  0.6571522339388592  0.13733253661324343  0.8999539160752904  1.0000
  H   H6        1.0  0.6941190398060538  0.3623701429551289  0.6001836219850532  1.0000
  H   H7        1.0  0.34284845101634426  0.8626699600238511  0.10004557918752252  1.0000
  H   H8        1.0  0.305881839884016  0.637613872082511  0.39982129314771  1.0000
  H   H9        1.0  0.21974354074659153  0.14622443258121362  0.8726808437798824  1.0000
  H   H10       1.0  0.2382479967284112  0.3538515239250515  0.6273450389556389  1.0000
  H   H11       1.0  0.7802623613698716  0.8537682287155165  0.12732268744125008  1.0000
  H   H12       1.0  0.7617464279815993  0.6461510592806123  0.3726592617604396  1.0000
  H   H13       1.0  0.214307110726267  0.9450425893339017  0.7740793563885334  1.0000
  H   H14       1.0  0.93322836014972  0.555257117733703  0.7257030806398177  1.0000
  H   H15       1.0  0.7856946002800174  0.05495007310913281  0.22592426853570663  1.0000
  H   H16       1.0  0.06676554131612979  0.4447306532240844  0.27430407819716157  1.0000
  H   H17       1.0  0.9863814422039141  0.0003741418166783028  0.7385891293710288  1.0000
  H   H18       1.0  0.7249857567187734  0.5000949650714831  0.7613469513494097  1.0000
  H   H19       1.0  0.013618382458979358  0.999624664686415  0.261411796554846  1.0000
  H   H20       1.0  0.2750100396068904  0.4998964533091693  0.23865642094942532  1.0000
  H   H21       1.0  0.04469892888870667  0.854768114306168  0.8447481800049702  1.0000
  H   H22       1.0  0.744151655038948  0.6453343675194958  0.6549885914005174  1.0000
  H   H23       1.0  0.9553000065057733  0.14523195933432484  0.1552543170384908  1.0000
  H   H24       1.0  0.25584528067496837  0.35465953342408346  0.3450150586021651  1.0000
  C   C1        1.0  0.2917544572047391  0.5186106926203207  0.7598835705215592  1.0000
  C   C2        1.0  0.5700528004697959  0.9815210650905187  0.7401115419138193  1.0000
  C   C3        1.0  0.7082350929227773  0.48140653035405734  0.2401084285029143  1.0000
  C   C4        1.0  0.42995240667211493  0.018482578405013304  0.2598828717944954  1.0000
  C   C5        1.0  0.7476591304973469  0.2974071425874598  0.965827204475751  1.0000
  C   C6        1.0  0.010544085476311669  0.20222829763161343  0.5344097702744648  1.0000
  C   C7        1.0  0.252347193028342  0.7025916706237753  0.034174042700179486  1.0000
  C   C8        1.0  0.9894653187474067  0.7977630745989969  0.4655909650399934  1.0000
  C   C9        1.0  0.7655920164249043  0.1763790052934837  0.911598642552356  1.0000
  C   C10       1.0  0.853200752674468  0.3233497708754883  0.5885603332292817  1.0000
  C   C11       1.0  0.23441199934816837  0.8236198000633053  0.08840218967041841  1.0000
  C   C12       1.0  0.14679431416993083  0.6766416604331412  0.4114437552023915  1.0000
  C   C13       1.0  0.36439125872750117  0.6742768088812597  0.61653475131682  1.0000
  C   C14       1.0  0.6550011139936063  0.8256706616220839  0.8834117099266693  1.0000
  C   C15       1.0  0.6356005441862325  0.32574420143104993  0.38346115122448765  1.0000
  C   C16       1.0  0.34499962592799693  0.1743280555315181  0.11658429677246572  1.0000
  C   C17       1.0  0.060534446850652984  0.18054251286036305  0.8952553955557292  1.0000
  C   C18       1.0  0.1359376729348655  0.3194262925099239  0.604811615492892  1.0000
  C   C19       1.0  0.9394702984036913  0.8194562795684563  0.1047447205342138  1.0000
  C   C20       1.0  0.8640535547541223  0.6805775499786934  0.3951938413876235  1.0000
  C   C21       1.0  0.057254336175411265  0.9674983540641904  0.802591995845262  1.0000
  C   C22       1.0  0.8270974167612765  0.5327047243353463  0.6972774567239952  1.0000
  C   C23       1.0  0.9427495342985781  0.03249922686632801  0.19740962113500157  1.0000
  C   C24       1.0  0.1728957667255457  0.46728671597402643  0.3027271403639347  1.0000
  N   N1        1.0  0.23351505616997073  0.4875187624996898  0.8455178021548592  1.0000
  N   N2        1.0  0.5663660794722747  0.012741032773078604  0.6544855139225094  1.0000
  N   N3        1.0  0.7664758221090439  0.5124947315567779  0.15447347913416823  1.0000
  N   N4        1.0  0.4336474809139051  0.9872675657012523  0.3455088528341363  1.0000
  N   N5        1.0  0.36047626301678576  0.5362996566785514  0.6642729828221334  1.0000
  N   N6        1.0  0.5609504988837631  0.9637111322527475  0.8357175437229286  1.0000
  N   N7        1.0  0.6395204864786947  0.4637225173473922  0.3357187617740891  1.0000
  N   N8        1.0  0.4390453494224857  0.0362826417037283  0.16427913235761343  1.0000
  N   N9        1.0  0.37411181066492116  0.7928671298435436  0.5660843367167345  1.0000
  N   N10       1.0  0.732883928956696  0.7070579497238968  0.933828611762351  1.0000
  N   N11       1.0  0.6258753737577792  0.20715999981918287  0.4339075282636387  1.0000
  N   N12       1.0  0.2671202870818662  0.2929383005756705  0.0661679471392489  1.0000
  N   N13       1.0  0.9323755662941696  0.29898690038699266  0.9548285802060477  1.0000
  N   N14       1.0  0.18584099709785556  0.20079812781989403  0.5453450354791869  1.0000
  N   N15       1.0  0.06762787978478009  0.7010106636883364  0.0451721131648029  1.0000
  N   N16       1.0  0.814161385437487  0.7992044362379647  0.45465815422127787  1.0000
  N   N17       1.0  0.9651489304105497  0.10336083448277121  0.8672756801990077  1.0000
  N   N18       1.0  0.9354285559527258  0.39657568328863857  0.6327760832969531  1.0000
  N   N19       1.0  0.03485219342773858  0.8966392003738123  0.1327246684459595  1.0000
  N   N20       1.0  0.06456429347175428  0.6034207440752938  0.3672302939877525  1.0000
