data_image0
_chemical_formula_structural       Zn4H24C44N6O15
_chemical_formula_sum              "Zn4 H24 C44 N6 O15"
_cell_length_a       19.1895907103545
_cell_length_b       19.243744272250954
_cell_length_c       19.2269724003576
_cell_angle_alpha    94.9005896747801
_cell_angle_beta     90.13481077476368
_cell_angle_gamma    94.79310053795575

_space_group_name_H-M_alt    "P 1"
_space_group_IT_number       1

loop_
  _space_group_symop_operation_xyz
  'x, y, z'

loop_
  _atom_site_type_symbol
  _atom_site_label
  _atom_site_symmetry_multiplicity
  _atom_site_fract_x
  _atom_site_fract_y
  _atom_site_fract_z
  _atom_site_occupancy
  Zn  Zn1       1.0  0.5595676517403022  0.5606570725160014  0.4422649707592186  1.0000
  Zn  Zn2       1.0  0.4456333954346761  0.5604010949582303  0.5623268892730238  1.0000
  Zn  Zn3       1.0  0.5582720356881198  0.44572321807194754  0.5535105651056184  1.0000
  Zn  Zn4       1.0  0.43622892555189463  0.43463048692795075  0.4404490009580612  1.0000
  H   H1        1.0  0.09860309059495619  0.5876126779671226  0.552692462089631  1.0000
  H   H2        1.0  0.4399968275477947  0.08661823946406602  0.3800563705259421  1.0000
  H   H3        1.0  0.5067781370566851  0.40267003762339476  0.9000720373222819  1.0000
  H   H4        1.0  0.43689691528634716  0.21803560106112502  0.3881904890839394  1.0000
  H   H5        1.0  0.47005222574154  0.7750190588787194  0.615962761866065  1.0000
  H   H6        1.0  0.5530727717523619  0.10319970821978333  0.5748780114064047  1.0000
  H   H7        1.0  0.4706686562772476  0.9065225766544461  0.623034199165069  1.0000
  H   H8        1.0  0.552741054099684  0.23423821735269001  0.5813937545759984  1.0000
  H   H9        1.0  0.4786452896667868  0.3664656306623045  0.09043289632973031  1.0000
  H   H10       1.0  0.5011752783031582  0.6189215227873248  0.7763533234970907  1.0000
  H   H11       1.0  0.506908766991458  0.590825132503845  0.10197361856861421  1.0000
  H   H12       1.0  0.9086311091920936  0.6164179673498753  0.44673871225040773  1.0000
  H   H13       1.0  0.508810176021818  0.5948841390465773  0.23265326189802238  1.0000
  H   H14       1.0  0.23010387773175014  0.5925530501665935  0.558365605989529  1.0000
  H   H15       1.0  0.48809172296039094  0.36996041455986983  0.7068126727160262  1.0000
  H   H16       1.0  0.4685753901007673  0.30370324392763604  0.1887828391602255  1.0000
  H   H17       1.0  0.505126153834354  0.6268270693406282  0.9076484516348557  1.0000
  H   H18       1.0  0.7768108293360783  0.6086572749154089  0.44333080523832535  1.0000
  H   H19       1.0  0.22361453220811  0.3824416015974706  0.4614935593749366  1.0000
  H   H20       1.0  0.9018083653141319  0.4268507066858689  0.5503125941876447  1.0000
  H   H21       1.0  0.09174776770336023  0.37548828911813814  0.46107557319530196  1.0000
  H   H22       1.0  0.7703350895219429  0.4213235538713321  0.5506175035280805  1.0000
  H   H23       1.0  0.5496971063275852  0.7750897795126194  0.4072576063414601  1.0000
  H   H24       1.0  0.5449139811408658  0.9058988497470114  0.4123102229985705  1.0000
  C   C1        1.0  0.31209686162055317  0.49183019679586715  0.5089511751812524  1.0000
  C   C2        1.0  0.5047799308594207  0.5766243718818841  0.8767037791215769  1.0000
  C   C3        1.0  0.7662310918076471  0.5145327179386285  0.49672088546789434  1.0000
  C   C4        1.0  0.6882833597903827  0.510882946290515  0.4972043026499692  1.0000
  C   C5        1.0  0.8012173713596981  0.4631687278885367  0.5271619481697911  1.0000
  C   C6        1.0  0.8736413455452806  0.46615529838899045  0.5272230578138988  1.0000
  C   C7        1.0  0.9120513531662908  0.5216359381921124  0.4977586766446223  1.0000
  C   C8        1.0  0.8773886674205116  0.5737673179505481  0.4685974833844568  1.0000
  C   C9        1.0  0.8047387569781533  0.569497018489109  0.4669135992651832  1.0000
  C   C10       1.0  0.1267651897825957  0.5431870390575286  0.5332087893550792  1.0000
  C   C11       1.0  0.19922937024984586  0.5458132938804143  0.5360752051927804  1.0000
  C   C12       1.0  0.49246057142052996  0.47816482446160086  0.08863718138552909  1.0000
  C   C13       1.0  0.08842802685458653  0.481584763405728  0.5052297460005661  1.0000
  C   C14       1.0  0.23415219365257664  0.4880672374845221  0.5093080310678886  1.0000
  C   C15       1.0  0.19561368340177412  0.42663704441427097  0.4818090657065639  1.0000
  C   C16       1.0  0.5081944598465783  0.6897968485971762  0.5069666690921791  1.0000
  C   C17       1.0  0.12303821812773921  0.42281455885336805  0.4812631276159181  1.0000
  C   C18       1.0  0.4938667559343841  0.23321776056224056  0.485589187944143  1.0000
  C   C19       1.0  0.527367608292316  0.20129558182285484  0.5381184641094237  1.0000
  C   C20       1.0  0.5277947668351716  0.12907715988610854  0.5346252087487144  1.0000
  C   C21       1.0  0.4955191670511994  0.08797850850653083  0.4775647058921352  1.0000
  C   C22       1.0  0.46367314904705376  0.11982432719895543  0.42408866674978196  1.0000
  C   C23       1.0  0.48472905724650434  0.4163543649866811  0.1223519901935646  1.0000
  C   C24       1.0  0.4618229770525701  0.19214926442511887  0.4286622870779695  1.0000
  C   C25       1.0  0.5289517021285874  0.8764656763382638  0.4563826379514068  1.0000
  C   C26       1.0  0.5313039897952976  0.8043662992406271  0.4536973604065295  1.0000
  C   C27       1.0  0.5059600783660869  0.9128376473083222  0.5175209534148237  1.0000
  C   C28       1.0  0.49351907150669655  0.3109194157701013  0.4902133417890795  1.0000
  C   C29       1.0  0.5090984502791899  0.767611640648994  0.5109285607508625  1.0000
  C   C30       1.0  0.48681075345206193  0.8042703177321118  0.572021357758679  1.0000
  C   C31       1.0  0.48675879319667825  0.8766757732097904  0.5758999689454569  1.0000
  C   C32       1.0  0.5045024468327668  0.5061347170448018  0.6875749741188742  1.0000
  C   C33       1.0  0.4943647094252769  0.4897874495274693  0.3135409602194983  1.0000
  C   C34       1.0  0.4873277172207651  0.4178732724005628  0.19513902598333033  1.0000
  C   C35       1.0  0.4951171114204699  0.48309951501236986  0.23514158185497538  1.0000
  C   C36       1.0  0.5021394316841282  0.544892315105898  0.2010877273197877  1.0000
  C   C37       1.0  0.501013512630948  0.5429981026727831  0.1286649808801954  1.0000
  C   C38       1.0  0.5045174040645862  0.37435701795237014  0.7625977650858501  1.0000
  C   C39       1.0  0.4883886239846689  0.34953063941593854  0.22533238125446786  1.0000
  C   C40       1.0  0.5062043393980105  0.4502793547510536  0.873295464539524  1.0000
  C   C41       1.0  0.506369171599772  0.4455690616572739  0.8004794695904991  1.0000
  C   C42       1.0  0.5050110886184953  0.515481503259359  0.9116455802870717  1.0000
  C   C43       1.0  0.5039900632045972  0.5071573421013511  0.7655595519511849  1.0000
  C   C44       1.0  0.5028824941725745  0.5721238640711095  0.8041859261017947  1.0000
  N   N1        1.0  0.4916356579881196  0.4692489216690631  0.01495360352281949  1.0000
  N   N2        1.0  0.504693569212087  0.5251402906278245  0.9853762724999129  1.0000
  N   N3        1.0  0.9859084581228996  0.5298368231442795  0.49733116701050045  1.0000
  N   N4        1.0  0.014745855880356403  0.47342081670855424  0.5010099962493869  1.0000
  N   N5        1.0  0.49456898027779067  0.014184364190541005  0.4692259907090062  1.0000
  N   N6        1.0  0.5025146330526696  0.986062639326704  0.5256084640056642  1.0000
  O   O1        1.0  0.4998647269891238  0.5006435908066609  0.4993860548894986  1.0000
  O   O2        1.0  0.46348260793160295  0.5456578651430778  0.661066659936786  1.0000
  O   O3        1.0  0.44231735906363673  0.4596610357186466  0.3430156475081887  1.0000
  O   O4        1.0  0.5464217520578459  0.46701460796468564  0.6551676653933782  1.0000
  O   O5        1.0  0.5449755258285336  0.5287754917251846  0.3426468768562927  1.0000
  O   O6        1.0  0.5185942320774329  0.3225568278545765  0.7908587003248896  1.0000
  O   O7        1.0  0.5109796943833445  0.34104572235893477  0.2832044753705745  1.0000
  O   O8        1.0  0.538736562455739  0.6593922349328099  0.455204598662462  1.0000
  O   O9        1.0  0.45517400422129123  0.33690841029043384  0.446456327759492  1.0000
  O   O10       1.0  0.3448381570931859  0.5441265645998997  0.5440521713297954  1.0000
  O   O11       1.0  0.6571514856931701  0.4634823010486359  0.531390722996413  1.0000
  O   O12       1.0  0.3398926956707697  0.4426010400334662  0.47317247204298946  1.0000
  O   O13       1.0  0.6589989444552983  0.5553594476105131  0.4637900976497775  1.0000
  O   O14       1.0  0.47626160610753493  0.6595185953847604  0.5558162332327399  1.0000
  O   O15       1.0  0.5317095966072998  0.34528982316223994  0.5381961103889665  1.0000
