data_image0
_chemical_formula_structural       Zn16H24C96S16N8O72
_chemical_formula_sum              "Zn16 H24 C96 S16 N8 O72"
_cell_length_a       19.62587407557526
_cell_length_b       19.60896006819632
_cell_length_c       33.356898750556645
_cell_angle_alpha    79.18354150894608
_cell_angle_beta     79.16314546455521
_cell_angle_gamma    63.848613667382246

_space_group_name_H-M_alt    "P 1"
_space_group_IT_number       1

loop_
  _space_group_symop_operation_xyz
  'x, y, z'

loop_
  _atom_site_type_symbol
  _atom_site_label
  _atom_site_symmetry_multiplicity
  _atom_site_fract_x
  _atom_site_fract_y
  _atom_site_fract_z
  _atom_site_occupancy
  Zn  Zn1       1.0  0.0538068534632856  0.4003478513953026  0.4781222390457032  1.0000
  Zn  Zn2       1.0  0.9884573155250818  0.48258694827653414  0.5602898640040904  1.0000
  Zn  Zn3       1.0  0.056596585570282784  0.5643260584295787  0.4817096989894408  1.0000
  Zn  Zn4       1.0  0.9012676796803802  0.5554296196071604  0.47904133910007823  1.0000
  Zn  Zn5       1.0  0.6925026499548748  0.3507201398164597  0.2713615615092522  1.0000
  Zn  Zn6       1.0  0.6868552422452651  0.19201778560034208  0.26535348184984286  1.0000
  Zn  Zn7       1.0  0.7713336582941253  0.2642404112725387  0.189912860554287  1.0000
  Zn  Zn8       1.0  0.8465566931223663  0.19703637687674555  0.2730371563749614  1.0000
  Zn  Zn9       1.0  0.26956220427982197  0.7653116347281284  0.6889499371577159  1.0000
  Zn  Zn10      1.0  0.35161196995519356  0.6948302078082021  0.7705019871675204  1.0000
  Zn  Zn11      1.0  0.19471678745468066  0.8464855879313548  0.7712190147428541  1.0000
  Zn  Zn12      1.0  0.1923362088811942  0.6862962488325766  0.7648628686078778  1.0000
  Zn  Zn13      1.0  0.5616008691712224  0.0595663947324141  0.9820819854558703  1.0000
  Zn  Zn14      1.0  0.4015896276881604  0.05443622448674299  0.9780906098062798  1.0000
  Zn  Zn15      1.0  0.5557766210535177  0.9001659912946284  0.9774642612670376  1.0000
  Zn  Zn16      1.0  0.4862533465424761  0.9827390608700952  0.0598968554647783  1.0000
  H   H1        1.0  0.9520978356519546  0.25269158169396655  0.34912924011102575  1.0000
  H   H2        1.0  0.7397794931396575  0.4558178475361744  0.3535949270297393  1.0000
  H   H3        1.0  0.9993475568861355  0.30212904281027186  0.3971477747841304  1.0000
  H   H4        1.0  0.09549030967142609  0.6006075657611305  0.6979702326624845  1.0000
  H   H5        1.0  0.21617297291584237  0.6901820782257035  0.596256520948607  1.0000
  H   H6        1.0  0.0452856434058475  0.5581623741761277  0.6481293577623929  1.0000
  H   H7        1.0  0.4619557519173582  0.23945180059170215  0.3423085781696713  1.0000
  H   H8        1.0  0.48437706682831544  0.7021246088452742  0.6003649108811827  1.0000
  H   H9        1.0  0.20487644088493784  0.9785988336115918  0.6018378684264292  1.0000
  H   H10       1.0  0.9503237089365514  0.9667022116438203  0.3423178134809887  1.0000
  H   H11       1.0  0.5538069068589594  0.04935214053886477  0.15107109708053906  1.0000
  H   H12       1.0  0.6479610313673163  0.16031643143563917  0.04644371649279578  1.0000
  H   H13       1.0  0.5992067071116408  0.10270558640636554  0.1979606867914399  1.0000
  H   H14       1.0  0.5462018440517581  0.7684931644347517  0.14779713496906063  1.0000
  H   H15       1.0  0.16308655617416426  0.14088137450831084  0.04215304636672808  1.0000
  H   H16       1.0  0.49940630094222627  0.7900527345172964  0.9021212597343577  1.0000
  H   H17       1.0  0.29712741466839526  0.0031675539268505755  0.8985394840052761  1.0000
  H   H18       1.0  0.449543389082315  0.7442211820250718  0.8536764250461387  1.0000
  H   H19       1.0  0.2973757578696379  0.2837115907608165  0.9037412472573152  1.0000
  H   H20       1.0  0.7874415955472074  0.00905895476682878  0.9066120822910831  1.0000
  H   H21       1.0  0.8004666047098254  0.5259821952713818  0.4237222934518455  1.0000
  H   H22       1.0  0.1543708403640451  0.6251396832327032  0.524229182840557  1.0000
  H   H23       1.0  0.7126272606564683  0.23874331921603437  0.11033172880880927  1.0000
  H   H24       1.0  0.22464141900789505  0.9426747384915047  0.8294327909515856  1.0000
  C   C1        1.0  0.0644140818152508  0.31681364137744344  0.5604784574996202  1.0000
  C   C2        1.0  0.07294117748219257  0.5720030900108526  0.5666896132768142  1.0000
  C   C3        1.0  0.17836701269220606  0.44100139080679673  0.4375111923686035  1.0000
  C   C4        1.0  0.9354419300329864  0.6848419257934638  0.4386436068388944  1.0000
  C   C5        1.0  0.9261428255009179  0.4315411675484387  0.431347011182872  1.0000
  C   C6        1.0  0.8220898935511656  0.559078473852196  0.5617813133352881  1.0000
  C   C7        1.0  0.5650763793363041  0.3108061507276361  0.3125850720785976  1.0000
  C   C8        1.0  0.6754062736990817  0.1897037650285471  0.177815428782516  1.0000
  C   C9        1.0  0.6933059880154815  0.430770533940432  0.18832101187319233  1.0000
  C   C10       1.0  0.9354152430776351  0.18404901765198647  0.1912632954160712  1.0000
  C   C11       1.0  0.8147264596762369  0.32278127745205876  0.3199501447520276  1.0000
  C   C12       1.0  0.8112187046803851  0.06492647305641006  0.3074031645743389  1.0000
  C   C13       1.0  0.4368661567419849  0.6907271179259952  0.6874345706676406  1.0000
  C   C14       1.0  0.31951941630619973  0.8185585735312982  0.8199822762431949  1.0000
  C   C15       1.0  0.18853582918104905  0.9334443343791464  0.6886766903083908  1.0000
  C   C16       1.0  0.06761730329743901  0.8087783300383863  0.8088421603716893  1.0000
  C   C17       1.0  0.18786470156274498  0.6751883857423165  0.6790051707928342  1.0000
  C   C18       1.0  0.3106741037921239  0.5693027892749001  0.8119958750777696  1.0000
  C   C19       1.0  0.43735898078244156  0.18402078829721097  0.9381675406794158  1.0000
  C   C20       1.0  0.4297633511690008  0.9280219340370907  0.9317283536591814  1.0000
  C   C21       1.0  0.6846319431519203  0.9378503271811597  0.9370763414284297  1.0000
  C   C22       1.0  0.5634774009418562  0.8149605334551706  0.060968276472657124  1.0000
  C   C23       1.0  0.571893204598055  0.07011108765770767  0.06774704908459477  1.0000
  C   C24       1.0  0.31776620030485947  0.06215920714567604  0.06189082102559951  1.0000
  C   C25       1.0  0.8962815385746481  0.40513404389498947  0.402895260934045  1.0000
  C   C26       1.0  0.843194610363085  0.3516830906562376  0.34864745905425554  1.0000
  C   C27       1.0  0.8218038397248576  0.44912153893891843  0.3907294495508893  1.0000
  C   C28       1.0  0.91675258090482  0.30739562849304036  0.3608416551791649  1.0000
  C   C29       1.0  0.7964951041926369  0.4217847883404743  0.363176805357746  1.0000
  C   C30       1.0  0.9425567014023098  0.3347051246564946  0.38739173523006093  1.0000
  C   C31       1.0  0.10368566452008567  0.5983786835709992  0.594653953223087  1.0000
  C   C32       1.0  0.15863180898296037  0.6480143652945499  0.6498164364508126  1.0000
  C   C33       1.0  0.1530613145389097  0.6355173547771854  0.5796361903307741  1.0000
  C   C34       1.0  0.11069768628785678  0.6102053549062063  0.6649759811693767  1.0000
  C   C35       1.0  0.17918101871396172  0.6608684274174054  0.607740923327263  1.0000
  C   C36       1.0  0.08334019839892899  0.5865521038433172  0.6374041507661303  1.0000
  C   C37       1.0  0.30410673277321365  0.4544733036412013  0.4034215795239857  1.0000
  C   C38       1.0  0.44523096301644927  0.2964065909952326  0.3503136834178448  1.0000
  C   C39       1.0  0.2567930364598467  0.4162783359059574  0.41564858654216846  1.0000
  C   C40       1.0  0.4902973348855396  0.33624667059063296  0.3380673339592732  1.0000
  C   C41       1.0  0.37687563018981507  0.3403394106644414  0.3737864212409505  1.0000
  C   C42       1.0  0.37191271285587385  0.4122821710848257  0.37883509654533737  1.0000
  C   C43       1.0  0.7305240129452739  0.5788713686710241  0.6308389956232785  1.0000
  C   C44       1.0  0.5285605525183428  0.6736983404066237  0.6208174596477675  1.0000
  C   C45       1.0  0.748330944706801  0.5868936470286672  0.5882424627997977  1.0000
  C   C46       1.0  0.5126967590268379  0.6647629033550049  0.6631640504357533  1.0000
  C   C47       1.0  0.6083247833280083  0.6413050542598665  0.6091665570704805  1.0000
  C   C48       1.0  0.6508282522195755  0.6084886270029487  0.6429996020526543  1.0000
  C   C49       1.0  0.0718096290417378  0.2263381151796579  0.6293366114510872  1.0000
  C   C50       1.0  0.1746074410639409  0.023653103329962708  0.621712779435775  1.0000
  C   C51       1.0  0.0831685073617123  0.24284324581692124  0.5867957843158678  1.0000
  C   C52       1.0  0.162921096625702  0.009092421959408627  0.6640532114847416  1.0000
  C   C53       1.0  0.1419103189213757  0.10321805613115488  0.6092880879270124  1.0000
  C   C54       1.0  0.1063080293260867  0.14701253057758384  0.6425043572103064  1.0000
  C   C55       1.0  0.8373520796415761  0.8050734134382369  0.39843520525702303  1.0000
  C   C56       1.0  0.9045452474014368  0.9478255242719555  0.3480173584578594  1.0000
  C   C57       1.0  0.9064997805064221  0.7613313868569094  0.4146208597523751  1.0000
  C   C58       1.0  0.8352572672459856  0.9898548486923033  0.3325067920124879  1.0000
  C   C59       1.0  0.9054492350355331  0.8795916008508871  0.37149932031297783  1.0000
  C   C60       1.0  0.8368612369160146  0.8717520413712738  0.37317099313009544  1.0000
  C   C61       1.0  0.6486110173928522  0.16110321484411838  0.14890275513514686  1.0000
  C   C62       1.0  0.5986285260226367  0.10167110503717684  0.096031513522064  1.0000
  C   C63       1.0  0.6625684834963579  0.17791003944271466  0.1055860411404979  1.0000
  C   C64       1.0  0.5842197481634485  0.08511559738123249  0.13892294671845207  1.0000
  C   C65       1.0  0.6371566674399602  0.1475179295364343  0.07959351532073805  1.0000
  C   C66       1.0  0.6092021229027508  0.11473688278685058  0.16468775826839277  1.0000
  C   C67       1.0  0.6745485962874227  0.5213021325537852  0.11877521192072041  1.0000
  C   C68       1.0  0.5765442061828023  0.7238508675698655  0.12766977138019803  1.0000
  C   C69       1.0  0.664831918498649  0.504134947426394  0.16138361686765987  1.0000
  C   C70       1.0  0.5883140075203598  0.7391139532535647  0.08539898667766012  1.0000
  C   C71       1.0  0.6092028872995597  0.6441267156190803  0.13967306240343902  1.0000
  C   C72       1.0  0.6445548853012324  0.600990779411447  0.10618811375247361  1.0000
  C   C73       1.0  0.08498577046028538  0.11572325299767532  0.17980904354052996  1.0000
  C   C74       1.0  0.1716308945373868  0.12378684782823514  0.07442097699261299  1.0000
  C   C75       1.0  0.0120344961027001  0.15446349736253503  0.16737167616913234  1.0000
  C   C76       1.0  0.24322447907658779  0.08581318453492773  0.08768787447588265  1.0000
  C   C77       1.0  0.1140666872611789  0.1358296501805398  0.10831827844445736  1.0000
  C   C78       1.0  0.1434503063343584  0.10635713141957134  0.14644192549916818  1.0000
  C   C79       1.0  0.34634641399094324  0.8474492771197006  0.8487431966965248  1.0000
  C   C80       1.0  0.40086373679447  0.8993662895183264  0.9030898266123156  1.0000
  C   C81       1.0  0.30250904413200164  0.9215344656946912  0.8615202022919418  1.0000
  C   C82       1.0  0.44466497907901464  0.8259008559352665  0.8906118240130354  1.0000
  C   C83       1.0  0.3306478593246211  0.9464562506795602  0.8888083578278195  1.0000
  C   C84       1.0  0.4170865244879137  0.8007901275129612  0.8638131268815312  1.0000
  C   C85       1.0  0.4040401121280438  0.4533052072256821  0.8566010720852403  1.0000
  C   C86       1.0  0.3425965361650327  0.30317124799197603  0.8991422811977045  1.0000
  C   C87       1.0  0.3352780098875811  0.4970216236848444  0.8400214552873776  1.0000
  C   C88       1.0  0.4121434617287817  0.26036696527252456  0.9142988283322137  1.0000
  C   C89       1.0  0.3403785822530025  0.37322239495423315  0.8775328202391461  1.0000
  C   C90       1.0  0.4081686178484957  0.38189593902417596  0.8771335802764921  1.0000
  C   C91       1.0  0.9486999007554004  0.7898954109906879  0.8500854805469653  1.0000
  C   C92       1.0  0.8045445217798671  0.9515763073893524  0.8992697360693355  1.0000
  C   C93       1.0  0.9945848028967035  0.8292184313638485  0.8361212623968157  1.0000
  C   C94       1.0  0.7599225622633198  0.9114044945501265  0.9122332183830149  1.0000
  C   C95       1.0  0.8728546835984616  0.9073410838341189  0.8759035655377542  1.0000
  C   C96       1.0  0.8784437142503165  0.8346041409077142  0.8719564268414358  1.0000
  S   S1        1.0  0.29714255004768114  0.32740255236935667  0.3981798307225047  1.0000
  S   S2        1.0  0.45034096569121107  0.4267421814479847  0.3544629284961047  1.0000
  S   S3        1.0  0.6670857252344362  0.6330796726492591  0.5632724117875867  1.0000
  S   S4        1.0  0.5934483379391792  0.61651869684858  0.6890569390448248  1.0000
  S   S5        1.0  0.13400203352890827  0.1606029774505728  0.5628940653734489  1.0000
  S   S6        1.0  0.11343095771488267  0.09099133873536405  0.689007396697576  1.0000
  S   S7        1.0  0.9697579725156726  0.8035902952937305  0.3998097817273773  1.0000
  S   S8        1.0  0.7715858191039615  0.9470382792558426  0.34554029982106016  1.0000
  S   S9        1.0  0.6161205560000482  0.5859761283824273  0.18575002171391455  1.0000
  S   S10       1.0  0.6390831875113676  0.6578256646166241  0.06002968870016184  1.0000
  S   S11       1.0  0.015557423393452998  0.17687872639466207  0.11453272968132207  1.0000
  S   S12       1.0  0.2414632135611754  0.0652156539675133  0.14093550508418667  1.0000
  S   S13       1.0  0.2745479595630229  0.4515676221232211  0.8512288807625763  1.0000
  S   S14       1.0  0.47520283258640444  0.303942666674935  0.90239560209762  1.0000
  S   S15       1.0  0.9524726131964839  0.9201432084948492  0.8512320241494107  1.0000
  S   S16       1.0  0.799519826496784  0.8208037968736759  0.8960444063586976  1.0000
  N   N1        1.0  0.2922094258116417  0.5271701415718228  0.4152287799697588  1.0000
  N   N2        1.0  0.7835309992630426  0.5495955893736592  0.6617846984770208  1.0000
  N   N3        1.0  0.026003825997250395  0.28059844014516955  0.6588832652640588  1.0000
  N   N4        1.0  0.7685517601958265  0.7914631313637344  0.4072981319688793  1.0000
  N   N5        1.0  0.7065693262755843  0.4673999806448065  0.08831240715399963  1.0000
  N   N6        1.0  0.1041096675216551  0.08192582208348403  0.22121694048425408  1.0000
  N   N7        1.0  0.46601971466039777  0.4753677528759681  0.8564562345322315  1.0000
  N   N8        1.0  0.9683178593411125  0.7101751407623598  0.8465982292774328  1.0000
  O   O1        1.0  0.0009142277555156  0.49980372410848867  0.4996102311570638  1.0000
  O   O2        1.0  0.06461557218990778  0.3147411410522452  0.5222755363167195  1.0000
  O   O3        1.0  0.025091495423140504  0.5438933768098337  0.5821431755669975  1.0000
  O   O4        1.0  0.1386990663711742  0.5121595070718568  0.43914002009741177  1.0000
  O   O5        1.0  0.05242870979201799  0.37462152858230974  0.5773505253173781  1.0000
  O   O6        1.0  0.15719752019349187  0.387001524725605  0.45166320956938916  1.0000
  O   O7        1.0  0.09657233812058758  0.5793194156132841  0.5276713147655483  1.0000
  O   O8        1.0  0.9938747523060556  0.6680253680388545  0.4567864548651314  1.0000
  O   O9        1.0  0.8794923852015443  0.49407806865739456  0.44699715844011195  1.0000
  O   O10       1.0  0.9025868209760758  0.6419045148661908  0.43823529995199795  1.0000
  O   O11       1.0  0.9949604365421859  0.3924269542578926  0.4389919169480834  1.0000
  O   O12       1.0  0.8799806876974259  0.5067546433834167  0.5774288325440011  1.0000
  O   O13       1.0  0.819312943034923  0.5898964530993923  0.5242281671345025  1.0000
  O   O14       1.0  0.7484318615611228  0.2510637599765106  0.24995686983604049  1.0000
  O   O15       1.0  0.5969075435449013  0.3571057955371872  0.30561478859367236  1.0000
  O   O16       1.0  0.6617108095822744  0.17134169024281926  0.2161435099735698  1.0000
  O   O17       1.0  0.7480352066076461  0.37336225355647945  0.1733130309238078  1.0000
  O   O18       1.0  0.5909005128605996  0.245425059288337  0.299892290237075  1.0000
  O   O19       1.0  0.6607635171631259  0.43332120220153314  0.22542830111726184  1.0000
  O   O20       1.0  0.7119004185930392  0.2318641254157827  0.16224703102696478  1.0000
  O   O21       1.0  0.8794266917881615  0.20303868907497247  0.17067122498865928  1.0000
  O   O22       1.0  0.8548307190047096  0.25353750225045246  0.3127671971234207  1.0000
  O   O23       1.0  0.9310572322018157  0.19065425820468837  0.22888111238266615  1.0000
  O   O24       1.0  0.7528248763198349  0.3691630948986457  0.30505127729875875  1.0000
  O   O25       1.0  0.7441273428462337  0.09304278706861888  0.29640944986689977  1.0000
  O   O26       1.0  0.8590085084210841  0.09486455817332735  0.29935466228148755  1.0000
  O   O27       1.0  0.25179021238724175  0.7484793144296444  0.7491802292839367  1.0000
  O   O28       1.0  0.3787545868337928  0.7225788279754612  0.6675904969471487  1.0000
  O   O29       1.0  0.36052702115685514  0.7513583875405486  0.8101965179339244  1.0000
  O   O30       1.0  0.16943180502438784  0.9333699978038225  0.7275831476693354  1.0000
  O   O31       1.0  0.43675935274741556  0.6789011215201983  0.7264844382998914  1.0000
  O   O32       1.0  0.22696669913549528  0.8755163025193016  0.6690837851915956  1.0000
  O   O33       1.0  0.25488491153844706  0.8643435177406499  0.8062139755472657  1.0000
  O   O34       1.0  0.10204698329858528  0.8515268068864827  0.808145166697315  1.0000
  O   O35       1.0  0.17791168732886578  0.6518294770975999  0.7171503395447445  1.0000
  O   O36       1.0  0.08851971808051219  0.7537625820759716  0.7878453786078978  1.0000
  O   O37       1.0  0.22037414205490075  0.7196109679797119  0.6634672576345577  1.0000
  O   O38       1.0  0.3617004142125849  0.5916642951218806  0.7942928487366813  1.0000
  O   O39       1.0  0.23956695966590047  0.601168113308411  0.8071362750623476  1.0000
  O   O40       1.0  0.5010295510957831  0.9992727710352366  0.9995522088329449  1.0000
  O   O41       1.0  0.5051346711669993  0.15535739626990616  0.9482757083899568  1.0000
  O   O42       1.0  0.38696490212241486  0.9946942466750596  0.9422989005878789  1.0000
  O   O43       1.0  0.6524828605894014  0.8917770024344446  0.9442388568215633  1.0000
  O   O44       1.0  0.38982241711899945  0.1537439333959796  0.9465916042343706  1.0000
  O   O45       1.0  0.6587383819298366  0.0037127631703839565  0.9491495975151732  1.0000
  O   O46       1.0  0.4951408444274676  0.8834801458940548  0.9433156064504755  1.0000
  O   O47       1.0  0.5819616115991764  0.8149536839317905  0.02211497811676106  1.0000
  O   O48       1.0  0.5367361542673805  0.028537034523154092  0.08454192899527871  1.0000
  O   O49       1.0  0.5261243130410662  0.8730037412535553  0.0806654757319976  1.0000
  O   O50       1.0  0.5861452161995543  0.0872359362030935  0.029213430123647306  1.0000
  O   O51       1.0  0.3164019977381968  0.07738773334634176  0.023093256855382483  1.0000
  O   O52       1.0  0.3767680592958129  0.02814373662177875  0.08115785217963628  1.0000
  O   O53       1.0  0.7734953473686517  0.5166906370326887  0.40425048334677166  1.0000
  O   O54       1.0  0.17635931881805075  0.6482786075458192  0.5394196837742625  1.0000
  O   O55       1.0  0.6993157173309824  0.22187945805688278  0.08772381824229569  1.0000
  O   O56       1.0  0.2343547806544919  0.969872284034757  0.848651496011989  1.0000
  O   O57       1.0  0.32405147821749836  0.5633690988297674  0.3904819860846587  1.0000
  O   O58       1.0  0.25526259026428727  0.5466646064992488  0.4486469551704955  1.0000
  O   O59       1.0  0.7606356477704991  0.5219144891599969  0.695390645493326  1.0000
  O   O60       1.0  0.8440793238116413  0.5570251043508492  0.6537280022604435  1.0000
  O   O61       1.0  0.0462693577187494  0.26145778909920386  0.6940199376141292  1.0000
  O   O62       1.0  0.9700022634862363  0.33855459319369163  0.6481044809708081  1.0000
  O   O63       1.0  0.724507398852232  0.8201637529132171  0.3802021208679775  1.0000
  O   O64       1.0  0.7564881738247207  0.7564185345264892  0.4406878646900623  1.0000
  O   O65       1.0  0.7344833959227087  0.49036133409076393  0.05477228821720097  1.0000
  O   O66       1.0  0.7016229815153281  0.4054975017564218  0.09654288117798158  1.0000
  O   O67       1.0  0.1666242168968637  0.07581798029619338  0.2286514552371912  1.0000
  O   O68       1.0  0.06040715956801528  0.05896454453013432  0.24522230958692862  1.0000
  O   O69       1.0  0.5308626284203156  0.42150391399344056  0.8571064460439287  1.0000
  O   O70       1.0  0.4507869005264169  0.5432083643339709  0.8575648764266433  1.0000
  O   O71       1.0  0.9132387394158312  0.6953432194547133  0.8454576359297757  1.0000
  O   O72       1.0  0.0356484592547375  0.6630551857535708  0.8469080959180599  1.0000
