data_image0
_chemical_formula_structural       Zn6H32C71Cl10O46
_chemical_formula_sum              "Zn6 H32 C71 Cl10 O46"
_cell_length_a       18.67170828795194
_cell_length_b       18.627192998670868
_cell_length_c       18.707185859767034
_cell_angle_alpha    108.87696918907817
_cell_angle_beta     109.65828888900819
_cell_angle_gamma    109.05249289078871

_space_group_name_H-M_alt    "P 1"
_space_group_IT_number       1

loop_
  _space_group_symop_operation_xyz
  'x, y, z'

loop_
  _atom_site_type_symbol
  _atom_site_label
  _atom_site_symmetry_multiplicity
  _atom_site_fract_x
  _atom_site_fract_y
  _atom_site_fract_z
  _atom_site_occupancy
  Zn  Zn1       1.0  0.05308381768333707  0.04334363498766446  0.49015358867334413  1.0000
  Zn  Zn2       1.0  0.9248008550503145  0.9198797927741397  0.49097410756753856  1.0000
  Zn  Zn3       1.0  0.501238401164109  0.9485540586146896  0.9370964393114748  1.0000
  Zn  Zn4       1.0  0.49916122116424333  0.06945577574161634  0.06527813206894001  1.0000
  Zn  Zn5       1.0  0.0780463193268872  0.5003494524812026  0.07126779974622369  1.0000
  Zn  Zn6       1.0  0.9558765891032908  0.5016499590580777  0.9404193055616901  1.0000
  H   H1        1.0  0.28617413542595943  0.06395423026226882  0.6619092022834039  1.0000
  H   H2        1.0  0.1648762506344711  0.0918689310105877  0.7895523450948262  1.0000
  H   H3        1.0  0.8412220518111584  0.6663159728607154  0.25389742930862985  1.0000
  H   H4        1.0  0.17112167211073634  0.8146464271424633  0.26285328351224996  1.0000
  H   H5        1.0  0.24575742294684505  0.9521761891498739  0.6315540085050131  1.0000
  H   H6        1.0  0.6445066132831984  0.040712150140677764  0.2970546674777097  1.0000
  H   H7        1.0  0.7611242922510755  0.9767118090869428  0.07052386078883902  1.0000
  H   H8        1.0  0.821673231939741  0.09292010068084268  0.12773756902778644  1.0000
  H   H9        1.0  0.9412494886384907  0.09023993363432244  0.23494238869154327  1.0000
  H   H10       1.0  0.06752493425486968  0.4109310434265296  0.7305376941232637  1.0000
  H   H11       1.0  0.3721086342883596  0.997299538333955  0.757308586890467  1.0000
  H   H12       1.0  0.7788414101258284  0.20838470469939824  0.8187964607217425  1.0000
  H   H13       1.0  0.6677848544246462  0.07948093804217408  0.8040949667414382  1.0000
  H   H14       1.0  0.39855187063766817  0.8834606096017551  0.13191693580389344  1.0000
  H   H15       1.0  0.1794881259777343  0.5255687487643074  0.8408682018200795  1.0000
  H   H16       1.0  0.39749708746936113  0.10706698157716941  0.7967237147879659  1.0000
  H   H17       1.0  0.10354458113115338  0.564742551232662  0.8150585349475961  1.0000
  H   H18       1.0  0.2775663254204447  0.6284992111371963  0.8136161800657861  1.0000
  H   H19       1.0  0.20393981723559323  0.6698122205786559  0.7897220095156926  1.0000
  H   H20       1.0  0.13277713476428948  0.8758029339731762  0.6491393529128331  1.0000
  H   H21       1.0  0.2567654712705051  0.8995288583364168  0.7526064108373874  1.0000
  H   H22       1.0  0.14838085261728665  0.7974742484059901  0.8318511944496194  1.0000
  H   H23       1.0  0.16687520524740065  0.08972672376422255  0.9516798219051594  1.0000
  H   H24       1.0  0.19959471917488267  0.9235562781935227  0.14466031319518893  1.0000
  H   H25       1.0  0.23766223123310948  0.9120297351287049  0.4807659194749832  1.0000
  H   H26       1.0  0.8741800691795093  0.8487774355519234  0.16379073477114764  1.0000
  H   H27       1.0  0.02291598392612574  0.01200459143405646  0.7660564396771504  1.0000
  H   H28       1.0  0.9409292980988726  0.22869454143774723  0.9702353155951543  1.0000
  H   H29       1.0  0.16360763244567533  0.3169710972844513  0.5821369087009886  1.0000
  H   H30       1.0  0.3873056036801118  0.8709497961464191  0.3001745118127985  1.0000
  H   H31       1.0  0.20550742554419105  0.25378074457841393  0.7465092376196198  1.0000
  H   H32       1.0  0.41602646236557933  0.3196846867269443  0.9690226247830438  1.0000
  C   C1        1.0  0.9592986942764842  0.8424661283265136  0.3709243651854877  1.0000
  C   C2        1.0  0.3155842185572485  0.03503042403885823  0.8362564240289603  1.0000
  C   C3        1.0  0.29388455294813576  0.11051916282135484  0.8660986797067525  1.0000
  C   C4        1.0  0.23502578992543036  0.9418391754053274  0.7844920291981837  1.0000
  C   C5        1.0  0.022775787429040437  0.8104425325119845  0.27461908364270465  1.0000
  C   C6        1.0  0.9572972568148617  0.7813997185596406  0.29501320915633045  1.0000
  C   C7        1.0  0.8943108405043604  0.6929931963739263  0.2416350108415557  1.0000
  C   C8        1.0  0.8992038982558981  0.6381916973690165  0.17348101877281863  1.0000
  C   C9        1.0  0.9682011510181853  0.6675126007220766  0.15623932434346702  1.0000
  C   C10       1.0  0.029319346276885535  0.7552381924958664  0.20971513945842454  1.0000
  C   C11       1.0  0.11604061297273924  0.8241734267324716  0.23176438095020305  1.0000
  C   C12       1.0  0.1207257041920685  0.00458485421817308  0.6167244231195143  1.0000
  C   C13       1.0  0.1050934868080234  0.8903391344118674  0.30264664318171003  1.0000
  C   C14       1.0  0.830063629547972  0.03373096025567439  0.25485715858980035  1.0000
  C   C15       1.0  0.8314062158739618  0.028331365487765905  0.3276959184540403  1.0000
  C   C16       1.0  0.7608958666109018  0.029782141548643982  0.3400620184146632  1.0000
  C   C17       1.0  0.6962352727437491  0.0379602188159183  0.28358325717338323  1.0000
  C   C18       1.0  0.6947977798843824  0.03906994686625608  0.208420830010553  1.0000
  C   C19       1.0  0.7633397265118731  0.03644097846329689  0.19558488773969876  1.0000
  C   C20       1.0  0.8007239018178538  0.03467555997116988  0.13505191247685394  1.0000
  C   C21       1.0  0.8775572266935258  0.03201362183412478  0.20307874834660572  1.0000
  C   C22       1.0  0.9759377113209385  0.22659646818195983  0.6652727797581479  1.0000
  C   C23       1.0  0.9645546174471423  0.07948769121316006  0.6035376177313481  1.0000
  C   C24       1.0  0.9664087393769378  0.1515263005164229  0.6707399772704434  1.0000
  C   C25       1.0  0.964811032587406  0.15182626972485752  0.7454924980774676  1.0000
  C   C26       1.0  0.9728963512615822  0.22401067715393452  0.8104603014209532  1.0000
  C   C27       1.0  0.9778342771572146  0.2973881269051404  0.8010598069369906  1.0000
  C   C28       1.0  0.9788053069374386  0.29549659434869824  0.7262897800524045  1.0000
  C   C29       1.0  0.0019246913709027316  0.3544875000138675  0.6887250896453312  1.0000
  C   C30       1.0  0.9993504927573015  0.2740053068004968  0.6170138650958421  1.0000
  C   C31       1.0  0.6254283381787149  0.10203878692849619  0.9870112863073645  1.0000
  C   C32       1.0  0.38626227125801194  0.03434249890013778  0.9079752361971316  1.0000
  C   C33       1.0  0.39718181758237164  0.8652363355622581  0.9835220325140598  1.0000
  C   C34       1.0  0.8993730689335067  0.015429675497017684  0.3827652178671955  1.0000
  C   C35       1.0  0.620783454128869  0.0363579877907796  0.14235888232991561  1.0000
  C   C36       1.0  0.9236126164681553  0.38612294093405797  0.0314600719660376  1.0000
  C   C37       1.0  0.979821684160882  0.6083326656425354  0.0901429626184935  1.0000
  C   C38       1.0  0.1593130876965887  0.6123746040136023  0.030511763170672203  1.0000
  C   C39       1.0  0.9894616635033273  0.3760417209067626  0.869766367399791  1.0000
  C   C40       1.0  0.7105057630072624  0.18221144594763677  0.9330511470614626  1.0000
  C   C41       1.0  0.7055421632637576  0.17236505967980517  0.0019922739809388  1.0000
  C   C42       1.0  0.77632249130437  0.23724352851946412  0.08556878038521631  1.0000
  C   C43       1.0  0.8484774349776742  0.3066687428262397  0.09720282156488481  1.0000
  C   C44       1.0  0.8507918612947164  0.31571322081143177  0.0256787185100364  1.0000
  C   C45       1.0  0.26803175028642584  0.016694681841130585  0.6840838868578275  1.0000
  C   C46       1.0  0.7780450258186493  0.2528578841946683  0.9442548294154776  1.0000
  C   C47       1.0  0.7395575583619877  0.22266340374094554  0.8475907791727695  1.0000
  C   C48       1.0  0.6648612791687473  0.1387415008282746  0.835094011572757  1.0000
  C   C49       1.0  0.27941475901619145  0.7127370553350117  0.9299448949886796  1.0000
  C   C50       1.0  0.34252167572064723  0.7969678450077636  0.9958383762931717  1.0000
  C   C51       1.0  0.34990071802699424  0.818281314724885  0.07827018419902032  1.0000
  C   C52       1.0  0.2953486430558173  0.7600401838007041  0.09352157630549132  1.0000
  C   C53       1.0  0.22743578850634805  0.6762416370171703  0.0244292805860908  1.0000
  C   C54       1.0  0.2232079231610414  0.6553789903153202  0.9442211262802048  1.0000
  C   C55       1.0  0.17279101693996787  0.5839462885757882  0.850274523308869  1.0000
  C   C56       1.0  0.34505637432707925  0.041218089847355296  0.7687862039853572  1.0000
  C   C57       1.0  0.23574395748204327  0.6492430025011372  0.8339882444153234  1.0000
  C   C58       1.0  0.22138158809671193  0.09876310830112096  0.7811254094589728  1.0000
  C   C59       1.0  0.15726583281272624  0.9335042464143439  0.7101075934891058  1.0000
  C   C60       1.0  0.1902560309867454  0.013991027372611587  0.6980403256634061  1.0000
  C   C61       1.0  0.2092671844342251  0.905260205776969  0.839259636172301  1.0000
  C   C62       1.0  0.2645227300362834  0.11771732978667164  0.9360109339095218  1.0000
  C   C63       1.0  0.12322990845920151  0.8426264824248904  0.16078725329605703  1.0000
  C   C64       1.0  0.17771950412624463  0.9371119194412002  0.3971094295992615  1.0000
  C   C65       1.0  0.8879923180280898  0.9539417806261026  0.16418174353118084  1.0000
  C   C66       1.0  0.9599696391086288  0.07613222278381934  0.760485642766824  1.0000
  C   C67       1.0  0.9868219278381293  0.22331560823501223  0.8942212318855953  1.0000
  C   C68       1.0  0.09156333158856013  0.2979352983403061  0.631481868995536  1.0000
  C   C69       1.0  0.30505653764836904  0.7903311212014896  0.18186411885580617  1.0000
  C   C70       1.0  0.24919603535119722  0.17725848428193564  0.7663399413518377  1.0000
  C   C71       1.0  0.378696488612974  0.199693542691037  0.9146603869451583  1.0000
  Cl  Cl1       1.0  0.8196388257667878  0.5299127883789295  0.1112243205541432  1.0000
  Cl  Cl2       1.0  0.08479516773846299  0.9673505985424807  0.275662780557859  1.0000
  Cl  Cl3       1.0  0.7511077908072324  0.02268990601329789  0.4266202147850536  1.0000
  Cl  Cl4       1.0  0.9298192296098122  0.39154559122607674  0.6491622261415273  1.0000
  Cl  Cl5       1.0  0.921274942760185  0.23128879715156359  0.5083609378929879  1.0000
  Cl  Cl6       1.0  0.7773823027900235  0.23189697557247504  0.17592526323576146  1.0000
  Cl  Cl7       1.0  0.9313415037113092  0.3832488806655406  0.2010479979213642  1.0000
  Cl  Cl8       1.0  0.7044388401456986  0.2881674021338867  0.8113010835763179  1.0000
  Cl  Cl9       1.0  0.5550234479812349  0.1139465731031138  0.7794140069961629  1.0000
  Cl  Cl10      1.0  0.0628634550767516  0.9075581608351013  0.7254459037188782  1.0000
  O   O1        1.0  0.02053944910647234  0.9204265005094923  0.4088500859860531  1.0000
  O   O2        1.0  0.5905346581250585  0.12530591140288286  0.030518239676844406  1.0000
  O   O3        1.0  0.4093607371735006  0.9788072052777821  0.8798550187712666  1.0000
  O   O4        1.0  0.4139337978672304  0.08390203200398366  0.9875567920259201  1.0000
  O   O5        1.0  0.41984930729773146  0.8417956277109296  0.9256441001490003  1.0000
  O   O6        1.0  0.4175822960620438  0.9426903656401037  0.03165732292693241  1.0000
  O   O7        1.0  0.5954392021296115  0.9866741752326713  0.06372706775657382  1.0000
  O   O8        1.0  0.5878765609825367  0.08347595468976725  0.16846305076821722  1.0000
  O   O9        1.0  0.0027585268131176143  0.41243977547441796  0.08632265743821681  1.0000
  O   O10       1.0  0.9009679771942701  0.4123316403653945  0.9777080157298174  1.0000
  O   O11       1.0  0.03832861699941502  0.5894988318071908  0.1207333439206906  1.0000
  O   O12       1.0  0.9036026339210964  0.8154774133872421  0.3947564490669678  1.0000
  O   O13       1.0  0.9312925946456262  0.5826760675331497  0.009932119023822801  1.0000
  O   O14       1.0  0.18227670000651136  0.5830156126707278  0.08251961446323013  1.0000
  O   O15       1.0  0.08149045760151125  0.5885993365369871  0.9780156578177073  1.0000
  O   O16       1.0  0.04335043892348275  0.40336205135741915  0.9477100424567056  1.0000
  O   O17       1.0  0.9434997396113901  0.4097183770043459  0.8423933216474069  1.0000
  O   O18       1.0  0.14805758491808535  0.056935198014137836  0.5894101185641105  1.0000
  O   O19       1.0  0.042693930275945174  0.9459470638634427  0.581714162193194  1.0000
  O   O20       1.0  0.01544518684958259  0.10431812945217438  0.5753127604634685  1.0000
  O   O21       1.0  0.912739775089321  0.0007031258035893196  0.5793208263200497  1.0000
  O   O22       1.0  0.9788206280390312  0.06197541812187523  0.4032610823391352  1.0000
  O   O23       1.0  0.873818908298958  0.9581412048280525  0.40423483965717827  1.0000
  O   O24       1.0  0.597140641354507  0.02397262262201159  0.9293268394086311  1.0000
  O   O25       1.0  0.22543951009830482  0.9467859950108987  0.9132180485512791  1.0000
  O   O26       1.0  0.1667724704590726  0.8165643833548372  0.7948834657059223  1.0000
  O   O27       1.0  0.314571265515319  0.15807333057461648  0.013742763727407204  1.0000
  O   O28       1.0  0.1768204284377008  0.07917362376613839  0.9019483294657678  1.0000
  O   O29       1.0  0.06887517033432293  0.7978863570798322  0.08404170491049003  1.0000
  O   O30       1.0  0.20003258299553295  0.9144066631926078  0.19352436778604704  1.0000
  O   O31       1.0  0.21980354081948425  0.01499373114334198  0.4457753874753295  1.0000
  O   O32       1.0  0.19015981241896185  0.8780762488309861  0.42034886084231726  1.0000
  O   O33       1.0  0.9149326241490456  0.9437238324944057  0.11276661045049961  1.0000
  O   O34       1.0  0.8627851155777009  0.8952115590111657  0.1912027190363474  1.0000
  O   O35       1.0  0.9039820861697194  0.03410097252759682  0.772229577948032  1.0000
  O   O36       1.0  0.02685796088101719  0.0637744369447192  0.7604279463599966  1.0000
  O   O37       1.0  0.04785691543681743  0.21830035084283142  0.9386528872198738  1.0000
  O   O38       1.0  0.924188450607197  0.22718254929636567  0.913857176022944  1.0000
  O   O39       1.0  0.15146054952587928  0.31957453045156115  0.701291954105507  1.0000
  O   O40       1.0  0.10173969501501301  0.297672566728366  0.563660724428715  1.0000
  O   O41       1.0  0.2463979991164251  0.7636485975130821  0.19784181207239024  1.0000
  O   O42       1.0  0.38796384282257196  0.853383021935457  0.24518590658275494  1.0000
  O   O43       1.0  0.31365446147892595  0.20869467841212247  0.7598763777939797  1.0000
  O   O44       1.0  0.19098761539746803  0.20601706332193  0.7603612796072312  1.0000
  O   O45       1.0  0.45119022002371895  0.21104199777186505  0.9298723484178597  1.0000
  O   O46       1.0  0.3610531689838371  0.2656998016709197  0.9402902274564513  1.0000
