data_image0
_chemical_formula_structural       Cd2H24C32Br4N8O4
_chemical_formula_sum              "Cd2 H24 C32 Br4 N8 O4"
_cell_length_a       3.9064751663181525
_cell_length_b       14.406677621642984
_cell_length_c       15.923125370523085
_cell_angle_alpha    72.60057892797829
_cell_angle_beta     82.94670773286305
_cell_angle_gamma    82.22545764971467

_space_group_name_H-M_alt    "P 1"
_space_group_IT_number       1

loop_
  _space_group_symop_operation_xyz
  'x, y, z'

loop_
  _atom_site_type_symbol
  _atom_site_label
  _atom_site_symmetry_multiplicity
  _atom_site_fract_x
  _atom_site_fract_y
  _atom_site_fract_z
  _atom_site_occupancy
  Cd  Cd1       1.0  0.8914562270674088  0.7501536749754224  0.2500390565711754  1.0000
  Cd  Cd2       1.0  0.10854036604841617  0.24984331090682596  0.7499658031441142  1.0000
  H   H1        1.0  0.31533757524660905  0.565834300058505  0.016275063657708675  1.0000
  H   H2        1.0  0.8973564109434308  0.9344069505230199  0.48367657347333887  1.0000
  H   H3        1.0  0.684650743886728  0.43417147230412223  0.9837247992111742  1.0000
  H   H4        1.0  0.10264862285215762  0.06559590754299902  0.516321278824428  1.0000
  H   H5        1.0  0.9858989314038595  0.6799236588516921  0.0812246968302475  1.0000
  H   H6        1.0  0.7464078750914783  0.8204565416452002  0.41875044540699935  1.0000
  H   H7        1.0  0.0140799302864497  0.3200806416567162  0.918777826947661  1.0000
  H   H8        1.0  0.25359063569661805  0.17954704331523175  0.5812483237260649  1.0000
  H   H9        1.0  0.658219153139356  0.2935227454264648  0.25485812000174946  1.0000
  H   H10       1.0  0.2067142550229662  0.20695501641242947  0.24498302721944748  1.0000
  H   H11       1.0  0.34178202961327037  0.7064786622756574  0.7451367341599989  1.0000
  H   H12       1.0  0.7932917844133555  0.7930434510234435  0.7550165799296025  1.0000
  H   H13       1.0  0.5236739544258882  0.2548233992313201  0.4180351030589122  1.0000
  H   H14       1.0  0.1961484966677247  0.2456147302285957  0.08185859919844768  1.0000
  H   H15       1.0  0.476330274040663  0.7451765455751983  0.581960202985094  1.0000
  H   H16       1.0  0.8038525169762708  0.7543888545836738  0.9181402464607088  1.0000
  H   H17       1.0  0.13435928061071686  0.37411677276607963  0.48157501981444983  1.0000
  H   H18       1.0  0.9892688552935099  0.12627908986045366  0.018391710277164505  1.0000
  H   H19       1.0  0.865646598674978  0.6258787643992819  0.5184265956125031  1.0000
  H   H20       1.0  0.010737435491293315  0.8737237632817743  0.9816074761122592  1.0000
  H   H21       1.0  0.8940551740406871  0.5322057774989519  0.38367987513768737  1.0000
  H   H22       1.0  0.8098464678636502  0.9680791785672441  0.1163346600730506  1.0000
  H   H23       1.0  0.10593650239665915  0.46778756643420405  0.6163218441669684  1.0000
  H   H24       1.0  0.19018377472207976  0.03192149120761912  0.8836625576454366  1.0000
  C   C1        1.0  0.08552005201206446  0.6102217738596071  0.125205913781798  1.0000
  C   C2        1.0  0.8207062514014822  0.8901362067268156  0.3747606339958337  1.0000
  C   C3        1.0  0.9144621268211772  0.3897803323794805  0.8747972495564511  1.0000
  C   C4        1.0  0.17929870231878917  0.10986518620394752  0.6252382224408846  1.0000
  C   C5        1.0  0.42915615687120107  0.4563490243437942  0.13313102383034447  1.0000
  C   C6        1.0  0.018462575173025193  0.0440562395291977  0.366840731848022  1.0000
  C   C7        1.0  0.570833328053503  0.5436552876592133  0.8668685856119325  1.0000
  C   C8        1.0  0.9815503387751148  0.9559422347737939  0.6331571420048616  1.0000
  C   C9        1.0  0.35757403482657674  0.43417201124270843  0.22830816005692608  1.0000
  C   C10       1.0  0.019888363739397716  0.0662425176552262  0.27166674230683435  1.0000
  C   C11       1.0  0.6424325273872353  0.565830110525802  0.7716912140105734  1.0000
  C   C12       1.0  0.9800998753186294  0.9337617895721526  0.7283341247009999  1.0000
  C   C13       1.0  0.4927504947413794  0.3447479178347381  0.28432298115119886  1.0000
  C   C14       1.0  0.121708938683966  0.15567549077255902  0.2156060401736326  1.0000
  C   C15       1.0  0.5072559873971161  0.6552527387985166  0.715677397055252  1.0000
  C   C16       1.0  0.8783057751114143  0.844321515859207  0.7843935431270735  1.0000
  C   C17       1.0  0.4159971406267787  0.32379162164255604  0.37480782009843944  1.0000
  C   C18       1.0  0.11438636093032528  0.17660451189610885  0.12511567113809718  1.0000
  C   C19       1.0  0.5840029876128696  0.6762075847749643  0.625189483445908  1.0000
  C   C20       1.0  0.8856172557254145  0.8233954208231826  0.8748828553459161  1.0000
  C   C21       1.0  0.19930641147247755  0.39145338605535335  0.41040185461488926  1.0000
  C   C22       1.0  0.0008062100827643802  0.10890904424687163  0.08955212748341519  1.0000
  C   C23       1.0  0.8006862394025374  0.6085406940271486  0.5895984194461121  1.0000
  C   C24       1.0  0.9992118808503396  0.8910923503309081  0.910446482800971  1.0000
  C   C25       1.0  0.0657665360577511  0.4802599704325916  0.356384580657334  1.0000
  C   C26       1.0  0.9024332816053259  0.020048316369987204  0.1436023460151645  1.0000
  C   C27       1.0  0.9342163859452197  0.5197333691694157  0.6436181666346101  1.0000
  C   C28       1.0  0.09758804639539426  0.9799494188032087  0.856397907968521  1.0000
  C   C29       1.0  0.1469419060292694  0.5039328793751354  0.2644242680624771  1.0000
  C   C30       1.0  0.9154248826682402  0.9964161465859221  0.23555393161697685  1.0000
  C   C31       1.0  0.8530452874737688  0.4960641191869757  0.735577065108451  1.0000
  C   C32       1.0  0.0845887454110966  0.003583785540733701  0.7644449009713978  1.0000
  Br  Br1       1.0  0.37022470162399645  0.6875170338362226  0.37783788936216206  1.0000
  Br  Br2       1.0  0.4360227577117043  0.8129305567868813  0.12228545873841767  1.0000
  Br  Br3       1.0  0.6297757202897215  0.3124814218087409  0.6221647851747035  1.0000
  Br  Br4       1.0  0.5639589718727224  0.18705763186118676  0.8777269295284498  1.0000
  N   N1        1.0  0.01958732239135231  0.5940616313916038  0.21040312527192379  1.0000
  N   N2        1.0  0.8238880131923452  0.9063016266476753  0.2895699193504626  1.0000
  N   N3        1.0  0.9803876393837501  0.40593462683816756  0.789600604603848  1.0000
  N   N4        1.0  0.17612088060420916  0.09369757440157403  0.7104289478638179  1.0000
  N   N5        1.0  0.27377963113063697  0.5460001411047061  0.0858572141053244  1.0000
  N   N6        1.0  0.9053471709727957  0.9543765861749809  0.4141045800403447  1.0000
  N   N7        1.0  0.7262089594317162  0.45400489988420406  0.9141428364416412  1.0000
  N   N8        1.0  0.09465555132059222  0.045624075530213304  0.5858943875483646  1.0000
  O   O1        1.0  0.6141881509823648  0.40154181853825593  0.09366389220323869  1.0000
  O   O2        1.0  0.10912354838568919  0.09888161300143143  0.40630380473339045  1.0000
  O   O3        1.0  0.38580847988317407  0.5984617689581457  0.906334171620955  1.0000
  O   O4        1.0  0.8908866713528595  0.9011190579587026  0.5936928007763739  1.0000
