data_image0
_chemical_formula_structural       Na8H24C24S8O36
_chemical_formula_sum              "Na8 H24 C24 S8 O36"
_cell_length_a       6.785223272770856
_cell_length_b       9.627676024510809
_cell_length_c       16.125530039111567
_cell_angle_alpha    90.00041050840352
_cell_angle_beta     89.99985193627514
_cell_angle_gamma    93.30345455366866

_space_group_name_H-M_alt    "P 1"
_space_group_IT_number       1

loop_
  _space_group_symop_operation_xyz
  'x, y, z'

loop_
  _atom_site_type_symbol
  _atom_site_label
  _atom_site_symmetry_multiplicity
  _atom_site_fract_x
  _atom_site_fract_y
  _atom_site_fract_z
  _atom_site_occupancy
  Na  Na1       1.0  0.4773237838308829  0.44515550923886577  0.841127159510272  1.0000
  Na  Na2       1.0  0.022676481550476503  0.054841703960448684  0.34112749737808207  1.0000
  Na  Na3       1.0  0.5226769409675853  0.5548454803513679  0.15887258797263126  1.0000
  Na  Na4       1.0  0.9773227690209013  0.9451592800336854  0.6588722501056099  1.0000
  Na  Na5       1.0  0.46485396770979304  0.9290280336104569  0.6407484385914729  1.0000
  Na  Na6       1.0  0.035142119508819306  0.5709758440483341  0.14075193306703684  1.0000
  Na  Na7       1.0  0.5351467570870697  0.0709729559834003  0.3592519290260869  1.0000
  Na  Na8       1.0  0.9648584510117361  0.42902306476990737  0.8592478144114681  1.0000
  H   H1        1.0  0.1430219731634637  0.8261354019611388  0.5003734712770368  1.0000
  H   H2        1.0  0.35697903302194334  0.6738637283007662  0.00037457848826250007  1.0000
  H   H3        1.0  0.856981545811287  0.17386351804930908  0.49962627619989797  1.0000
  H   H4        1.0  0.6430185119022555  0.32613412894653476  0.9996264092589374  1.0000
  H   H5        1.0  0.37932587735379303  0.7450142441864358  0.40326318182491866  1.0000
  H   H6        1.0  0.12067257744281791  0.7549833593587607  0.903263032660789  1.0000
  H   H7        1.0  0.6206730646585541  0.2549825782709619  0.5967378059192897  1.0000
  H   H8        1.0  0.8793265959879976  0.24501658425300127  0.09673733495535693  1.0000
  H   H9        1.0  0.7449113434946072  0.44468315442230016  0.7093800257740954  1.0000
  H   H10       1.0  0.7550923873142921  0.05532046447488169  0.20938135321694065  1.0000
  H   H11       1.0  0.2550879070767706  0.5553178295718267  0.2906197217096037  1.0000
  H   H12       1.0  0.2449069403960351  0.9446815599052484  0.790618394268954  1.0000
  H   H13       1.0  0.819711241598739  0.5943756157415976  0.7398896922800804  1.0000
  H   H14       1.0  0.6802892140723528  0.9056259369579607  0.23988950954079516  1.0000
  H   H15       1.0  0.180287777555769  0.40562224709454137  0.2601100551970249  1.0000
  H   H16       1.0  0.31971003650063073  0.09437504703254257  0.7601096178082474  1.0000
  H   H17       1.0  0.2881537949812625  0.39502208829384233  0.3987807643536244  1.0000
  H   H18       1.0  0.2118401203422522  0.10497369654981271  0.8987804899308574  1.0000
  H   H19       1.0  0.7118482497663906  0.6049768261204989  0.6012189831240919  1.0000
  H   H20       1.0  0.7881574245851652  0.8950241606902266  0.10121925754702943  1.0000
  H   H21       1.0  0.21505974830325408  0.35835436226873435  0.6642324646625472  1.0000
  H   H22       1.0  0.2849438339881161  0.14165327069495956  0.16423165102379766  1.0000
  H   H23       1.0  0.7849377194852067  0.6416424545853018  0.33576728281314433  1.0000
  H   H24       1.0  0.7150599164018916  0.8583487704771003  0.8357687165943803  1.0000
  C   C1        1.0  0.231176902849498  0.6500860797082169  0.5425955322162823  1.0000
  C   C2        1.0  0.26880805365678384  0.8499186851107294  0.04259625347850721  1.0000
  C   C3        1.0  0.7688163736761525  0.349913841511885  0.4574035951337124  1.0000
  C   C4        1.0  0.7311837486369512  0.15008123052415098  0.9574047342762457  1.0000
  C   C5        1.0  0.2606551486326296  0.5872968464483461  0.4647722026008126  1.0000
  C   C6        1.0  0.23935485825884237  0.9127025621847762  0.9647726038421072  1.0000
  C   C7        1.0  0.7393559728928523  0.41270522270422555  0.5352281650134219  1.0000
  C   C8        1.0  0.76064703220608  0.08729427146845839  0.035229004035180415  1.0000
  C   C9        1.0  0.2648650810652242  0.44287609265072087  0.4588675871781121  1.0000
  C   C10       1.0  0.2351154861418721  0.05712346627574759  0.9588683215556417  1.0000
  C   C11       1.0  0.7351267983706862  0.557124863362901  0.5411321603095374  1.0000
  C   C12       1.0  0.7648850072413396  0.9428744021528668  0.04113080578601112  1.0000
  C   C13       1.0  0.2452541239030808  0.36169352212569805  0.530212674706384  1.0000
  C   C14       1.0  0.2547482160835343  0.138306294285826  0.03021001909758071  1.0000
  C   C15       1.0  0.7547479979835289  0.6383064326746393  0.4697870727735351  1.0000
  C   C16       1.0  0.7452550714743468  0.861689504566627  0.9697897283727531  1.0000
  C   C17       1.0  0.22733252560198744  0.4217859804252412  0.6083838877703516  1.0000
  C   C18       1.0  0.2726621151406619  0.0782157633710341  0.10838591487511452  1.0000
  C   C19       1.0  0.7726651736033433  0.5782139575867901  0.39161585971193363  1.0000
  C   C20       1.0  0.7273385325172441  0.9217841858368274  0.8916144527402496  1.0000
  C   C21       1.0  0.22228183035932153  0.565819746998713  0.6140596731290986  1.0000
  C   C22       1.0  0.2777261119077181  0.9341828226257359  0.11405640678412253  1.0000
  C   C23       1.0  0.7777189715764977  0.4341822829811477  0.3859406944906568  1.0000
  C   C24       1.0  0.7222775613497634  0.06581817814581109  0.8859414802932408  1.0000
  S   S1        1.0  0.2490623631591617  0.1785402477454383  0.5232996371225057  1.0000
  S   S2        1.0  0.2509286045321915  0.3214646449366683  0.023300875383547706  1.0000
  S   S3        1.0  0.7509364245784836  0.8214544939327125  0.4767001103479986  1.0000
  S   S4        1.0  0.74906878611732  0.678531131531379  0.9766988720899409  1.0000
  S   S5        1.0  0.2124322059327639  0.6442985375635785  0.7138872638147407  1.0000
  S   S6        1.0  0.2875792472323369  0.8557197770866909  0.21388426883272166  1.0000
  S   S7        1.0  0.7875668903607006  0.35570036565855634  0.2861124836645602  1.0000
  S   S8        1.0  0.7124215547115185  0.1442822528750227  0.7861129981137653  1.0000
  O   O1        1.0  0.21664219600499024  0.7910384584130695  0.5492709731575048  1.0000
  O   O2        1.0  0.28336631352807723  0.7089664740795528  0.04927231163707552  1.0000
  O   O3        1.0  0.7833582202392648  0.2089583696295492  0.4507281541819525  1.0000
  O   O4        1.0  0.7166388339468598  0.2910345323098723  0.9507292962474242  1.0000
  O   O5        1.0  0.2804765436574145  0.6655929211919444  0.39412227968823293  1.0000
  O   O6        1.0  0.2195176129789829  0.8344055989702497  0.8941236054552777  1.0000
  O   O7        1.0  0.7195197584613808  0.33440805160635273  0.605876847662387  1.0000
  O   O8        1.0  0.7804800090809608  0.16559329867030206  0.10587862256343072  1.0000
  O   O9        1.0  0.0609231766270284  0.12143763774962221  0.5591173537958982  1.0000
  O   O10       1.0  0.4390760650629558  0.3785625057882456  0.059115532775926724  1.0000
  O   O11       1.0  0.9390716512566329  0.8785633294707154  0.44088487422878603  1.0000
  O   O12       1.0  0.560921711282937  0.6214384726061509  0.9408835945739045  1.0000
  O   O13       1.0  0.4196271533620077  0.1384163430521426  0.5730193740145639  1.0000
  O   O14       1.0  0.0803665821771489  0.3615901831529484  0.07302097061820943  1.0000
  O   O15       1.0  0.5803765198874302  0.861584657737559  0.426981613736075  1.0000
  O   O16       1.0  0.9196341426229324  0.6384108064336544  0.9269781567300444  1.0000
  O   O17       1.0  0.2681527460049722  0.1446864367679126  0.43495641120365053  1.0000
  O   O18       1.0  0.23184121321293819  0.3553128926273032  0.9349522324256301  1.0000
  O   O19       1.0  0.7318478245204076  0.8553124720394365  0.5650414758708923  1.0000
  O   O20       1.0  0.7681594344449677  0.6446870565805582  0.06504813518973412  1.0000
  O   O21       1.0  0.20853826414814594  0.5288504053228068  0.7736878422589231  1.0000
  O   O22       1.0  0.2914760674723453  0.9711519798725733  0.2736847202310956  1.0000
  O   O23       1.0  0.7914642434300279  0.4711547514147726  0.22631314550130105  1.0000
  O   O24       1.0  0.7085257458568394  0.028843813387403796  0.7263156473746764  1.0000
  O   O25       1.0  0.02776941563894299  0.7189783344434628  0.7165373604641376  1.0000
  O   O26       1.0  0.47223449835848896  0.781037902509112  0.21654066442184225  1.0000
  O   O27       1.0  0.9722343347494518  0.2810237067322277  0.28346362728869684  1.0000
  O   O28       1.0  0.5277618808912266  0.2189641106933279  0.7834615636042488  1.0000
  O   O29       1.0  0.39112212140948804  0.7354441758523291  0.7197358529130542  1.0000
  O   O30       1.0  0.1088855815743344  0.7645637922427325  0.21974010118394466  1.0000
  O   O31       1.0  0.6088740264281826  0.26455471618123017  0.28026451470248054  1.0000
  O   O32       1.0  0.891118091673505  0.23543720855059286  0.7802615067013507  1.0000
  O   O33       1.0  0.7371376656809903  0.5108069627611441  0.7554921450763248  1.0000
  O   O34       1.0  0.7628683745970407  0.9891916737883336  0.25549285268630945  1.0000
  O   O35       1.0  0.26286290483956526  0.4891919460570975  0.2445076024021874  1.0000
  O   O36       1.0  0.23713095311168086  0.010810350595420497  0.7445075149342416  1.0000
