data_image0
_chemical_formula_structural       Cu2Mo8H22C24N4O26
_chemical_formula_sum              "Cu2 Mo8 H22 C24 N4 O26"
_cell_length_a       8.337427953578798
_cell_length_b       10.800679712899736
_cell_length_c       12.473567140634902
_cell_angle_alpha    110.45480869865357
_cell_angle_beta     106.66523415343374
_cell_angle_gamma    96.97832484753769

_space_group_name_H-M_alt    "P 1"
_space_group_IT_number       1

loop_
  _space_group_symop_operation_xyz
  'x, y, z'

loop_
  _atom_site_type_symbol
  _atom_site_label
  _atom_site_symmetry_multiplicity
  _atom_site_fract_x
  _atom_site_fract_y
  _atom_site_fract_z
  _atom_site_occupancy
  Cu  Cu1       1.0  0.21934649530789582  0.8870784971172015  0.7029909130798373  1.0000
  Cu  Cu2       1.0  0.7806516731513113  0.11292432694838081  0.29700757082071044  1.0000
  Mo  Mo1       1.0  0.012939877553556195  0.5580785433942379  0.6500594881950332  1.0000
  Mo  Mo2       1.0  0.9870629756141297  0.44192325423078654  0.34993958054820223  1.0000
  Mo  Mo3       1.0  0.6245717165317399  0.5714142785668128  0.655353829800603  1.0000
  Mo  Mo4       1.0  0.37542706101864803  0.42858650428774325  0.34464415151396105  1.0000
  Mo  Mo5       1.0  0.5888041119040465  0.2495421087626681  0.513715912386587  1.0000
  Mo  Mo6       1.0  0.4111946667005454  0.750458672587662  0.48628367206471507  1.0000
  Mo  Mo7       1.0  0.1963154589568106  0.26671887977666126  0.5089668785093621  1.0000
  Mo  Mo8       1.0  0.8036855008789487  0.7332808792195278  0.49103201142445124  1.0000
  H   H1        1.0  0.4298171443604842  0.11602434084900173  0.7168154327357426  1.0000
  H   H2        1.0  0.5701816342441076  0.8839764405013356  0.28318415171556666  1.0000
  H   H3        1.0  0.6093613106444662  0.343696659990023  0.8682347485372189  1.0000
  H   H4        1.0  0.39063997196455347  0.6563041165217811  0.13176691684265046  1.0000
  H   H5        1.0  0.6439815883824522  0.40807523449772987  0.09207301558031124  1.0000
  H   H6        1.0  0.3560199821257938  0.5919224810311049  0.9079277764726327  1.0000
  H   H7        1.0  0.48735391092724  0.24277523384942165  0.14651567042099597  1.0000
  H   H8        1.0  0.5126457984876038  0.7572245253097092  0.8534845837536407  1.0000
  H   H9        1.0  0.1817045308834508  0.9049462982731243  0.9016318158872351  1.0000
  H   H10       1.0  0.8182964300065051  0.0950534592188532  0.09836867718331627  1.0000
  H   H11       1.0  0.33315215315035107  0.1007658710173587  0.17620860793363133  1.0000
  H   H12       1.0  0.6668447321222999  0.8992328717041431  0.8237907977082414  1.0000
  H   H13       1.0  0.03063205700799182  0.7567852532801068  0.9287443793726948  1.0000
  H   H14       1.0  0.9693635783708529  0.24321348885222696  0.07125719207838431  1.0000
  H   H15       1.0  0.8568675839918425  0.602381885434873  0.9815435711715137  1.0000
  H   H16       1.0  0.14313055486432794  0.397616852611037  0.01845927963975668  1.0000
  H   H17       1.0  0.8740897410079426  0.6703785907801246  0.20121975567589345  1.0000
  H   H18       1.0  0.12591122199042093  0.3296211637034147  0.798783943668141  1.0000
  H   H19       1.0  0.07480185977105679  0.894677600458486  0.35883067442550487  1.0000
  H   H20       1.0  0.9251994228379625  0.10532317605331795  0.6411709909543645  1.0000
  H   H21       1.0  0.23502800404454396  0.03059565570236339  0.302673768346139  1.0000
  H   H22       1.0  0.7649701332303278  0.9694030845998751  0.6973266777600172  1.0000
  C   C1        1.0  0.4419320410919808  0.14863565285549632  0.8123666949981896  1.0000
  C   C2        1.0  0.5580667380397132  0.8513651277427317  0.18763369102148902  1.0000
  C   C3        1.0  0.5444964922707314  0.27611191997143436  0.8987539985860663  1.0000
  C   C4        1.0  0.4555047898111865  0.7238888572924791  0.10124686522543402  1.0000
  C   C5        1.0  0.5614619028219963  0.31099061933589667  0.020832850149766113  1.0000
  C   C6        1.0  0.4385403095430718  0.68900913648892  0.9791678818166928  1.0000
  C   C7        1.0  0.47297483244293653  0.21851474441567825  0.05140859593233667  1.0000
  C   C8        1.0  0.5270245563070474  0.7814839942193996  0.9485920890697341  1.0000
  C   C9        1.0  0.3647863795881319  0.09413829393928808  0.9596488341216582  1.0000
  C   C10       1.0  0.6352120783515999  0.9058614668869963  0.04035118115707786  1.0000
  C   C11       1.0  0.26047164424136326  0.9961309370239986  0.9834892189455002  1.0000
  C   C12       1.0  0.739526171314445  0.003866784258413198  0.01651005485133786  1.0000
  C   C13       1.0  0.2540615850541386  0.010096984288949798  0.0943174865005219  1.0000
  C   C14       1.0  0.7459365511665296  0.9899017575175079  0.9056813564688964  1.0000
  C   C15       1.0  0.14679301280827414  0.9102061835422647  0.11376587820046068  1.0000
  C   C16       1.0  0.8532048032746359  0.08979153698803799  0.8862341971647536  1.0000
  C   C17       1.0  0.0381659557648958  0.78557893898612  0.02306002942263768  1.0000
  C   C18       1.0  0.9618302881780352  0.21441776268729024  0.9769402378740892  1.0000
  C   C19       1.0  0.940982616715118  0.6984085221963736  0.05348807063545974  1.0000
  C   C20       1.0  0.05901519989488682  0.301589197581819  0.9465128062981234  1.0000
  C   C21       1.0  0.9492109856981439  0.7352845769721056  0.1743777901763436  1.0000
  C   C22       1.0  0.05078965505405358  0.2647141592437166  0.8256239352900039  1.0000
  C   C23       1.0  0.05856042104185362  0.857976659036815  0.2623856352072308  1.0000
  C   C24       1.0  0.9414405409022988  0.14202309695094328  0.7376164610000585  1.0000
  N   N1        1.0  0.3526198736608706  0.05936937082284998  0.8405296493901558  1.0000
  N   N2        1.0  0.6473789054708303  0.9406314097753707  0.15947073662952244  1.0000
  N   N3        1.0  0.15251566759932422  0.9402281037007253  0.2306775935092345  1.0000
  N   N4        1.0  0.8474837211506595  0.059770634934359586  0.7693230914928363  1.0000
  O   O1        1.0  0.055935597609106824  0.5199439137291789  0.775622729661812  1.0000
  O   O2        1.0  0.9440685070336909  0.4800578822286852  0.22437657797733815  1.0000
  O   O3        1.0  0.8431047117648447  0.6739702231465897  0.6654515288750317  1.0000
  O   O4        1.0  0.15689624701670363  0.3260295373538184  0.3345457579220365  1.0000
  O   O5        1.0  0.7495021813535059  0.4213826761925432  0.56938191545985  1.0000
  O   O6        1.0  0.2504975275342358  0.5786170837186971  0.4306175371464177  1.0000
  O   O7        1.0  0.6722816411572479  0.5622997244095415  0.7942804507545203  1.0000
  O   O8        1.0  0.32771777877706393  0.4377030979888871  0.20571827204193477  1.0000
  O   O9        1.0  0.4366788468735904  0.4144046312243501  0.5502639775657839  1.0000
  O   O10       1.0  0.5633186802558894  0.5855961517931404  0.44973536798961056  1.0000
  O   O11       1.0  0.5149075480035064  0.7018188216931662  0.6648338284469019  1.0000
  O   O12       1.0  0.48509187245791446  0.2981839999531459  0.33516569591792217  1.0000
  O   O13       1.0  0.6705187397366571  0.1273971015043571  0.42683111424624076  1.0000
  O   O14       1.0  0.3294822206261968  0.8726026567397296  0.5731685772559415  1.0000
  O   O15       1.0  0.6315782909388257  0.2306512887295539  0.6488879184760703  1.0000
  O   O16       1.0  0.3684208088577349  0.7693505123927122  0.35111203671618785  1.0000
  O   O17       1.0  0.2449462073623465  0.2676303378465761  0.6514360419840199  1.0000
  O   O18       1.0  0.7550516071392579  0.7323673849400548  0.3485616286760801  1.0000
  O   O19       1.0  0.341598909612422  0.15942592197366412  0.4420260945240385  1.0000
  O   O20       1.0  0.6584023719423939  0.8405748560423517  0.5579739677190856  1.0000
  O   O21       1.0  0.08693512660676811  0.42349621134454185  0.538493447262155  1.0000
  O   O22       1.0  0.9130661544209456  0.5765045674235905  0.4615058134126  1.0000
  O   O23       1.0  0.9932269862931519  0.8619647478785025  0.5821635662227606  1.0000
  O   O24       1.0  0.006773971961301574  0.13803501337401503  0.41783291900593866  1.0000
  O   O25       1.0  0.17768452314227542  0.7044074534256451  0.7001183279482958  1.0000
  O   O26       1.0  0.8223158270751865  0.2955943475336936  0.29988026300312487  1.0000
