data_image0
_chemical_formula_structural       Cd4H40C48N16O28
_chemical_formula_sum              "Cd4 H40 C48 N16 O28"
_cell_length_a       6.976816597470639
_cell_length_b       9.559632565
_cell_length_c       20.8273
_cell_angle_alpha    90.0
_cell_angle_beta     93.28277781720897
_cell_angle_gamma    90.0

_space_group_name_H-M_alt    "P 1"
_space_group_IT_number       1

loop_
  _space_group_symop_operation_xyz
  'x, y, z'

loop_
  _atom_site_type_symbol
  _atom_site_label
  _atom_site_symmetry_multiplicity
  _atom_site_fract_x
  _atom_site_fract_y
  _atom_site_fract_z
  _atom_site_occupancy
  Cd  Cd1       1.0  0.7003305335693852  0.4145996169885252  0.283636671809198  1.0000
  Cd  Cd2       1.0  0.2996697305946867  0.9146010519286136  0.2163642935362304  1.0000
  Cd  Cd3       1.0  0.2996697305946867  0.5853990686304158  0.716363333258137  1.0000
  Cd  Cd4       1.0  0.7003305335693852  0.08539763369032732  0.7836371519482414  1.0000
  H   H1        1.0  0.7635605007273583  0.7589120136857447  0.2846181545976023  1.0000
  H   H2        1.0  0.2364340207395443  0.2589158090722066  0.215381740310356  1.0000
  H   H3        1.0  0.23643545641383673  0.24108562586788201  0.7153808075721031  1.0000
  H   H4        1.0  0.7635605007273583  0.7410849686773489  0.7846191148756957  1.0000
  H   H5        1.0  0.8592209144620426  0.9472686254861316  0.3628447249401461  1.0000
  H   H6        1.0  0.14077504267915233  0.4472745130032081  0.13715375709050903  1.0000
  H   H7        1.0  0.1407764783534446  0.052729014067495  0.637152344213206  1.0000
  H   H8        1.0  0.859218043113458  0.5527241726157257  0.8628461102776016  1.0000
  H   H9        1.0  0.8848347795014462  0.8888667992439708  0.4810555948733821  1.0000
  H   H10       1.0  0.1151611776397488  0.3888622261079533  0.018942887157273  1.0000
  H   H11       1.0  0.11517266303408043  0.11113502457089201  0.5189402266417318  1.0000
  H   H12       1.0  0.8848319081528615  0.6111312291844371  0.9810560199327442  1.0000
  H   H13       1.0  0.8546468561684792  0.712710447150954  0.5674095303748672  1.0000
  H   H14       1.0  0.1453491009727159  0.21270692008025094  0.9325908722119821  1.0000
  H   H15       1.0  0.1453519723213006  0.2872903305986015  0.43258900673547634  1.0000
  H   H16       1.0  0.8546511631913492  0.7872875812774538  0.06741009313344651  1.0000
  H   H17       1.0  0.7834661247826988  0.4698674315627329  0.599996177429297  1.0000
  H   H18       1.0  0.2165269610099116  0.9698636361762711  0.9000036899388135  1.0000
  H   H19       1.0  0.21653126803278874  0.5301354383174441  0.4000023321411987  1.0000
  H   H20       1.0  0.7834747388284526  0.030130865181426703  0.0999949022512183  1.0000
  H   H21       1.0  0.6915097507207693  0.22562059632885223  0.5703663929365775  1.0000
  H   H22       1.0  0.3084919491175882  0.7256199391383191  0.9296331595315478  1.0000
  H   H23       1.0  0.30848477074613373  0.7743791353553962  0.4296320615542371  1.0000
  H   H24       1.0  0.6915154934179384  0.2743787464806218  0.0703665030959542  1.0000
  H   H25       1.0  0.6155353028747896  0.05029586615707161  0.4834428209227539  1.0000
  H   H26       1.0  0.384467832637867  0.5502941629012312  0.0165596399195067  1.0000
  H   H27       1.0  0.3844620899406976  0.9497028194618693  0.5165566489258353  1.0000
  H   H28       1.0  0.615536738549082  0.4497034766524024  0.9834428484626018  1.0000
  H   H29       1.0  0.5932076962892339  0.12926019819256854  0.36872318249708513  1.0000
  H   H30       1.0  0.4067896965262464  0.6292616331326571  0.131277727768655  1.0000
  H   H31       1.0  0.4067954392234158  0.8707426716876158  0.6312759173718376  1.0000
  H   H32       1.0  0.5932048249406563  0.3707380985515912  0.8687245678345406  1.0000
  H   H33       1.0  0.1252582749337421  0.3931437714206751  0.3032074818148089  1.0000
  H   H34       1.0  0.8747405535560375  0.8931441602954564  0.1967920155736351  1.0000
  H   H35       1.0  0.8747419892303299  0.6068580523941947  0.6967920431134758  1.0000
  H   H36       1.0  0.1252582749337421  0.10685452532348451  0.8032070016757586  1.0000
  H   H37       1.0  0.044225946557865804  0.2386378330431143  0.3086683895737252  1.0000
  H   H38       1.0  0.9557771889547908  0.7386392679832028  0.1913307102951975  1.0000
  H   H39       1.0  0.9557771889547908  0.7613629447064412  0.6913321507123413  1.0000
  H   H40       1.0  0.044223075209281114  0.26136046370104543  0.8086683344940367  1.0000
  C   C1        1.0  0.7743524643785664  0.7373505155216193  0.3359196485655147  1.0000
  C   C2        1.0  0.2256449284369211  0.2373501266468381  0.16408030142213192  1.0000
  C   C3        1.0  0.22563775006545947  0.2626492161626288  0.664079203444814  1.0000
  C   C4        1.0  0.7743524643785664  0.7626464668414812  0.8359191684264646  1.0000
  C   C5        1.0  0.827284339841704  0.8430104342613944  0.38026180251177527  1.0000
  C   C6        1.0  0.1727101816251988  0.3430173678437854  0.11973521156188842  1.0000
  C   C7        1.0  0.17270731027662126  0.1569882513575465  0.6197337160650562  1.0000
  C   C8        1.0  0.8272886468645739  0.6569855020363988  0.880264765965599  1.0000
  C   C9        1.0  0.8411701815916646  0.8108209125504189  0.4449412219034414  1.0000
  C   C10       1.0  0.1588315182466999  0.3108163394144015  0.05506025112087801  1.0000
  C   C11       1.0  0.15882721122382296  0.1891871876563087  0.5550572876670614  1.0000
  C   C12       1.0  0.8411730529402492  0.6891823462045394  0.9449374358707416  1.0000
  C   C13       1.0  0.7984028801142387  0.6738480748292234  0.4652363925551199  1.0000
  C   C14       1.0  0.2016031267470026  0.17385082415037093  0.03476276239349121  1.0000
  C   C15       1.0  0.2015988197241256  0.32615270292033227  0.5347602790787178  1.0000
  C   C16       1.0  0.7984014444399463  0.8261478614685629  0.965239245849567  1.0000
  C   C17       1.0  0.8107654714406395  0.6343088982520939  0.5315531548088331  1.0000
  C   C18       1.0  0.18923622839772494  0.1343022329854549  0.9684487983545367  1.0000
  C   C19       1.0  0.18923192137484796  0.36569397162808315  0.4684453547616699  1.0000
  C   C20       1.0  0.8107626000920549  0.8656943605028644  0.0315535798681879  1.0000
  C   C21       1.0  0.7708293196665752  0.5007378649181362  0.5495437108887486  1.0000
  C   C22       1.0  0.2291680731489123  0.0007395681739766001  0.9504581596550921  1.0000
  C   C23       1.0  0.2291623304517501  0.4992639588967265  0.4504546885223775  1.0000
  C   C24       1.0  0.7708336266894451  0.999254933183721  0.049542353091133924  1.0000
  C   C25       1.0  0.7174595635444518  0.3965936948121609  0.502651781307577  1.0000
  C   C26       1.0  0.28253639359674315  0.8965898994256989  0.9973495815573657  1.0000
  C   C27       1.0  0.28253639359674315  0.6034091750680162  0.49734814114022197  1.0000
  C   C28       1.0  0.7174710489387836  0.1034108783238565  0.0026515214872802045  1.0000
  C   C29       1.0  0.6825611928601916  0.2564042062635465  0.5198055843902694  1.0000
  C   C30       1.0  0.317437635629588  0.7563993648117773  0.9801991945276997  1.0000
  C   C31       1.0  0.3174347642810034  0.743596571486009  0.48019241750133557  1.0000
  C   C32       1.0  0.6825726782545233  0.24359304441529875  0.0198067649871234  1.0000
  C   C33       1.0  0.6393861598839052  0.1595542495623121  0.4719828090341451  1.0000
  C   C34       1.0  0.3606126686058745  0.6595556845024009  0.028018128771442705  1.0000
  C   C35       1.0  0.360611232931582  0.8404496663831794  0.528018101231595  1.0000
  C   C36       1.0  0.6393875955581905  0.3404534617696342  0.9719813961568421  1.0000
  C   C37       1.0  0.6277169992404268  0.2032013246107454  0.4075163605237648  1.0000
  C   C38       1.0  0.37228326492364533  0.7032006674202125  0.0924860452388145  1.0000
  C   C39       1.0  0.37227895790076815  0.7967994531388173  0.5924830817849909  1.0000
  C   C40       1.0  0.6277213062632967  0.2967927878721781  0.9075174034213873  1.0000
  C   C41       1.0  0.704565772730092  0.43154378287550804  0.43609868381985  1.0000
  C   C42       1.0  0.2954273130625182  0.9315420796196677  0.0639031041044547  1.0000
  C   C43       1.0  0.295430184411103  0.5684580409393619  0.5639007584889058  1.0000
  C   C44       1.0  0.7045801294730154  0.0684566059992733  0.936099439357335  1.0000
  C   C45       1.0  0.7457035838863675  0.5734310354218124  0.4170287793345437  1.0000
  C   C46       1.0  0.2542966802777045  0.0734316926123384  0.0829731462889853  1.0000
  C   C47       1.0  0.254299551626282  0.4265686962624359  0.5829708006734293  1.0000
  C   C48       1.0  0.7457064552349522  0.9265680390719099  0.9170278741361315  1.0000
  N   N1        1.0  0.7365784380879037  0.6069406915536605  0.3535541245185314  1.0000
  N   N2        1.0  0.2634160833789991  0.10694134874419352  0.1464457703894197  1.0000
  N   N3        1.0  0.2634203904018761  0.3930579940652805  0.6464448927308553  1.0000
  N   N4        1.0  0.7365813094364883  0.8930573368747475  0.8535556200153708  1.0000
  N   N5        1.0  0.6588223184458357  0.3348538741666616  0.3901236690625041  1.0000
  N   N6        1.0  0.3411722030210669  0.8348574012373646  0.10987718612354772  1.0000
  N   N7        1.0  0.3411736386953592  0.6651500417788299  0.6098767335243451  1.0000
  N   N8        1.0  0.6588294968172976  0.1651517450346702  0.8901228464836279  1.0000
  N   N9        1.0  0.3096591523167973  0.6067450773407402  0.2748471969258404  1.0000
  N   N10       1.0  0.69033824049869  0.1067467805965805  0.22515275306179916  1.0000
  N   N11       1.0  0.6903396761729825  0.3932525622128864  0.7251523004625967  1.0000
  N   N12       1.0  0.309657716642505  0.8932508589570461  0.7748481296640932  1.0000
  N   N13       1.0  0.7662940245788834  0.5156756775410614  0.1551295553768242  1.0000
  N   N14       1.0  0.2337062395851888  0.015674242600972804  0.3448723702466978  1.0000
  N   N15       1.0  0.23370911093377345  0.484328238404423  0.8448714650482926  1.0000
  N   N16       1.0  0.7662968959274681  0.9843254890832753  0.6551291303174623  1.0000
  O   O1        1.0  0.347842345780613  0.4759346103591612  0.2831754463606089  1.0000
  O   O2        1.0  0.6521550470348745  0.9759349992339353  0.21682498376608814  1.0000
  O   O3        1.0  0.6521564827091668  0.5240630291944726  0.716825491444979  1.0000
  O   O4        1.0  0.3478437814549054  0.024063686384998603  0.7831749937614064  1.0000
  O   O5        1.0  0.16921862174762484  0.6598255693523072  0.2999148340764606  1.0000
  O   O6        1.0  0.830780206742155  0.159825180477533  0.20008514345102668  1.0000
  O   O7        1.0  0.83078164241644  0.340174162331941  0.7000851709908744  1.0000
  O   O8        1.0  0.1692157503990401  0.8401735051414079  0.7999147789967721  1.0000
  O   O9        1.0  0.419317390396202  0.6785585069189324  0.24056914164635404  1.0000
  O   O10       1.0  0.5806800024192853  0.1785602101747727  0.259429848063192  1.0000
  O   O11       1.0  0.580678566744993  0.3214380865693869  0.7594293403843011  1.0000
  O   O12       1.0  0.419317390396202  0.8214374293788538  0.7405710622025482  1.0000
  O   O13       1.0  0.6339808461754046  0.43037323579392256  0.1690232544623669  1.0000
  O   O14       1.0  0.36602085366295983  0.9303694404074606  0.3309796589791034  1.0000
  O   O15       1.0  0.3660194179886673  0.569630680151562  0.8309796314392557  1.0000
  O   O16       1.0  0.6339808461754046  0.0696261070155444  0.6690237346014101  1.0000
  O   O17       1.0  0.8742466815996721  0.5646775609099991  0.202308942312861  1.0000
  O   O18       1.0  0.1257564539129845  0.0646761259699105  0.2976911178341552  1.0000
  O   O19       1.0  0.1257535825643998  0.4353253089701781  0.7976925031716106  1.0000
  O   O20       1.0  0.8742481172739645  0.9353236057143377  0.7023089698527087  1.0000
  O   O21       1.0  0.7911125260606442  0.5497763605729133  0.0985939260687516  1.0000
  O   O22       1.0  0.20888630242912856  0.0497759716981321  0.40140509118063505  1.0000
  O   O23       1.0  0.2088877381034209  0.4502244171766421  0.9014070392766768  1.0000
  O   O24       1.0  0.7911139617349365  0.9502279442473522  0.5985944337476425  1.0000
  O   O25       1.0  0.012029514890713203  0.3385213791425699  0.3149042858070459  1.0000
  O   O26       1.0  0.9879707492733587  0.838521768017344  0.1850952391212317  1.0000
  O   O27       1.0  0.9879707492733587  0.6614793986069927  0.6850947589821885  1.0000
  O   O28       1.0  0.012029514890713203  0.1614790097322114  0.8149047659460962  1.0000
