data_image0
_chemical_formula_structural       Cu2H24C28S4N16
_chemical_formula_sum              "Cu2 H24 C28 S4 N16"
_cell_length_a       8.013088911924457
_cell_length_b       9.079051334362724
_cell_length_c       12.280929091391986
_cell_angle_alpha    111.73487115292625
_cell_angle_beta     101.7931724004698
_cell_angle_gamma    90.00660343128142

_space_group_name_H-M_alt    "P 1"
_space_group_IT_number       1

loop_
  _space_group_symop_operation_xyz
  'x, y, z'

loop_
  _atom_site_type_symbol
  _atom_site_label
  _atom_site_symmetry_multiplicity
  _atom_site_fract_x
  _atom_site_fract_y
  _atom_site_fract_z
  _atom_site_occupancy
  Cu  Cu1       1.0  0.9999996487465809  0.4999977132292273  0.49999240299178654  1.0000
  Cu  Cu2       1.0  0.5000014774143366  0.9999775293253138  0.5000055729077674  1.0000
  H   H1        1.0  0.9312417382967552  0.6711949301462283  0.3094820867922508  1.0000
  H   H2        1.0  0.5692557095202062  0.36209149115801864  0.690804751582121  1.0000
  H   H3        1.0  0.0687549862634143  0.32881488667774056  0.6905175954390402  1.0000
  H   H4        1.0  0.4307213589259575  0.637871899139249  0.30919823670401314  1.0000
  H   H5        1.0  0.634097435215331  0.2975466993589606  0.32010094727943544  1.0000
  H   H6        1.0  0.8655419145510236  0.9774093620874709  0.6803675886064086  1.0000
  H   H7        1.0  0.3659027665748269  0.7024453002389991  0.6798812687773009  1.0000
  H   H8        1.0  0.13447859552065472  0.0225824755355291  0.31964743980292104  1.0000
  H   H9        1.0  0.4401687551222154  0.39422087803436784  0.0390997851321444  1.0000
  H   H10       1.0  0.059832265500702406  0.3555569257839863  0.9615965422685165  1.0000
  H   H11       1.0  0.5598303134848309  0.605786571618431  0.9608938604746627  1.0000
  H   H12       1.0  0.9401660491214018  0.6444564372860527  0.0384100298057107  1.0000
  H   H13       1.0  0.3464834891179009  0.359139405400562  0.14840928762748726  1.0000
  H   H14       1.0  0.1534736190622823  0.21124390900380519  0.8519658319052894  1.0000
  H   H15       1.0  0.6535141967369359  0.640866860805346  0.8515830321070298  1.0000
  H   H16       1.0  0.8465328975356884  0.7887753846367785  0.14804266065437588  1.0000
  H   H17       1.0  0.3883146078280362  0.1086965316103701  0.18633408223563921  1.0000
  H   H18       1.0  0.11127765828441483  0.9221683330451357  0.8134664371780931  1.0000
  H   H19       1.0  0.6116899132059855  0.8913145014745892  0.8136531397768322  1.0000
  H   H20       1.0  0.8887304197923028  0.07784025307216072  0.18653687462834512  1.0000
  H   H21       1.0  0.5630507342407399  0.17841384592065174  0.8982807479323045  1.0000
  H   H22       1.0  0.9374439101062747  0.2803165699064749  0.10210602054630162  1.0000
  H   H23       1.0  0.4369528277779864  0.8216007406045733  0.10171302338621058  1.0000
  H   H24       1.0  0.06256154382153063  0.719705095774785  0.8979062393340769  1.0000
  C   C1        1.0  0.8322081684924357  0.5763379028798923  0.28434926402175625  1.0000
  C   C2        1.0  0.6679861432652955  0.2921696818610968  0.7159702570530726  1.0000
  C   C3        1.0  0.16778697284387786  0.4236683761646134  0.7156410887943849  1.0000
  C   C4        1.0  0.33199298684633755  0.707802050835582  0.28403041924875083  1.0000
  C   C5        1.0  0.6834751794116086  0.38716919014086665  0.2935609210385195  1.0000
  C   C6        1.0  0.8164336837169442  0.0937174610871452  0.706847104741847  1.0000
  C   C7        1.0  0.31651312902487666  0.6128323248467853  0.706433716308915  1.0000
  C   C8        1.0  0.1835687709455698  0.9062720584516556  0.2931616023200619  1.0000
  C   C9        1.0  0.45580797204126355  0.3372228134067541  0.1047509045185038  1.0000
  C   C10       1.0  0.0442709677824595  0.23291200045510857  0.8957448001298759  1.0000
  C   C11       1.0  0.5441920782274038  0.662767945525431  0.8952456065584826  1.0000
  C   C12       1.0  0.9557325668839027  0.7671025522037168  0.10425872947753595  1.0000
  C   C13       1.0  0.4743882401400442  0.16176531341358924  0.04837944232657783  1.0000
  C   C14       1.0  0.025916516312498996  0.11352232710967772  0.9518799652253093  1.0000
  C   C15       1.0  0.5256106279953625  0.8382397819066296  0.9516061997373556  1.0000
  C   C16       1.0  0.9740880150698105  0.8865029371670374  0.04812583290924986  1.0000
  C   C17       1.0  0.4390278200134645  0.06093105225904341  0.10523938925866362  1.0000
  C   C18       1.0  0.060975038167292425  0.9556817705681059  0.8947152741665223  1.0000
  C   C19       1.0  0.5609726073213253  0.9390633327156904  0.8947418852427946  1.0000
  C   C20       1.0  0.9390308805259622  0.0443446827998955  0.10529022345883732  1.0000
  C   C21       1.0  0.5352370423492375  0.0999768826097309  0.9426754715174326  1.0000
  C   C22       1.0  0.9651606298631493  0.1574143592502821  0.057604241000802955  1.0000
  C   C23       1.0  0.4647656971213436  0.9000150956830311  0.057311151029907186  1.0000
  C   C24       1.0  0.03485796916331909  0.8425977592221867  0.9424038997647417  1.0000
  C   C25       1.0  0.35302411219696245  0.2710660365415407  0.42779459502651923  1.0000
  C   C26       1.0  0.14727384087410664  0.843418305707985  0.5726347389104377  1.0000
  C   C27       1.0  0.6469782886620551  0.7288960326813836  0.5722285332210292  1.0000
  C   C28       1.0  0.8527237253703177  0.15658675934294308  0.4273604911739426  1.0000
  S   S1        1.0  0.2585788754440514  0.3780210852993804  0.35793900341212753  1.0000
  S   S2        1.0  0.2418346061390082  0.0203023028052698  0.6425695073570452  1.0000
  S   S3        1.0  0.7414490640540307  0.6219409712477458  0.642070453198791  1.0000
  S   S4        1.0  0.7581498467705289  0.9796991834628912  0.35743600385543345  1.0000
  N   N1        1.0  0.6102726183546848  0.41835414529845133  0.19660417832346871  1.0000
  N   N2        1.0  0.8896980154905237  0.2219816117574211  0.8038707093952979  1.0000
  N   N3        1.0  0.3897213407010581  0.5816533046317504  0.8033928521632563  1.0000
  N   N4        1.0  0.11030313059022491  0.778021034547841  0.19613247857564187  1.0000
  N   N5        1.0  0.7035349646629286  0.53851526152809  0.18884413749316317  1.0000
  N   N6        1.0  0.796568559488108  0.3499849603538366  0.8115513557113944  1.0000
  N   N7        1.0  0.2964527344720195  0.46149339907599085  0.8111515708736762  1.0000
  N   N8        1.0  0.20341074161075307  0.6500022554891772  0.18845034892930104  1.0000
  N   N9        1.0  0.8254494007458106  0.4852965013874665  0.3505282650649164  1.0000
  N   N10       1.0  0.6746436924001955  0.1348503930288629  0.6497508584285044  1.0000
  N   N11       1.0  0.17455848825608203  0.5147097445082522  0.6494629772449515  1.0000
  N   N12       1.0  0.3253568588091084  0.86511886774057  0.35026097270888107  1.0000
  N   N13       1.0  0.4220280907074425  0.19432417821149536  0.4812698361212284  1.0000
  N   N14       1.0  0.07795255647967987  0.7132234212366059  0.5190778204481319  1.0000
  N   N15       1.0  0.5779718078924321  0.80565217455257  0.518758516659638  1.0000
  N   N16       1.0  0.9220408443217282  0.28676385381529457  0.4808972954695322  1.0000
