data_image0
_chemical_formula_structural       Cd3P2H20C16N6Cl2O10
_chemical_formula_sum              "Cd3 P2 H20 C16 N6 Cl2 O10"
_cell_length_a       7.721835391527334
_cell_length_b       9.34465681145593
_cell_length_c       10.09692091145365
_cell_angle_alpha    89.40719942146234
_cell_angle_beta     103.02633220874687
_cell_angle_gamma    110.64795560593515

_space_group_name_H-M_alt    "P 1"
_space_group_IT_number       1

loop_
  _space_group_symop_operation_xyz
  'x, y, z'

loop_
  _atom_site_type_symbol
  _atom_site_label
  _atom_site_symmetry_multiplicity
  _atom_site_fract_x
  _atom_site_fract_y
  _atom_site_fract_z
  _atom_site_occupancy
  Cd  Cd1       1.0  0.5000009475058461  8.937762743002027e-07  0.5000004372534477  1.0000
  Cd  Cd2       1.0  0.6990398845748872  0.6645086129315486  0.5095152803961939  1.0000
  Cd  Cd3       1.0  0.3009590059472059  0.33549131933344956  0.49048511010146  1.0000
  P   P1        1.0  0.6518329699329543  0.33377369673869584  0.3157037456420539  1.0000
  P   P2        1.0  0.34816775940901573  0.6662273758697167  0.6842979467047599  1.0000
  H   H1        1.0  0.928887697660997  0.5983418978633563  0.3748542365157875  1.0000
  H   H2        1.0  0.07111036265442999  0.40165917287600905  0.6251460199891171  1.0000
  H   H3        1.0  0.08817162959231689  0.725408831816736  0.4952738180711975  1.0000
  H   H4        1.0  0.911827766881949  0.27459223249906006  0.5047276518548501  1.0000
  H   H5        1.0  0.9572221682344662  0.5599869319916806  0.7137134885846379  1.0000
  H   H6        1.0  0.042775386128788326  0.4400130066968941  0.2862856884918799  1.0000
  H   H7        1.0  0.7394888943615854  0.45211319729200017  0.7016632615685695  1.0000
  H   H8        1.0  0.26050999286936627  0.5478867496891979  0.2983361379287146  1.0000
  H   H9        1.0  0.48843016306705067  0.02850439256852159  0.1683830603061622  1.0000
  H   H10       1.0  0.5115713898993022  0.9714955709979164  0.8316167840326543  1.0000
  H   H11       1.0  0.2385724426746947  0.9204441122396502  0.9566884780812545  1.0000
  H   H12       1.0  0.7614304497416455  0.07955583018701871  0.043313570679075035  1.0000
  H   H13       1.0  0.18442968162423776  0.36322409746403395  0.8993469569158137  1.0000
  H   H14       1.0  0.8155722021788916  0.6367735661448461  0.10065392398811208  1.0000
  H   H15       1.0  0.4205494313793423  0.4654922527537551  0.11851161239935949  1.0000
  H   H16       1.0  0.579452124878152  0.534507696096483  0.8814892229398339  1.0000
  H   H17       1.0  0.8559608437353815  0.1907715079257528  0.7934017029265875  1.0000
  H   H18       1.0  0.14404121847429247  0.8092295729752834  0.2066002118409926  1.0000
  H   H19       1.0  0.13959337004979488  0.8958197477996989  0.716781425403994  1.0000
  H   H20       1.0  0.8604068467577263  0.10418022219031539  0.28321720551368657  1.0000
  C   C1        1.0  0.4730242243722812  0.2549090921959092  0.157997267123335  1.0000
  C   C2        1.0  0.5269759957263744  0.7450908630779052  0.8420023547947153  1.0000
  C   C3        1.0  0.42271752571787863  0.10234513818230077  0.1098283373078672  1.0000
  C   C4        1.0  0.57728402395734  0.8976548401003298  0.8901705160305795  1.0000
  C   C5        1.0  0.2826618416373847  0.0410714034588864  0.9906440787411271  1.0000
  C   C6        1.0  0.7173397080378405  0.958928574823751  0.009354774597319608  1.0000
  C   C7        1.0  0.19601815220448765  0.13476068897782764  0.916649175148855  1.0000
  C   C8        1.0  0.803982395439796  0.8652369810546288  0.08335049233393481  1.0000
  C   C9        1.0  0.24658799776728557  0.2885514500131946  0.960463082099132  1.0000
  C   C10       1.0  0.7534125432947293  0.7114462494516545  0.03953460338291138  1.0000
  C   C11       1.0  0.3832247527944475  0.34673054989670493  0.08208960813391289  1.0000
  C   C12       1.0  0.6167749646431702  0.6532682586101186  0.9179099253561276  1.0000
  C   C13       1.0  0.8886427396211474  0.10075801590078728  0.7499706972388012  1.0000
  C   C14       1.0  0.11135931929739233  0.8992430797164417  0.250030226528402  1.0000
  C   C15       1.0  0.03224495906370357  0.9471527618775325  0.7130912382070778  1.0000
  C   C16       1.0  0.9677552610349522  0.052847193396281994  0.2869083837109798  1.0000
  N   N1        1.0  0.8682369668320574  0.9072879248364243  0.6222604357887748  1.0000
  N   N2        1.0  0.13176192369002854  0.09271200742857388  0.3777399547088862  1.0000
  N   N3        1.0  0.777688294270476  0.0034849863982203003  0.6458280254720564  1.0000
  N   N4        1.0  0.22231242848921803  0.996516115642585  0.3541716848740109  1.0000
  N   N5        1.0  0.0495083258759692  0.0680996541816867  0.7970413320880212  1.0000
  N   N6        1.0  0.95049139485279  0.9318991396089373  0.20295919240238905  1.0000
  Cl  Cl1       1.0  0.5039090254554351  0.7852758006079268  0.3218913500977436  1.0000
  Cl  Cl2       1.0  0.49609036443656146  0.21472529314025474  0.6781081378275574  1.0000
  O   O1        1.0  0.5663291506924609  0.42024095956211477  0.39784786707387815  1.0000
  O   O2        1.0  0.43366707409422395  0.5797589561176436  0.6021520785822432  1.0000
  O   O3        1.0  0.8308379395010873  0.44484922701604285  0.2771559184620287  1.0000
  O   O4        1.0  0.16916328591964466  0.5551530217917532  0.7228438803120554  1.0000
  O   O5        1.0  0.6912166176468871  0.19877646082720446  0.3895375352935417  1.0000
  O   O6        1.0  0.30878462093839687  0.8012257291158064  0.6104662274820357  1.0000
  O   O7        1.0  0.9624610390341105  0.6988574660253233  0.42864468614482837  1.0000
  O   O8        1.0  0.03753835414902079  0.3011436130066656  0.5713557927808495  1.0000
  O   O9        1.0  0.8248302696496663  0.5595902207844857  0.7058927143437685  1.0000
  O   O10       1.0  0.17516544589370406  0.4404085775606674  0.2941051608835963  1.0000
