data_image0
_chemical_formula_structural       Sm2H36C36N8O16
_chemical_formula_sum              "Sm2 H36 C36 N8 O16"
_cell_length_a       9.965992791312916
_cell_length_b       10.390985650567693
_cell_length_c       11.008513532325818
_cell_angle_alpha    78.11871010425317
_cell_angle_beta     76.86204731492391
_cell_angle_gamma    66.13411959829851

_space_group_name_H-M_alt    "P 1"
_space_group_IT_number       1

loop_
  _space_group_symop_operation_xyz
  'x, y, z'

loop_
  _atom_site_type_symbol
  _atom_site_label
  _atom_site_symmetry_multiplicity
  _atom_site_fract_x
  _atom_site_fract_y
  _atom_site_fract_z
  _atom_site_occupancy
  Sm  Sm1       1.0  0.0561935303701587  0.7739517174000882  0.1766622440382122  1.0000
  Sm  Sm2       1.0  0.9438070698762926  0.22604844318380665  0.8233381405116518  1.0000
  H   H1        1.0  0.33697871286252473  0.1505660127901081  0.8425168545403282  1.0000
  H   H2        1.0  0.6630208586379139  0.8494341417527878  0.15748283514993497  1.0000
  H   H3        1.0  0.3955653938554986  0.8730135696879274  0.19030633893937937  1.0000
  H   H4        1.0  0.6044335663455697  0.1269855225664642  0.8096936877565142  1.0000
  H   H5        1.0  0.5656388190679209  0.5917925982738694  0.2768725393209693  1.0000
  H   H6        1.0  0.43436345441998003  0.4082033228829615  0.7231292496496878  1.0000
  H   H7        1.0  0.24727766927271935  0.4932857435064761  0.5779433719524434  1.0000
  H   H8        1.0  0.7527241856169055  0.5067112387102098  0.4220582928330288  1.0000
  H   H9        1.0  0.7016688254179541  0.08450878468756429  0.4970002441747638  1.0000
  H   H10       1.0  0.29833074723411096  0.9154913650429959  0.5029985378354597  1.0000
  H   H11       1.0  0.5533498340523978  0.7986714939300014  0.3843715122595628  1.0000
  H   H12       1.0  0.44664931884977216  0.20132972167274946  0.6156280532455156  1.0000
  H   H13       1.0  0.5378238330108758  0.858766304724064  0.7337132059635608  1.0000
  H   H14       1.0  0.4621763509405595  0.1412349072950079  0.2662852390410322  1.0000
  H   H15       1.0  0.5785881989278181  0.6945750937540963  0.6806266783057354  1.0000
  H   H16       1.0  0.4214109539743517  0.30542612184865453  0.319372887199343  1.0000
  H   H17       1.0  0.6717457044376829  0.570604124855521  0.8689711978216367  1.0000
  H   H18       1.0  0.3282534496161134  0.42939708593488757  0.1310274600033949  1.0000
  H   H19       1.0  0.6343624877175742  0.7351758650986399  0.9202151309317799  1.0000
  H   H20       1.0  0.3656376950822348  0.2648253517327674  0.07978422175285259  1.0000
  H   H21       1.0  0.9808017025136949  0.26131787481072183  0.44983635740616995  1.0000
  H   H22       1.0  0.019197450388467846  0.7386833407920295  0.5501632080989083  1.0000
  H   H23       1.0  0.15562612633715384  0.1908310146819048  0.34987719801976885  1.0000
  H   H24       1.0  0.8443730277166421  0.8091701961085036  0.6501214598052626  1.0000
  H   H25       1.0  0.003976276102982004  0.1526989995337047  0.2282172763745649  1.0000
  H   H26       1.0  0.9960228767991806  0.847302216069046  0.7717822891305135  1.0000
  H   H27       1.0  0.8419643354785721  0.2959760845354539  0.28399330853211063  1.0000
  H   H28       1.0  0.15803481742359066  0.7040251310672972  0.7160062569729675  1.0000
  H   H29       1.0  0.447973844568601  0.6320111070948186  0.06169751435916039  1.0000
  H   H30       1.0  0.5520282053253779  0.3679879888455488  0.9383018738754103  1.0000
  H   H31       1.0  0.28600312596164196  0.8557679115575568  0.7469173545784642  1.0000
  H   H32       1.0  0.7139960257888943  0.14423330885752247  0.25308311860665367  1.0000
  H   H33       1.0  0.08044014494277717  0.4647487071598064  0.3620859176314255  1.0000
  H   H34       1.0  0.919560457606927  0.5352514437994176  0.6379126515583593  1.0000
  H   H35       1.0  0.9653868850509608  0.3807192575775247  0.06305943053003198  1.0000
  H   H36       1.0  0.03461226785120178  0.6192819580252262  0.9369401349750391  1.0000
  C   C1        1.0  0.3521453584894941  0.013351858779088796  0.018588173186096  1.0000
  C   C2        1.0  0.6478537955643019  0.9866493520113194  0.9814104846389428  1.0000
  C   C3        1.0  0.4098409173863899  0.084717185001665  0.9104259427456115  1.0000
  C   C4        1.0  0.5901590727123175  0.9152819084813829  0.0895738711298435  1.0000
  C   C5        1.0  0.4426674451961643  0.9287254359821664  0.10807320869767513  1.0000
  C   C6        1.0  0.5573335748001824  0.07127365872953818  0.891926392357334  1.0000
  C   C7        1.0  0.19478613870597167  0.024447165675532297  0.03619287632146499  1.0000
  C   C8        1.0  0.8052124017452016  0.9755529924510425  0.9638079338692763  1.0000
  C   C9        1.0  0.3950166440434798  0.5490834650255536  0.4189857020867081  1.0000
  C   C10       1.0  0.604985210846152  0.4509135171911326  0.5810159626987641  1.0000
  C   C11       1.0  0.5380304584550615  0.5509422909361206  0.3747370846443232  1.0000
  C   C12       1.0  0.4619728437788522  0.44905363626170924  0.6252653991859347  1.0000
  C   C13       1.0  0.3574230209501508  0.49731515961573086  0.5447873049035579  1.0000
  C   C14       1.0  0.6425792513861168  0.5026807663534356  0.45521539174714587  1.0000
  C   C15       1.0  0.28218983833554734  0.6056932672033142  0.332843521992622  1.0000
  C   C16       1.0  0.7178136577510941  0.3943047785305396  0.667157592966781  1.0000
  C   C17       1.0  0.6424363353411521  0.9346387294955817  0.43344362079256643  1.0000
  C   C18       1.0  0.3575636547575556  0.06536036398746602  0.5665561930828886  1.0000
  C   C19       1.0  0.6127562080885339  0.04791266496897611  0.49917516541927404  1.0000
  C   C20       1.0  0.38724378201017345  0.9520864285140719  0.5008246484561739  1.0000
  C   C21       1.0  0.5288422699973622  0.8870560038040837  0.43512843601014595  1.0000
  C   C22       1.0  0.47115730035145026  0.11294415555114767  0.5648721613601637  1.0000
  C   C23       1.0  0.7918341347772611  0.8701685679013733  0.3558114638423647  1.0000
  C   C24       1.0  0.2081654367231778  0.12983158664152233  0.6441882258478986  1.0000
  C   C25       1.0  0.3305020225002977  0.7286602891457363  0.9148615220000806  1.0000
  C   C26       1.0  0.6694967118036032  0.27134198751686267  0.08513791931980562  1.0000
  C   C27       1.0  0.5238312475355897  0.7566066521446475  0.7599326019520591  1.0000
  C   C28       1.0  0.4761679065181993  0.24339455864576112  0.24006605587297275  1.0000
  C   C29       1.0  0.5863534535851683  0.6759775843827072  0.8828866262952532  1.0000
  C   C30       1.0  0.41364776026390615  0.32402362886502795  0.11711160588889415  1.0000
  C   C31       1.0  0.04126274434830895  0.2711220216646239  0.35424159869679533  1.0000
  C   C32       1.0  0.9587378558981428  0.7288781389192707  0.6457587858530688  1.0000
  C   C33       1.0  0.9631675246515601  0.2600022300749315  0.2533030026382407  1.0000
  C   C34       1.0  0.03683162825061002  0.7399989855278193  0.7466965628668377  1.0000
  C   C35       1.0  0.030879096142108195  0.4549312798486156  0.1918814500247308  1.0000
  C   C36       1.0  0.9691200567600617  0.5450699357541283  0.8081181154803404  1.0000
  N   N1        1.0  0.4553243205561231  0.6644662485070185  0.9673969982691091  1.0000
  N   N2        1.0  0.5446758633953124  0.33553496351205336  0.03260144673548374  1.0000
  N   N3        1.0  0.3664733416791038  0.7766118307058746  0.7916329641920541  1.0000
  N   N4        1.0  0.633526421370803  0.22339045199771587  0.20836717198743324  1.0000
  N   N5        1.0  0.04317509474645217  0.41378134579517223  0.3154049678893145  1.0000
  N   N6        1.0  0.9568240593073437  0.586219864995236  0.6845936899357242  1.0000
  N   N7        1.0  0.9992389416445276  0.3594211325995929  0.14842280473236968  1.0000
  N   N8        1.0  0.0007591825116292388  0.6405800769621592  0.8515760659131079  1.0000
  O   O1        1.0  0.1462130902547755  0.9570396162253303  0.1346793288621981  1.0000
  O   O2        1.0  0.8537868975406795  0.0429594868823955  0.8653223003733361  1.0000
  O   O3        1.0  0.11902143276270041  0.099774628216899  0.9510568073095912  1.0000
  O   O4        1.0  0.8809777189878357  0.9002265921981876  0.04894366587552672  1.0000
  O   O5        1.0  0.1471606124548401  0.618474179206423  0.3755062941263247  1.0000
  O   O6        1.0  0.8528414374391458  0.38152491673394456  0.624493094108246  1.0000
  O   O7        1.0  0.3205312614260549  0.6455029765538924  0.21688060281473304  1.0000
  O   O8        1.0  0.6794705591158702  0.3544993182316957  0.7831209230839635  1.0000
  O   O9        1.0  0.8287625282337955  0.7505422686892159  0.31849654247902487  1.0000
  O   O10       1.0  0.17123704211500976  0.24945789066601523  0.6815040548912777  1.0000
  O   O11       1.0  0.8771007369240704  0.9412143154256539  0.3243160611956598  1.0000
  O   O12       1.0  0.1228969697854438  0.05878795038361061  0.6756817775845861  1.0000
  O   O13       1.0  0.2008606999511286  0.7406341073011478  0.9691237104333865  1.0000
  O   O14       1.0  0.7991399002953229  0.2593660532827471  0.030876674116477366  1.0000
  O   O15       1.0  0.049147108960099106  0.5642944696817339  0.12629002194119474  1.0000
  O   O16       1.0  0.9508505965977888  0.43570780093986633  0.8737087245190908  1.0000
