data_image0
_chemical_formula_structural       Ag2H12C16N2O14
_chemical_formula_sum              "Ag2 H12 C16 N2 O14"
_cell_length_a       7.510769531540933
_cell_length_b       7.936524335494245
_cell_length_c       8.508087829724655
_cell_angle_alpha    78.52536387315027
_cell_angle_beta     74.03235008167228
_cell_angle_gamma    74.66858206473421

_space_group_name_H-M_alt    "P 1"
_space_group_IT_number       1

loop_
  _space_group_symop_operation_xyz
  'x, y, z'

loop_
  _atom_site_type_symbol
  _atom_site_label
  _atom_site_symmetry_multiplicity
  _atom_site_fract_x
  _atom_site_fract_y
  _atom_site_fract_z
  _atom_site_occupancy
  Ag  Ag1       1.0  0.7539906547859732  0.6716192870589879  0.10285141874722821  1.0000
  Ag  Ag2       1.0  0.24600563117996904  0.3283828674714542  0.8971492448938673  1.0000
  H   H1        1.0  0.07353372018865663  0.255639736903909  0.5984776202546198  1.0000
  H   H2        1.0  0.9264684362338614  0.7443611533925462  0.401525362476093  1.0000
  H   H3        1.0  0.0671395519836153  0.7079420665773668  0.7776962642211058  1.0000
  H   H4        1.0  0.9328598094098554  0.2920587573700857  0.2223003694840811  1.0000
  H   H5        1.0  0.6926619633085881  0.452351662858824  0.4086466379428371  1.0000
  H   H6        1.0  0.3073380548914812  0.5476465410368405  0.5913526885131757  1.0000
  H   H7        1.0  0.5884089586234468  0.6495941815985731  0.4302563473666367  1.0000
  H   H8        1.0  0.4115913879799181  0.35040271227119046  0.5697443254647963  1.0000
  H   H9        1.0  0.4244251395577407  0.0178479776878433  0.3243115305630794  1.0000
  H   H10       1.0  0.5755714652105297  0.9821528494354865  0.6756881343860637  1.0000
  H   H11       1.0  0.5788153299892685  0.5925125997125067  0.8039498942159821  1.0000
  H   H12       1.0  0.42118502141457276  0.4074843028478626  0.19605195114913698  1.0000
  C   C1        1.0  0.6226320343358653  0.10559197479589238  0.07521313055364932  1.0000
  C   C2        1.0  0.37736766026138463  0.8944075478162715  0.9247860220606438  1.0000
  C   C3        1.0  0.784156973736792  0.06194363087885791  0.9263080662117457  1.0000
  C   C4        1.0  0.21584549668757805  0.9380559233198725  0.07369274529332866  1.0000
  C   C5        1.0  0.8542251451914284  0.1981745849453063  0.8136839932996476  1.0000
  C   C6        1.0  0.14577487300863373  0.8018236189503583  0.18631533315637222  1.0000
  C   C7        1.0  0.7787521157199251  0.38898862511089044  0.8366560318246382  1.0000
  C   C8        1.0  0.2212489715913648  0.6110109219851695  0.16334512276872448  1.0000
  C   C9        1.0  0.011407440019439684  0.15346269140695065  0.6845222506641874  1.0000
  C   C10       1.0  0.9885936472918498  0.8465368556891094  0.3154789039291756  1.0000
  C   C11       1.0  0.09213183255575072  0.9754783588085515  0.6696626120289151  1.0000
  C   C12       1.0  0.9078689215517672  0.0245224896227967  0.33033602365535575  1.0000
  C   C13       1.0  0.26333712192523967  0.9213890707381296  0.5357197717485673  1.0000
  C   C14       1.0  0.7366653436986468  0.07861047476999523  0.46427986722282805  1.0000
  C   C15       1.0  0.010884405754566638  0.8482675512350613  0.7849183238641401  1.0000
  C   C16       1.0  0.9891166767562398  0.15173198717038616  0.21508165819554384  1.0000
  N   N1        1.0  0.861726016695435  0.8910332212638964  0.9099298120852732  1.0000
  N   N2        1.0  0.13827228998825092  0.10896628555498471  0.09006851108362209  1.0000
  O   O1        1.0  0.5703547543960213  0.9783835392396297  0.17976277580496008  1.0000
  O   O2        1.0  0.42964461179793295  0.021617293398435298  0.8202350304339132  1.0000
  O   O3        1.0  0.5550097521343106  0.2675474891658851  0.08357031133867568  1.0000
  O   O4        1.0  0.4449941110040996  0.7324520895167413  0.9164325021454754  1.0000
  O   O5        1.0  0.6385060710884505  0.47155662019873995  0.7651630779551225  1.0000
  O   O6        1.0  0.3614925735994987  0.5284415939754651  0.2348389366565583  1.0000
  O   O7        1.0  0.8598772118358157  0.4592634811143128  0.9058407755167222  1.0000
  O   O8        1.0  0.14012354707217864  0.5407373760076413  0.09415903270122775  1.0000
  O   O9        1.0  0.3101504851255328  0.0541406294041948  0.42740287691677975  1.0000
  O   O10       1.0  0.6898471695520386  0.945861506157094  0.5725939260349762  1.0000
  O   O11       1.0  0.35015808458929604  0.7643906883954231  0.5314538773307972  1.0000
  O   O12       1.0  0.6498468524608255  0.2356102421782111  0.46855193682439017  1.0000
  O   O13       1.0  0.7097015240584668  0.574763785534607  0.37812281472800874  1.0000
  O   O14       1.0  0.2902974298308578  0.4252330838512606  0.6218758561243474  1.0000
