data_image0
_chemical_formula_structural       Zn4H48C28S4N8O32
_chemical_formula_sum              "Zn4 H48 C28 S4 N8 O32"
_cell_length_a       5.646676132066373
_cell_length_b       13.191575861367557
_cell_length_c       15.541992765588047
_cell_angle_alpha    101.73688700055206
_cell_angle_beta     90.00045150733254
_cell_angle_gamma    90.00038226751985

_space_group_name_H-M_alt    "P 1"
_space_group_IT_number       1

loop_
  _space_group_symop_operation_xyz
  'x, y, z'

loop_
  _atom_site_type_symbol
  _atom_site_label
  _atom_site_symmetry_multiplicity
  _atom_site_fract_x
  _atom_site_fract_y
  _atom_site_fract_z
  _atom_site_occupancy
  Zn  Zn1       1.0  0.5078236077725651  0.8831006351793319  0.8477889944750033  1.0000
  Zn  Zn2       1.0  0.007847698548090401  0.1169048655252851  0.6522121982458912  1.0000
  Zn  Zn3       1.0  0.4921739470656023  0.11689859856416969  0.1522110162653334  1.0000
  Zn  Zn4       1.0  0.9921587110990236  0.8830966693052318  0.34778952324541024  1.0000
  H   H1        1.0  0.38901083267525394  0.27469972573810947  0.47426877297429126  1.0000
  H   H2        1.0  0.8889774253718701  0.7253099211734195  0.025734180122277937  1.0000
  H   H3        1.0  0.6109760965444411  0.7253056584804795  0.5257349443796642  1.0000
  H   H4        1.0  0.1110130457037144  0.2746923878047908  0.9742676839223278  1.0000
  H   H5        1.0  0.05222562607666961  0.8571781400977726  0.8071114848125589  1.0000
  H   H6        1.0  0.5522395098493577  0.14281140593251954  0.6928772183343384  1.0000
  H   H7        1.0  0.9477754706279385  0.14282271706152727  0.1928843205502417  1.0000
  H   H8        1.0  0.4477651287595991  0.8571847418528762  0.30712158060670447  1.0000
  H   H9        1.0  0.185937419220899  0.9114929509265791  0.7320445921021417  1.0000
  H   H10       1.0  0.6859452143174353  0.08850543176978222  0.7679524772118853  1.0000
  H   H11       1.0  0.8140672194572361  0.08851017514106731  0.2679548485189613  1.0000
  H   H12       1.0  0.31406296620642865  0.9114907052978933  0.23204696323920615  1.0000
  H   H13       1.0  0.09736790456344123  0.7390095972806421  0.6654216779975144  1.0000
  H   H14       1.0  0.5973538688475843  0.26098780276493017  0.8345705046183695  1.0000
  H   H15       1.0  0.9026402759721467  0.26099359313300136  0.33457391359879557  1.0000
  H   H16       1.0  0.4026507697773952  0.739007538677093  0.16543007626148656  1.0000
  H   H17       1.0  0.8174872142323724  0.39028534412997107  0.6338959647482056  1.0000
  H   H18       1.0  0.31743866228894296  0.6097389643824583  0.8661087521163255  1.0000
  H   H19       1.0  0.18251034056593343  0.6097162979202579  0.36609934168067326  1.0000
  H   H20       1.0  0.6825535797900103  0.3902648500514515  0.133895963102951  1.0000
  H   H21       1.0  0.13400061562388296  0.4132351742352256  0.5162807781111668  1.0000
  H   H22       1.0  0.6339536206284253  0.5867623430169786  0.9837115093293108  1.0000
  H   H23       1.0  0.8660075649191302  0.5867664356618432  0.483716452847844  1.0000
  H   H24       1.0  0.3660439342183397  0.41323766489972513  0.01628864398714574  1.0000
  H   H25       1.0  0.7646570958354106  0.5678406649162395  0.7253889639491007  1.0000
  H   H26       1.0  0.26462255863445727  0.4321796572630986  0.7746116812884907  1.0000
  H   H27       1.0  0.23535639754184962  0.43215862246971415  0.2746078392891746  1.0000
  H   H28       1.0  0.7353767672500741  0.5678249528021266  0.2253918935070871  1.0000
  H   H29       1.0  0.08335048779953522  0.5891365610676759  0.6047929492417268  1.0000
  H   H30       1.0  0.5833353231683348  0.41085842869389927  0.8952013315351834  1.0000
  H   H31       1.0  0.9166541508969746  0.4108704680361725  0.3952052797450207  1.0000
  H   H32       1.0  0.41666931550042113  0.5891423534073467  0.10479896436752513  1.0000
  H   H33       1.0  0.2394417272724994  0.7981705303570761  0.9658342820038613  1.0000
  H   H34       1.0  0.7394879526124286  0.20184807710491973  0.5341711380506027  1.0000
  H   H35       1.0  0.7605469728407502  0.20183021954849778  0.034167938390965  1.0000
  H   H36       1.0  0.26051491513698016  0.7981550167897282  0.46583022708288974  1.0000
  H   H37       1.0  0.40995712296528114  0.8862470081709402  0.019763187815947023  1.0000
  H   H38       1.0  0.9099867908987068  0.1137689207219523  0.4802396829347089  1.0000
  H   H39       1.0  0.5900404318592154  0.11375774129550108  0.9802320474124144  1.0000
  H   H40       1.0  0.09002138970878805  0.8862302486982255  0.5197641768506928  1.0000
  H   H41       1.0  0.8660678170896858  0.896156081655782  0.9625247579546894  1.0000
  H   H42       1.0  0.3660869398532399  0.10384361964968036  0.537474894142129  1.0000
  H   H43       1.0  0.13392619582537443  0.10384317352882279  0.0374739697706303  1.0000
  H   H44       1.0  0.633919469709845  0.8961540979317418  0.46252290694372533  1.0000
  H   H45       1.0  0.9059248938391423  0.9803172163760648  0.9058362495584831  1.0000
  H   H46       1.0  0.405931618490449  0.019679515797136605  0.5941629463185834  1.0000
  H   H47       1.0  0.09406557717703382  0.01968124318288739  0.0941636185956014  1.0000
  H   H48       1.0  0.5940730201443075  0.9803189545078792  0.4058362803508047  1.0000
  C   C1        1.0  0.42490804741017757  0.5919454454199666  0.6702313201327854  1.0000
  C   C2        1.0  0.9248858276110428  0.4080504660638979  0.8297742025212785  1.0000
  C   C3        1.0  0.5751019041100279  0.4080545625165825  0.3297688332014133  1.0000
  C   C4        1.0  0.07510995626596181  0.5919495632967511  0.1702246677826906  1.0000
  C   C5        1.0  0.40722848166061726  0.6960216012785662  0.7262255489803806  1.0000
  C   C6        1.0  0.9072260193573246  0.3039828231677788  0.7737782839014572  1.0000
  C   C7        1.0  0.5927673022226332  0.30397449287571726  0.2737764574728629  1.0000
  C   C8        1.0  0.0927662226813766  0.6960226146762593  0.22622222593521712  1.0000
  C   C9        1.0  0.6572375052254815  0.43465417123084643  0.6285217457059674  1.0000
  C   C10       1.0  0.15721134048766325  0.5653493564590875  0.8714871450150099  1.0000
  C   C11       1.0  0.34276004968732826  0.5653465357953492  0.3714830407214365  1.0000
  C   C12       1.0  0.8427862143512859  0.43465144707759856  0.1285118678676085  1.0000
  C   C13       1.0  0.2728283076225396  0.4481959186386675  0.5613463130465561  1.0000
  C   C14       1.0  0.7728007879864338  0.5517995167608518  0.9386581327225514  1.0000
  C   C15       1.0  0.7271727891868026  0.5518008746336065  0.4386603265252447  1.0000
  C   C16       1.0  0.22719499590698433  0.4482004911530239  0.061342020591361276  1.0000
  C   C17       1.0  0.47995330369912653  0.3918161192628773  0.5688604310673213  1.0000
  C   C18       1.0  0.979928344412997  0.6081876565286989  0.9311498824518694  1.0000
  C   C19       1.0  0.5200531058870228  0.6081784265619986  0.4311412902489025  1.0000
  C   C20       1.0  0.020063897609681202  0.3918185876587117  0.06884884544599154  1.0000
  C   C21       1.0  0.6289657460381124  0.533688042442236  0.6785283082384056  1.0000
  C   C22       1.0  0.12893833025539445  0.4663153625791167  0.821482426059589  1.0000
  C   C23       1.0  0.3710406636074382  0.4663103528018978  0.3214754089683467  1.0000
  C   C24       1.0  0.8710592246421813  0.5336877205836359  0.17851958057127604  1.0000
  C   C25       1.0  0.24683930987312414  0.5474479173268633  0.6114046324005358  1.0000
  C   C26       1.0  0.746817617935854  0.4525504457982804  0.8886054413201308  1.0000
  C   C27       1.0  0.7531600159449712  0.4525552087322778  0.3885948082129644  1.0000
  C   C28       1.0  0.2531799369116925  0.5474511319116147  0.11139371413860032  1.0000
  S   S1        1.0  0.2500619544685065  0.11123768889592608  0.8675974323999895  1.0000
  S   S2        1.0  0.7500465561569744  0.8887609848096855  0.6323946884161202  1.0000
  S   S3        1.0  0.7499356003196316  0.888760039394711  0.13239972716821316  1.0000
  S   S4        1.0  0.2499545406054794  0.11124058218248929  0.3676051085526524  1.0000
  N   N1        1.0  0.2025082145043911  0.8552438271251643  0.7687946144910711  1.0000
  N   N2        1.0  0.702528436558261  0.1447492430378219  0.7311982967217574  1.0000
  N   N3        1.0  0.7974875693569817  0.14475779347544906  0.2312019749452148  1.0000
  N   N4        1.0  0.2974850568002339  0.8552453564153311  0.26880021707972196  1.0000
  N   N5        1.0  0.2250916076889525  0.7575311760604392  0.7129627103467868  1.0000
  N   N6        1.0  0.7250901862455026  0.2424712242644773  0.7870339009148921  1.0000
  N   N7        1.0  0.7749201147189383  0.24246891766604503  0.28703231095013854  1.0000
  N   N8        1.0  0.27491799432916514  0.7575279880492475  0.21296739285060085  1.0000
  O   O1        1.0  0.5162546010518271  0.2957516009151817  0.5196098614271776  1.0000
  O   O2        1.0  0.016237220289262704  0.7042521960662069  0.9804019758028845  1.0000
  O   O3        1.0  0.48373764091456933  0.7042405794738399  0.4803939981603236  1.0000
  O   O4        1.0  0.983760334598934  0.29574854313015203  0.019600886109586206  1.0000
  O   O5        1.0  0.557080514665458  0.7265250045673496  0.7863847510947226  1.0000
  O   O6        1.0  0.05707527841240531  0.27349148146060287  0.7136192201669759  1.0000
  O   O7        1.0  0.44292589499221446  0.2734812289193442  0.2136146183283998  1.0000
  O   O8        1.0  0.9429187345874656  0.726513160766281  0.2863824301060731  1.0000
  O   O9        1.0  0.1845511130601524  0.07663451915423988  0.7745286015933105  1.0000
  O   O10       1.0  0.684531643084725  0.9233585578058195  0.7254604091254394  1.0000
  O   O11       1.0  0.8154570673644418  0.9233601768009123  0.22546413865578782  1.0000
  O   O12       1.0  0.3154570569972607  0.07664537457969091  0.27453724953403474  1.0000
  O   O13       1.0  0.36374707825888214  0.8487341655802467  0.9599172705068854  1.0000
  O   O14       1.0  0.8637819487437997  0.1512801839958442  0.5400882914397513  1.0000
  O   O15       1.0  0.6362469346397576  0.1512651110511314  0.040080174208476614  1.0000
  O   O16       1.0  0.13621914802529037  0.848718232686565  0.4599141427494402  1.0000
  O   O17       1.0  0.8388104050474966  0.9088663426380703  0.902247208786335  1.0000
  O   O18       1.0  0.33882732403408516  0.09113248651773627  0.5977528642039333  1.0000
  O   O19       1.0  0.16118537879511055  0.09113059002975628  0.0977510912131692  1.0000
  O   O20       1.0  0.6611737726603621  0.9088644568819787  0.4022447942981985  1.0000
  O   O21       1.0  0.46980686275083633  0.05207826211375989  0.8846096255002608  1.0000
  O   O22       1.0  0.9697938273955347  0.9479171368876251  0.6153888265719871  1.0000
  O   O23       1.0  0.5301995468024786  0.9479163266046696  0.1153895297960617  1.0000
  O   O24       1.0  0.030203727482884815  0.0520804734457414  0.38461538955095165  1.0000
  O   O25       1.0  0.30404190383119106  0.22401435561374677  0.8913599071617071  1.0000
  O   O26       1.0  0.8040062132874015  0.7759798565305187  0.6086308711969579  1.0000
  O   O27       1.0  0.6959521090756554  0.7759849102942483  0.10863817905863024  1.0000
  O   O28       1.0  0.19598071588968932  0.22402244171863828  0.39137163434755706  1.0000
  O   O29       1.0  0.05495481350779132  0.08878871299801007  0.9260367919063626  1.0000
  O   O30       1.0  0.5549400655282143  0.9112124328737679  0.5739553406643196  1.0000
  O   O31       1.0  0.9450268026658224  0.9112059185742966  0.07395979733456677  1.0000
  O   O32       1.0  0.44506280218758604  0.08878913412124233  0.4260444563069896  1.0000
