data_image0
_chemical_formula_structural       Na4H36C28S4O28
_chemical_formula_sum              "Na4 H36 C28 S4 O28"
_cell_length_a       7.039061241202705
_cell_length_b       11.939465920073372
_cell_length_c       11.9684851558904
_cell_angle_alpha    90.0003856756021
_cell_angle_beta     103.85954614555585
_cell_angle_gamma    90.0000154099918

_space_group_name_H-M_alt    "P 1"
_space_group_IT_number       1

loop_
  _space_group_symop_operation_xyz
  'x, y, z'

loop_
  _atom_site_type_symbol
  _atom_site_label
  _atom_site_symmetry_multiplicity
  _atom_site_fract_x
  _atom_site_fract_y
  _atom_site_fract_z
  _atom_site_occupancy
  Na  Na1       1.0  0.3070099846581655  0.2534038585337727  0.1603880823376969  1.0000
  Na  Na2       1.0  0.192989613497538  0.7534075678874859  0.839614986624909  1.0000
  Na  Na3       1.0  0.6929892915544755  0.7465932301957137  0.8396115577053039  1.0000
  Na  Na4       1.0  0.8070126018587089  0.24659287108283218  0.16038673130642422  1.0000
  H   H1        1.0  0.6227090956834758  0.1476737673420274  0.38134241143882264  1.0000
  H   H2        1.0  0.8772967864396719  0.6476718261479134  0.6186474089510199  1.0000
  H   H3        1.0  0.3772843212817634  0.8523325345238816  0.6186555821227131  1.0000
  H   H4        1.0  0.12270245808948486  0.35232777524266373  0.38134804903781117  1.0000
  H   H5        1.0  0.19814285361989897  0.0176570725931953  0.1450140463392273  1.0000
  H   H6        1.0  0.30185009969358134  0.5176592268467459  0.8549881883309709  1.0000
  H   H7        1.0  0.8018506076896442  0.982338341033234  0.8549898020716286  1.0000
  H   H8        1.0  0.6981506397547365  0.4823403745587384  0.14501165424657364  1.0000
  H   H9        1.0  0.41737103532742736  0.0154618217666211  0.137100695181843  1.0000
  H   H10       1.0  0.08262339273503731  0.5154623214209835  0.8629042354434376  1.0000
  H   H11       1.0  0.5826209564160294  0.9845352669730046  0.862902114296901  1.0000
  H   H12       1.0  0.9173787909320127  0.48453727997682705  0.13709330042167525  1.0000
  H   H13       1.0  0.4543677871892556  0.19435791660858834  0.9763813450454819  1.0000
  H   H14       1.0  0.04563303464438921  0.6943569375155787  0.023616482910966904  1.0000
  H   H15       1.0  0.545632952250493  0.8056366594464844  0.0236184975139793  1.0000
  H   H16       1.0  0.9543662352292657  0.30563931365267655  0.9763823207163754  1.0000
  H   H17       1.0  0.510864109372875  0.3228000112826308  0.9754249544938602  1.0000
  H   H18       1.0  0.9891307406436739  0.8227974300202663  0.024574543277957203  1.0000
  H   H19       1.0  0.4891424893328491  0.677196239895231  0.024576534586252304  1.0000
  H   H20       1.0  0.010864145871934702  0.17719798359003386  0.9754244891825365  1.0000
  H   H21       1.0  0.6685751797041347  0.47207921769631156  0.574500834797469  1.0000
  H   H22       1.0  0.8314172153009451  0.9720742916675178  0.4254943140171221  1.0000
  H   H23       1.0  0.3314387731938809  0.5279228964112548  0.42550668540708614  1.0000
  H   H24       1.0  0.1685806040250029  0.027926984856001993  0.5745059599281035  1.0000
  H   H25       1.0  0.6134563130422136  0.067416541597261  0.6693438966055254  1.0000
  H   H26       1.0  0.8865580618822336  0.5674151718853865  0.3306448883868924  1.0000
  H   H27       1.0  0.3865414745888175  0.9325805471201463  0.3306521952614077  1.0000
  H   H28       1.0  0.1134499620409883  0.4325877797435567  0.6693517847669739  1.0000
  H   H29       1.0  0.6373492218214524  0.21147709398898226  0.8192051485855174  1.0000
  H   H30       1.0  0.8626539452588203  0.7114755474354908  0.1807838896268024  1.0000
  H   H31       1.0  0.36264565835946166  0.7885199947353031  0.18079304746835587  1.0000
  H   H32       1.0  0.1373291847180838  0.28852740417151773  0.8192068313557002  1.0000
  H   H33       1.0  0.6687634879846842  0.4248008929436367  0.37713065063211104  1.0000
  H   H34       1.0  0.8312419210833396  0.9247964606038932  0.6228668169959661  1.0000
  H   H35       1.0  0.33125340406265735  0.5752079216383806  0.6228789474728345  1.0000
  H   H36       1.0  0.16875299712290112  0.07520062813731697  0.37713639753376776  1.0000
  C   C1        1.0  0.6519985656144272  0.3515650557785364  0.7057714215497414  1.0000
  C   C2        1.0  0.8479948939925989  0.8515617594902095  0.29422473510700087  1.0000
  C   C3        1.0  0.34800810280582783  0.6484320329887581  0.2942392680724595  1.0000
  C   C4        1.0  0.1519956155153821  0.14844035459056928  0.7057753626263974  1.0000
  C   C5        1.0  0.6521317351400242  0.3842462112492839  0.595053941788457  1.0000
  C   C6        1.0  0.8478603220723357  0.8842419865938282  0.4049355562917825  1.0000
  C   C7        1.0  0.3478792786172349  0.6157542277342573  0.4049515005337838  1.0000
  C   C8        1.0  0.1521286735023821  0.115759289905192  0.5950576476119664  1.0000
  C   C9        1.0  0.6394507337163732  0.3027372462103202  0.5081591006997215  1.0000
  C   C10       1.0  0.8605556966342575  0.8027310969031234  0.4918343451287299  1.0000
  C   C11       1.0  0.3605587914692876  0.6972690556699562  0.49184279346755494  1.0000
  C   C12       1.0  0.1394479439251981  0.19726766693425193  0.5081625568462158  1.0000
  C   C13       1.0  0.626343965536968  0.18716181567825887  0.5354204060745005  1.0000
  C   C14       1.0  0.8736752521206625  0.6871563220262189  0.4645757033477551  1.0000
  C   C15       1.0  0.37366407106279104  0.8128419735147289  0.46457793990766316  1.0000
  C   C16       1.0  0.1263342540423267  0.3128441169367733  0.535423681560495  1.0000
  C   C17       1.0  0.6248814956280031  0.1556096957147801  0.6481780968996347  1.0000
  C   C18       1.0  0.8751361194294702  0.6556067919464539  0.3518134008170506  1.0000
  C   C19       1.0  0.37511482876877983  0.8443857178850254  0.3518177924357744  1.0000
  C   C20       1.0  0.1248675211371335  0.3443961596829368  0.6481835011729729  1.0000
  C   C21       1.0  0.6379387566076743  0.2370700716031635  0.7318731117919272  1.0000
  C   C22       1.0  0.8620703887660144  0.737065763805205  0.2681219392179273  1.0000
  C   C23       1.0  0.36206782943151694  0.7629312049194749  0.2681267044809843  1.0000
  C   C24       1.0  0.13792447241223732  0.262937187819432  0.7318737476191189  1.0000
  C   C25       1.0  0.6494608608730275  0.3351570726105493  0.3940051939452758  1.0000
  C   C26       1.0  0.850551514041527  0.8351533668859048  0.6059867861283408  1.0000
  C   C27       1.0  0.35055308569886284  0.6648517419614207  0.6060014898707494  1.0000
  C   C28       1.0  0.1494433851534751  0.164844559405239  0.3940139191664755  1.0000
  S   S1        1.0  0.6882621895689311  0.4510791058025844  0.819424809860635  1.0000
  S   S2        1.0  0.8117331045983462  0.9510792252918773  0.18057644774346926  1.0000
  S   S3        1.0  0.3117400574736635  0.5489204956234346  0.1805810901309073  1.0000
  S   S4        1.0  0.1882617946023757  0.0489220512328785  0.819424257563405  1.0000
  O   O1        1.0  0.6822461987236181  0.5616625992734965  0.7662036008298259  1.0000
  O   O2        1.0  0.8177550762073693  0.06166189935248669  0.23379502979310726  1.0000
  O   O3        1.0  0.31775748619872257  0.4383361645836317  0.23379915603362633  1.0000
  O   O4        1.0  0.18223980398212095  0.93834021472221  0.7662031662788493  1.0000
  O   O5        1.0  0.5299800204654518  0.4328230347558062  0.8791170169852905  1.0000
  O   O6        1.0  0.9700078445326668  0.9328202626475887  0.12087640526446823  1.0000
  O   O7        1.0  0.4700192747612845  0.5671748915405388  0.1208851322986604  1.0000
  O   O8        1.0  0.029985578757269597  0.06717850119552791  0.8791224246825777  1.0000
  O   O9        1.0  0.8830388107518843  0.4249567630471275  0.8940434844565104  1.0000
  O   O10       1.0  0.6169549183511974  0.9249546749062032  0.10595570974863477  1.0000
  O   O11       1.0  0.11696632473102402  0.575044513480357  0.10595780211619402  1.0000
  O   O12       1.0  0.38303995549787834  0.0750457640488662  0.8940416499046505  1.0000
  O   O13       1.0  0.6410418994761217  0.26506070392585457  0.3145959733285012  1.0000
  O   O14       1.0  0.8589468054970196  0.7650617228497579  0.6853897525314495  1.0000
  O   O15       1.0  0.3589500479173112  0.7349439228196388  0.6854009812888721  1.0000
  O   O16       1.0  0.14103632447130823  0.23493620340683924  0.3146009684329698  1.0000
  O   O17       1.0  0.6154901680803134  0.10766049977151938  0.4549021140020741  1.0000
  O   O18       1.0  0.8845302224667934  0.6076572259518187  0.545091116429937  1.0000
  O   O19       1.0  0.3845061436613691  0.8923466396402732  0.5450921025502566  1.0000
  O   O20       1.0  0.11548071523838391  0.3923423754394618  0.454904288937577  1.0000
  O   O21       1.0  0.32325028512161685  0.0579219469027379  0.1694172822640212  1.0000
  O   O22       1.0  0.1767443068712069  0.5579247553764758  0.830590463254346  1.0000
  O   O23       1.0  0.6767446457582978  0.9420743042857112  0.8305876050879846  1.0000
  O   O24       1.0  0.8232593463633578  0.4420740084665482  0.16940811154589144  1.0000
  O   O25       1.0  0.5008233822712  0.2594271427448334  0.026853623211401608  1.0000
  O   O26       1.0  0.9991741842589477  0.759425098219495  0.9731466598399124  1.0000
  O   O27       1.0  0.49918176587538443  0.7405674333210754  0.9731493361624644  1.0000
  O   O28       1.0  0.0008236350598593999  0.2405719905120165  0.026853614090242704  1.0000
