data_image0
_chemical_formula_structural       Cd3H22C20S2N2O20
_chemical_formula_sum              "Cd3 H22 C20 S2 N2 O20"
_cell_length_a       8.412293019859522
_cell_length_b       8.539240969295976
_cell_length_c       11.358183937602465
_cell_angle_alpha    95.42140415822352
_cell_angle_beta     88.56202310857635
_cell_angle_gamma    104.67192208383132

_space_group_name_H-M_alt    "P 1"
_space_group_IT_number       1

loop_
  _space_group_symop_operation_xyz
  'x, y, z'

loop_
  _atom_site_type_symbol
  _atom_site_label
  _atom_site_symmetry_multiplicity
  _atom_site_fract_x
  _atom_site_fract_y
  _atom_site_fract_z
  _atom_site_occupancy
  Cd  Cd1       1.0  0.09311647289362675  0.43837682023774965  0.3039898523646799  1.0000
  Cd  Cd2       1.0  0.9068909526609517  0.5616301798290734  0.6960139847732594  1.0000
  Cd  Cd3       1.0  0.499998619007343  0.9999992980030115  0.9999965984763083  1.0000
  H   H1        1.0  0.6026055044559656  0.918498973327914  0.2908482805057063  1.0000
  H   H2        1.0  0.3974082016646038  0.0814957016791737  0.7091512212635182  1.0000
  H   H3        1.0  0.4785907466935128  0.6812041953679466  0.6106098268388466  1.0000
  H   H4        1.0  0.5214211707791279  0.3187965924131789  0.3893856710366849  1.0000
  H   H5        1.0  0.8975696787190729  0.0917143940461429  0.6041904589350154  1.0000
  H   H6        1.0  0.10243927255436348  0.9082888951773498  0.3958078507990593  1.0000
  H   H7        1.0  0.9636706764916525  0.68862578002922  0.16738549311493506  1.0000
  H   H8        1.0  0.03628276968267837  0.3113589627581916  0.8326311595097098  1.0000
  H   H9        1.0  0.09667011283985968  0.26587948320830884  0.04271636488385161  1.0000
  H   H10       1.0  0.9032923251700495  0.7341075476478521  0.9572986473176432  1.0000
  H   H11       1.0  0.9479914577176558  0.663190094106305  0.4329503428110117  1.0000
  H   H12       1.0  0.05201380265462059  0.336821812042615  0.5670511750327096  1.0000
  H   H13       1.0  0.8076668639482281  0.5086974454410012  0.4104760494000745  1.0000
  H   H14       1.0  0.19233901896447492  0.4913119931961349  0.5895217850876336  1.0000
  H   H15       1.0  0.5021331797260374  0.318763828807981  0.9683533109538518  1.0000
  H   H16       1.0  0.4978578668495928  0.681233594516705  0.03163322566478402  1.0000
  H   H17       1.0  0.6049226366309739  0.2774394014981495  0.8568004634886536  1.0000
  H   H18       1.0  0.39507761049596  0.7225615471917237  0.14318891494570352  1.0000
  H   H19       1.0  0.833058512327611  0.022599517242611  0.00023650058529510053  1.0000
  H   H20       1.0  0.16693914074180324  0.9773966063425448  0.9997560970790434  1.0000
  H   H21       1.0  0.7948627686769071  0.049533834696319404  0.14037769406763095  1.0000
  H   H22       1.0  0.20514231587728912  0.9504633894169673  0.8596149525127575  1.0000
  C   C1        1.0  0.7647930619448716  0.015208647418148803  0.4384127933234226  1.0000
  C   C2        1.0  0.23521764773724393  0.9847921638863755  0.5615835902687254  1.0000
  C   C3        1.0  0.6301250339127336  0.9057279253204344  0.3819707600759231  1.0000
  C   C4        1.0  0.36988869618192405  0.0942667453145845  0.6180278607163958  1.0000
  C   C5        1.0  0.5273511344403089  0.7845186069985888  0.44335160874533847  1.0000
  C   C6        1.0  0.47265749890478753  0.21548836954483622  0.5566513426759842  1.0000
  C   C7        1.0  0.5593653186216512  0.7739049908765098  0.5620840918684139  1.0000
  C   C8        1.0  0.4406464114509491  0.22610436512021442  0.43791636185143556  1.0000
  C   C9        1.0  0.6916087640365448  0.8857822330861895  0.6184664580107155  1.0000
  C   C10       1.0  0.3084037040542428  0.1142161002993731  0.38152799943952  1.0000
  C   C11       1.0  0.7953506988831764  0.005688382980210297  0.5581200472465184  1.0000
  C   C12       1.0  0.20466108806115807  0.9943075239052563  0.44187513647195  1.0000
  C   C13       1.0  0.8709450346582558  0.1480076560367181  0.3739002435044372  1.0000
  C   C14       1.0  0.1290666128342224  0.851996810320209  0.6260981341045382  1.0000
  C   C15       1.0  0.37807512789069625  0.6712508692117966  0.38672312409021015  1.0000
  C   C16       1.0  0.6219322976638821  0.3287561308550267  0.6132807130477291  1.0000
  C   C17       1.0  0.9796069939500641  0.6046648500903585  0.09235206587791821  1.0000
  C   C18       1.0  0.02034441317758961  0.3953211464357978  0.9076646735804917  1.0000
  C   C19       1.0  0.05201418101846401  0.36960458038318933  0.0229346704407334  1.0000
  C   C20       1.0  0.947952089078747  0.6303836171992215  0.9770821668497621  1.0000
  S   S1        1.0  0.7121765297952294  0.876622401358766  0.7727276150349384  1.0000
  S   S2        1.0  0.2878288940029917  0.12338094094663177  0.2272698279413704  1.0000
  N   N1        1.0  0.031386976249770285  0.4741453334636106  0.11418989857641294  1.0000
  N   N2        1.0  0.9685820380146738  0.5258440325080898  0.8858252446351785  1.0000
  O   O1        1.0  0.8456963447591977  0.16286915348091924  0.26685726137480265  1.0000
  O   O2        1.0  0.1543175354451662  0.8371218604386713  0.7331428845686008  1.0000
  O   O3        1.0  0.9882035764602083  0.24910578050968016  0.43300952919263136  1.0000
  O   O4        1.0  0.011801655545298124  0.7508975967722974  0.5669949615989156  1.0000
  O   O5        1.0  0.33941468406115394  0.6830740977990715  0.2809850148164515  1.0000
  O   O6        1.0  0.6606115128652448  0.31694479017306787  0.7190160103409371  1.0000
  O   O7        1.0  0.2886432257967402  0.56426372189857  0.4487511524746213  1.0000
  O   O8        1.0  0.7113559876234704  0.43573358922719757  0.5512397558505386  1.0000
  O   O9        1.0  0.7291650745996634  0.7120827045330814  0.7897552807700524  1.0000
  O   O10       1.0  0.27083959612983216  0.2879182243884344  0.21024553140520655  1.0000
  O   O11       1.0  0.5499317681148669  0.8938608281379531  0.8183158298940542  1.0000
  O   O12       1.0  0.4500728137693457  0.10613884162675903  0.18167609515781186  1.0000
  O   O13       1.0  0.8509735054828694  0.007736381934513807  0.817863518628123  1.0000
  O   O14       1.0  0.1490297833723133  0.9922682315979046  0.18213753508958067  1.0000
  O   O15       1.0  0.8952918835076177  0.5815324528404987  0.3674975348969697  1.0000
  O   O16       1.0  0.10471337686465887  0.41847945330842146  0.6325039829467444  1.0000
  O   O17       1.0  0.5904232828627229  0.267959475608734  0.943979628947638  1.0000
  O   O18       1.0  0.409571195291754  0.7320379121223368  0.0560112983363794  1.0000
  O   O19       1.0  0.75711605476382  0.9827246328137774  0.06387749002327331  1.0000
  O   O20       1.0  0.2428836719842096  0.01727513541658961  0.936118858871986  1.0000
