data_image0
_chemical_formula_structural       Zn2H26C38N10O8
_chemical_formula_sum              "Zn2 H26 C38 N10 O8"
_cell_length_a       9.268972275361623
_cell_length_b       10.836435124289538
_cell_length_c       11.221450108675224
_cell_angle_alpha    86.14967301739901
_cell_angle_beta     72.83697147598431
_cell_angle_gamma    69.66804410177282

_space_group_name_H-M_alt    "P 1"
_space_group_IT_number       1

loop_
  _space_group_symop_operation_xyz
  'x, y, z'

loop_
  _atom_site_type_symbol
  _atom_site_label
  _atom_site_symmetry_multiplicity
  _atom_site_fract_x
  _atom_site_fract_y
  _atom_site_fract_z
  _atom_site_occupancy
  Zn  Zn1       1.0  0.5881422137456767  0.7175230839906063  0.6812159370462894  1.0000
  Zn  Zn2       1.0  0.41185577372478815  0.28247597819414233  0.31878359323426514  1.0000
  H   H1        1.0  0.6165923245665397  0.6283024846993326  0.9588349344666369  1.0000
  H   H2        1.0  0.38341005966499603  0.37169952732794087  0.0411651436971852  1.0000
  H   H3        1.0  0.8665342675136997  0.4313433161249307  0.6058481533129199  1.0000
  H   H4        1.0  0.13346473789606964  0.5686586754712548  0.3941536408474846  1.0000
  H   H5        1.0  0.9979715711958478  0.2828433176716203  0.7787299055463636  1.0000
  H   H6        1.0  0.0020292682749456833  0.7171596758994594  0.22127049505034793  1.0000
  H   H7        1.0  0.08729989375120077  0.2574507005494979  0.9344433528329575  1.0000
  H   H8        1.0  0.9127033200068554  0.7425493523664953  0.06555573997157176  1.0000
  H   H9        1.0  0.15272751571473006  0.21595853980821997  0.1367780726649812  1.0000
  H   H10       1.0  0.8472749828091111  0.7840405355403133  0.8632203572131375  1.0000
  H   H11       1.0  0.959266283245384  0.35121399374987305  0.3274910666708521  1.0000
  H   H12       1.0  0.040736636744114214  0.6487840862056585  0.672508206569745  1.0000
  H   H13       1.0  0.8452195113900057  0.5425075232846766  0.4364300631711586  1.0000
  H   H14       1.0  0.15477906361757482  0.4574954848210025  0.5635691062372743  1.0000
  H   H15       1.0  0.459952192294402  0.6016154759985923  0.2831704583232764  1.0000
  H   H16       1.0  0.5400498463894293  0.3983766850755401  0.7168293562255101  1.0000
  H   H17       1.0  0.3443829080867146  0.733416437988751  0.5171811405938342  1.0000
  H   H18       1.0  0.6556159044420086  0.2665806756429631  0.4828165136326774  1.0000
  H   H19       1.0  0.20031753963935028  0.9002934841268836  0.11689933809304161  1.0000
  H   H20       1.0  0.7996810398364929  0.0997095134205495  0.8831007220101412  1.0000
  H   H21       1.0  0.08633561356737834  0.9656927762874329  0.7688839952562603  1.0000
  H   H22       1.0  0.9136635061346966  0.0343062786300123  0.23111615061844049  1.0000
  H   H23       1.0  0.12830923866467003  0.7734840027998258  0.4049794166450482  1.0000
  H   H24       1.0  0.8716848297577966  0.22651898158382272  0.5950217438605706  1.0000
  H   H25       1.0  0.731593126395161  0.06101570030570255  0.6589048132636323  1.0000
  H   H26       1.0  0.2684017760220953  0.9389853144084268  0.34109625257744375  1.0000
  C   C1        1.0  0.699757434737066  0.5547604514014849  0.8868767407067395  1.0000
  C   C2        1.0  0.3002453620236024  0.4452405863492713  0.11312239943006831  1.0000
  C   C3        1.0  0.8307493506659895  0.4506413581737192  0.7056190773624706  1.0000
  C   C4        1.0  0.1692492288098535  0.5493616393737142  0.2943809827407122  1.0000
  C   C5        1.0  0.9005813272736278  0.376271816568561  0.7902247601942634  1.0000
  C   C6        1.0  0.09942218472125565  0.623730198749655  0.20977504286895512  1.0000
  C   C7        1.0  0.8588391575440184  0.4117939814409011  0.018102277830848904  1.0000
  C   C8        1.0  0.14116406068230697  0.5882060609168462  0.9818977056684303  1.0000
  C   C9        1.0  0.004552809048476517  0.3143975814256236  0.0185007430740853  1.0000
  C   C10       1.0  0.9954526647045371  0.6856024675140161  0.9814986902239726  1.0000
  C   C11       1.0  0.041103354337217006  0.29190599059527494  0.13160957230356024  1.0000
  C   C12       1.0  0.9589002808865034  0.7080930669277166  0.8683903638634475  1.0000
  C   C13       1.0  0.9340532434189863  0.36685002738224176  0.2378565825366864  1.0000
  C   C14       1.0  0.06594925957312371  0.6331490374080457  0.7621427380361824  1.0000
  C   C15       1.0  0.793606307777175  0.46285942026725735  0.2247228354281035  1.0000
  C   C16       1.0  0.20639548891725212  0.5371386458390857  0.7752776036078544  1.0000
  C   C17       1.0  0.723500181729136  0.5730945843880519  0.43000386512127176  1.0000
  C   C18       1.0  0.27649810397814895  0.4269064401989198  0.569996375417972  1.0000
  C   C19       1.0  0.5192603547430537  0.6092891346475326  0.35077815993629713  1.0000
  C   C20       1.0  0.48074197324107365  0.3907050099453072  0.6492205834816788  1.0000
  C   C21       1.0  0.4649057418784325  0.6726330241088971  0.46562590259590314  1.0000
  C   C22       1.0  0.5350939046450734  0.32736211985329783  0.5343716569660657  1.0000
  C   C23       1.0  0.32883798984013174  0.841705716038369  0.8716912989768276  1.0000
  C   C24       1.0  0.6711591681038129  0.15829530525765279  0.12830921666302683  1.0000
  C   C25       1.0  0.15911890804253653  0.9254153034520414  0.9368782815038871  1.0000
  C   C26       1.0  0.8408805143646275  0.07458570330938838  0.06312346532424583  1.0000
  C   C27       1.0  0.11089126601044105  0.9442325235906208  0.0670933600626356  1.0000
  C   C28       1.0  0.8891085689258489  0.0557675088942915  0.932907448738476  1.0000
  C   C29       1.0  0.047352721939958625  0.9820418561222508  0.869947400370087  1.0000
  C   C30       1.0  0.9526468192277802  0.01795620340219269  0.13005358886709228  1.0000
  C   C31       1.0  0.8404785726343603  0.8072751647250128  0.5735272785564122  1.0000
  C   C32       1.0  0.1595147716173528  0.1927268632076603  0.4264714376332962  1.0000
  C   C33       1.0  0.9222820945827834  0.9074080042004338  0.5359093626610374  1.0000
  C   C34       1.0  0.07771237743227741  0.09259402702318907  0.4640890784280601  1.0000
  C   C35       1.0  0.0732232775149057  0.8730741431859315  0.4462546658752445  1.0000
  C   C36       1.0  0.9267758555919698  0.1269248800567908  0.5537481520837062  1.0000
  C   C37       1.0  0.8491966055091922  0.035389455512621695  0.5896517683697697  1.0000
  C   C38       1.0  0.15080013543735762  0.9646125506181633  0.41034879460236345  1.0000
  N   N1        1.0  0.7061020948273439  0.5609935617742179  0.7668191800167818  1.0000
  N   N2        1.0  0.29389874464345667  0.439009431796869  0.23318122057992247  1.0000
  N   N3        1.0  0.8170183674560362  0.44311559829863256  0.9051133715698542  1.0000
  N   N4        1.0  0.18298401230723724  0.5568864242868798  0.09488581589922519  1.0000
  N   N5        1.0  0.7541787338459828  0.48530015677265215  0.11847457610262775  1.0000
  N   N6        1.0  0.24582489244119898  0.5146989218668236  0.8815235786748803  1.0000
  N   N7        1.0  0.6835381262279794  0.5452570911474838  0.3297239479044408  1.0000
  N   N8        1.0  0.3164637936952843  0.4547380171636347  0.6702766242353064  1.0000
  N   N9        1.0  0.593522009321532  0.649611190046727  0.5133603982039788  1.0000
  N   N10       1.0  0.4064748503855853  0.35038786884707906  0.4866394071771867  1.0000
  O   O1        1.0  0.3566256996749076  0.8098085660141048  0.755084930416736  1.0000
  O   O2        1.0  0.6433730074980418  0.19019146317986463  0.2449161534849864  1.0000
  O   O3        1.0  0.43232048367748627  0.8062591165044707  0.9294918412578995  1.0000
  O   O4        1.0  0.5676789208566079  0.1937419324899281  0.0705063427912336  1.0000
  O   O5        1.0  0.6954709236458073  0.8505409518574965  0.6468114421988602  1.0000
  O   O6        1.0  0.3045262387664068  0.14946005888028677  0.35318996413575127  1.0000
  O   O7        1.0  0.9153121334790696  0.6890901827261827  0.5345586506886093  1.0000
  O   O8        1.0  0.0846839011697895  0.3109108247206506  0.46544303074660587  1.0000
