data_image0
_chemical_formula_structural       Zn4H52C48N36O4
_chemical_formula_sum              "Zn4 H52 C48 N36 O4"
_cell_length_a       8.627423115048945
_cell_length_b       12.675609435475678
_cell_length_c       13.888708819439193
_cell_angle_alpha    98.09525960267433
_cell_angle_beta     90.00013092421632
_cell_angle_gamma    89.99963207476694

_space_group_name_H-M_alt    "P 1"
_space_group_IT_number       1

loop_
  _space_group_symop_operation_xyz
  'x, y, z'

loop_
  _atom_site_type_symbol
  _atom_site_label
  _atom_site_symmetry_multiplicity
  _atom_site_fract_x
  _atom_site_fract_y
  _atom_site_fract_z
  _atom_site_occupancy
  Zn  Zn1       1.0  0.23677456254877438  0.429394765093747  0.7161180267973891  1.0000
  Zn  Zn2       1.0  0.7367752356484589  0.07060234652223579  0.2838791932487936  1.0000
  Zn  Zn3       1.0  0.7632269579557304  0.570605124224805  0.2838839502018757  1.0000
  Zn  Zn4       1.0  0.2632286030436718  0.9293967174839535  0.716119804194797  1.0000
  H   H1        1.0  0.6369377869071685  0.21506838381777982  0.019079887878916704  1.0000
  H   H2        1.0  0.13694173003088392  0.2849275974705563  0.9809199376543917  1.0000
  H   H3        1.0  0.3630660517875413  0.7849306944293986  0.9809205513560926  1.0000
  H   H4        1.0  0.8630574722809572  0.7150706412384126  0.019076080230512098  1.0000
  H   H5        1.0  0.28112017907796644  0.4942268808767309  0.14539922078451184  1.0000
  H   H6        1.0  0.7811142691575058  0.005777991614444  0.8545975554716849  1.0000
  H   H7        1.0  0.7188836596154505  0.5057721902499495  0.8546004975547847  1.0000
  H   H8        1.0  0.21887450130671482  0.9942210866655542  0.14540288375682303  1.0000
  H   H9        1.0  0.625248700583896  0.20714290757890552  0.839735547793211  1.0000
  H   H10       1.0  0.12524608173814042  0.29285151674496745  0.1602626339116284  1.0000
  H   H11       1.0  0.37475745629625123  0.7928561493017339  0.16026272875566147  1.0000
  H   H12       1.0  0.8747519614894871  0.7071443314905679  0.8397330960512832  1.0000
  H   H13       1.0  0.10528830359540822  0.6125461432031827  0.06318803108616318  1.0000
  H   H14       1.0  0.6052849871050797  0.8874618645228055  0.9368061662994549  1.0000
  H   H15       1.0  0.894714376005034  0.38745375323333764  0.9368146668093118  1.0000
  H   H16       1.0  0.3947026242445021  0.11254118364532667  0.0631933110062803  1.0000
  H   H17       1.0  0.09621652125263583  0.588803895346352  0.8814770932700713  1.0000
  H   H18       1.0  0.5962146199864621  0.911194604226665  0.11851738639354177  1.0000
  H   H19       1.0  0.9037815219700962  0.4111951900339506  0.11852406685814999  1.0000
  H   H20       1.0  0.40377878685895047  0.08880448828423229  0.8814844946283886  1.0000
  H   H21       1.0  0.31365405236063293  0.5368069003890598  0.4723639463393924  1.0000
  H   H22       1.0  0.8136647662176558  0.9631954615215007  0.5276341803830249  1.0000
  H   H23       1.0  0.6863393544913522  0.46318978028438096  0.5276354840739117  1.0000
  H   H24       1.0  0.1863379133606102  0.03680920874645469  0.4723683724597336  1.0000
  H   H25       1.0  0.17493525025275156  0.4420599436376946  0.5006815697188642  1.0000
  H   H26       1.0  0.6749426257559181  0.0579430506901559  0.49931987326424837  1.0000
  H   H27       1.0  0.8250593156981483  0.5579375765815229  0.4993222820430461  1.0000
  H   H28       1.0  0.325061212913525  0.9420624164005885  0.500682775552832  1.0000
  H   H29       1.0  0.07309294518321961  0.6266925700240832  0.5420171934035878  1.0000
  H   H30       1.0  0.5730949557681272  0.8733140839564302  0.4579868767951609  1.0000
  H   H31       1.0  0.9269062571284936  0.37330811612483233  0.45798487956850664  1.0000
  H   H32       1.0  0.4269054056199338  0.1266913973828849  0.542017213811846  1.0000
  H   H33       1.0  0.23738529739876682  0.6644751883251275  0.6135985497542151  1.0000
  H   H34       1.0  0.7373850739394641  0.8355259619975756  0.38640436547326124  1.0000
  H   H35       1.0  0.7626139049208124  0.33552309310682915  0.386401793504966  1.0000
  H   H36       1.0  0.26261412835742  0.16447872251894316  0.6135996291594168  1.0000
  H   H37       1.0  0.4077617708237541  0.3919355238713321  0.5588221968693361  1.0000
  H   H38       1.0  0.9077615182342244  0.10806720335793328  0.4411744967210681  1.0000
  H   H39       1.0  0.5922374314901475  0.6080643583317666  0.44117905923322104  1.0000
  H   H40       1.0  0.09223884315434823  0.8919366487282544  0.5588257974597184  1.0000
  H   H41       1.0  0.4487840030925555  0.5129357487945184  0.6185993993680796  1.0000
  H   H42       1.0  0.9487870065451176  0.9870660245620682  0.3813988439550684  1.0000
  H   H43       1.0  0.551214040120634  0.4870649159954325  0.3814005109163787  1.0000
  H   H44       1.0  0.05121451394546031  0.0129370520577652  0.6186035169395226  1.0000
  H   H45       1.0  0.07096168030456342  0.6323222464259715  0.7251305885524174  1.0000
  H   H46       1.0  0.5709607523427495  0.8676796216509427  0.274871462171582  1.0000
  H   H47       1.0  0.9290375220010889  0.36767922230727373  0.2748701386020898  1.0000
  H   H48       1.0  0.4290384499610982  0.13232346921493837  0.7251323405134329  1.0000
  H   H49       1.0  0.9837316827963607  0.5307356958639957  0.6616800147824975  1.0000
  H   H50       1.0  0.4837338934924207  0.969268329993483  0.3383199884096868  1.0000
  H   H51       1.0  0.016266360422889602  0.46926418634162553  0.3383212413195551  1.0000
  H   H52       1.0  0.5162676269911942  0.030736340276987996  0.6616825644325672  1.0000
  C   C1        1.0  0.3645392024477589  0.40933826665946793  0.009531802509698699  1.0000
  C   C2        1.0  0.8645364892353913  0.0906598678830406  0.9904642779397648  1.0000
  C   C3        1.0  0.6354634771361777  0.5906648028373381  0.9904698374896768  1.0000
  C   C4        1.0  0.1354569176244595  0.909334408073434  0.009533422760618668  1.0000
  C   C5        1.0  0.4400746870535246  0.3231927083633366  0.8416826712300249  1.0000
  C   C6        1.0  0.9400727653036683  0.1768034964046521  0.15831256155621531  1.0000
  C   C7        1.0  0.5599314698209455  0.6768079492884455  0.1583165181622235  1.0000
  C   C8        1.0  0.05992643702338541  0.823191562123526  0.8416837933290822  1.0000
  C   C9        1.0  0.46440836632025667  0.33637724926367696  0.050189078334561474  1.0000
  C   C10       1.0  0.9644106296077625  0.163618059802829  0.9498068003729686  1.0000
  C   C11       1.0  0.5355954723652944  0.6636242265799693  0.9498123697176553  1.0000
  C   C12       1.0  0.03558509542836671  0.8363785923835679  0.050189746458485666  1.0000
  C   C13       1.0  0.5569003642384446  0.26625828348637987  0.9865300942942312  1.0000
  C   C14       1.0  0.05690470386854681  0.2337364456402113  0.013468749331330795  1.0000
  C   C15       1.0  0.4431057926416956  0.7337407733942527  0.013468182254641178  1.0000
  C   C16       1.0  0.9430944984671471  0.7662578445446399  0.9865303931629795  1.0000
  C   C17       1.0  0.35227998017001744  0.4018725850845825  0.9068736150316781  1.0000
  C   C18       1.0  0.8522797005033385  0.09812718937892838  0.09312192589226238  1.0000
  C   C19       1.0  0.6477284949011095  0.5981272970983227  0.09312764107487938  1.0000
  C   C20       1.0  0.1477229790842074  0.9018726358526123  0.9068735630460907  1.0000
  C   C21       1.0  0.27265404046867303  0.48691725648853895  0.06648395814069369  1.0000
  C   C22       1.0  0.7726564667325138  0.013088421202844796  0.9335100232046258  1.0000
  C   C23       1.0  0.7273555937196721  0.5130786700472214  0.9335197016800549  1.0000
  C   C24       1.0  0.22734389464922344  0.9869145770940334  0.06648440783662575  1.0000
  C   C25       1.0  0.5484167934398843  0.2604717629410159  0.8864829949315264  1.0000
  C   C26       1.0  0.04841565166913142  0.23952138813633886  0.1135134867363732  1.0000
  C   C27       1.0  0.45158936344194  0.7395281192469341  0.11351826117402906  1.0000
  C   C28       1.0  0.9515823915520444  0.7604744244966994  0.886478638747974  1.0000
  C   C29       1.0  0.17665512266867012  0.5516830499564447  0.02114653381920558  1.0000
  C   C30       1.0  0.6766467654318404  0.9483167214056393  0.9788510907828468  1.0000
  C   C31       1.0  0.8233406023273703  0.44832398944112833  0.9788541442549032  1.0000
  C   C32       1.0  0.3233385277862056  0.051675221056527214  0.021152089158235302  1.0000
  C   C33       1.0  0.17101783428031334  0.5387448175524554  0.9190439123839412  1.0000
  C   C34       1.0  0.671016494683741  0.9612581514083515  0.08095264946060607  1.0000
  C   C35       1.0  0.8289906408025517  0.4612526812749777  0.08095777669682748  1.0000
  C   C36       1.0  0.3289838667139833  0.03874330308136819  0.9190466359029728  1.0000
  C   C37       1.0  0.515624873987605  0.2656530115401523  0.2827250639152652  1.0000
  C   C38       1.0  0.015624836547424106  0.23434504907391573  0.7172705235084251  1.0000
  C   C39       1.0  0.48438012379917694  0.7343460524635077  0.7172739335288227  1.0000
  C   C40       1.0  0.9843697293753596  0.7656555801211126  0.2827257822959766  1.0000
  C   C41       1.0  0.2521515789488761  0.5067572239395446  0.5323260853999514  1.0000
  C   C42       1.0  0.7521571605093912  0.9932454272232858  0.46767415093670905  1.0000
  C   C43       1.0  0.7478453051839795  0.49324107173845283  0.46767569964964656  1.0000
  C   C44       1.0  0.247845519068875  0.0067592430446623995  0.5323284019060495  1.0000
  C   C45       1.0  0.160448335288244  0.5972910714861114  0.5892343474883859  1.0000
  C   C46       1.0  0.6604510617855441  0.9027119933457327  0.4107672515074512  1.0000
  C   C47       1.0  0.8395508670256648  0.4027088107169803  0.4107669086141641  1.0000
  C   C48       1.0  0.33954929960948027  0.0972918943429377  0.5892366471518926  1.0000
  N   N1        1.0  0.2555821354748317  0.46605700319304333  0.8639949400642735  1.0000
  N   N2        1.0  0.7555744887349434  0.0339392225771391  0.1360014793378852  1.0000
  N   N3        1.0  0.7444170668172847  0.5339484710282961  0.1360084296465232  1.0000
  N   N4        1.0  0.24441659994952403  0.9660518660830989  0.8639958374661701  1.0000
  N   N5        1.0  0.5751784479366934  0.1849352227618296  0.3259366299491618  1.0000
  N   N6        1.0  0.07517751092589722  0.3150641792343407  0.6740599217064799  1.0000
  N   N7        1.0  0.424824231660786  0.8150638412468753  0.6740623674939243  1.0000
  N   N8        1.0  0.9248193731856775  0.6849380792087769  0.3259401805251443  1.0000
  N   N9        1.0  0.45695440178793956  0.338266563450432  0.1492865012151086  1.0000
  N   N10       1.0  0.9569551596083845  0.16173197250755317  0.850710475850761  1.0000
  N   N11       1.0  0.5430494369089659  0.6617317108509296  0.8507131211503562  1.0000
  N   N12       1.0  0.043040565422977316  0.8382654693836713  0.14928544605881197  1.0000
  N   N13       1.0  0.5305051606783665  0.26303935071091195  0.1832970291969431  1.0000
  N   N14       1.0  0.030507782358427004  0.23695705143428825  0.8166983791204743  1.0000
  N   N15       1.0  0.4694998371014522  0.7369613069433923  0.8167021601948008  1.0000
  N   N16       1.0  0.9694867835878258  0.7630388110498102  0.1832987926323568  1.0000
  N   N17       1.0  0.540698930239529  0.20753689982459625  0.42112544130410606  1.0000
  N   N18       1.0  0.040696692248580704  0.2924642531242228  0.5788719934418651  1.0000
  N   N19       1.0  0.45930374935704804  0.79246297525043  0.5788750939042302  1.0000
  N   N20       1.0  0.9593036691386986  0.7075395918414671  0.4211275798432084  1.0000
  N   N21       1.0  0.46410672201267306  0.29853132467765414  0.434743615729225  1.0000
  N   N22       1.0  0.964104908284661  0.20147115001896046  0.5652524055850279  1.0000
  N   N23       1.0  0.5358982757649572  0.7014701369224668  0.5652563905320704  1.0000
  N   N24       1.0  0.035896612190825315  0.7985326593417099  0.43474356322198565  1.0000
  N   N25       1.0  0.44632935178002253  0.3377841920221059  0.3500736569754466  1.0000
  N   N26       1.0  0.9463293682408822  0.16221596250500878  0.6499213401822388  1.0000
  N   N27       1.0  0.5536768050944475  0.6622164656296692  0.6499255324168018  1.0000
  N   N28       1.0  0.053667515861661706  0.8377862460946233  0.3500737157793949  1.0000
  N   N29       1.0  0.09029908400665222  0.5638609823901177  0.677927826980323  1.0000
  N   N30       1.0  0.5903000190094974  0.9361415840412449  0.32207289461318567  1.0000
  N   N31       1.0  0.909700118303775  0.4361396966382997  0.3220735250960587  1.0000
  N   N32       1.0  0.40970150147888523  0.06386229652440531  0.6779302831509426  1.0000
  N   N33       1.0  0.360214307835257  0.4599666712870985  0.5975234864708767  1.0000
  N   N34       1.0  0.8602180150079806  0.04003466938019069  0.4024729741447217  1.0000
  N   N35       1.0  0.6397837353827074  0.5400332037980248  0.402477048735463  1.0000
  N   N36       1.0  0.13978582367280276  0.9599675961682763  0.5975278489856137  1.0000
  O   O1        1.0  0.417002784892361  0.3132211860527505  0.7496617892875435  1.0000
  O   O2        1.0  0.9169999502470605  0.1867751476909802  0.2503363071723328  1.0000
  O   O3        1.0  0.5829998947046066  0.6867795072090885  0.2503410045817702  1.0000
  O   O4        1.0  0.08300041117683318  0.8132191068888587  0.7496592308439175  1.0000
