data_image0
_chemical_formula_structural       Zn4H40C48N12O20
_chemical_formula_sum              "Zn4 H40 C48 N12 O20"
_cell_length_a       6.318054923194563
_cell_length_b       12.977288936940923
_cell_length_c       17.170636247585676
_cell_angle_alpha    69.9993569966379
_cell_angle_beta     80.70348949513226
_cell_angle_gamma    76.32418737563044

_space_group_name_H-M_alt    "P 1"
_space_group_IT_number       1

loop_
  _space_group_symop_operation_xyz
  'x, y, z'

loop_
  _atom_site_type_symbol
  _atom_site_label
  _atom_site_symmetry_multiplicity
  _atom_site_fract_x
  _atom_site_fract_y
  _atom_site_fract_z
  _atom_site_occupancy
  Zn  Zn1       1.0  0.8177815035159669  0.9596158173947842  0.21832495201903868  1.0000
  Zn  Zn2       1.0  0.9906608376281623  0.5405932875862902  0.2834376883804238  1.0000
  Zn  Zn3       1.0  0.18221975738377716  0.0403859003856226  0.7816736740555681  1.0000
  Zn  Zn4       1.0  0.009334324462187765  0.4594050856060932  0.7165642520542193  1.0000
  H   H1        1.0  0.1775116141380622  0.0251705333190131  0.1942935879182599  1.0000
  H   H2        1.0  0.3916834314801961  0.4739548796559987  0.30685075945223156  1.0000
  H   H3        1.0  0.8224916991799275  0.9748303483143843  0.8057035023881268  1.0000
  H   H4        1.0  0.6083173345499163  0.5260460019774058  0.6931504951585268  1.0000
  H   H5        1.0  0.24754423899094055  0.8938269348224992  0.22692100740220408  1.0000
  H   H6        1.0  0.3669508524968564  0.6047483389090189  0.2750512278160926  1.0000
  H   H7        1.0  0.7524535346453476  0.1061739468109053  0.7730800055694046  1.0000
  H   H8        1.0  0.6330426906931734  0.3952533788713879  0.7249486479022593  1.0000
  H   H9        1.0  0.505071451134306  0.9005077493997504  0.5392112125576389  1.0000
  H   H10       1.0  0.9450265285447447  0.6003669285980351  0.9599078357731442  1.0000
  H   H11       1.0  0.4949400249993515  0.0994931322336541  0.4607890340485384  1.0000
  H   H12       1.0  0.05496835398175646  0.39962977230034374  0.04009380050891312  1.0000
  H   H13       1.0  0.6243880431392129  0.5143692090398204  0.5502101796243577  1.0000
  H   H14       1.0  0.6887329868481586  0.9864594808726324  0.9479325997861707  1.0000
  H   H15       1.0  0.37561244623341844  0.4856341810345981  0.4497930357267848  1.0000
  H   H16       1.0  0.3112796017281596  0.013539728466760402  0.0520643336444166  1.0000
  H   H17       1.0  0.6179636862176353  0.1603077762677572  0.27930138079968714  1.0000
  H   H18       1.0  0.05546183702800525  0.3397022802395071  0.2221056475799017  1.0000
  H   H19       1.0  0.38203757468210864  0.8396939415126496  0.72069724527492  1.0000
  H   H20       1.0  0.9445248855891896  0.6602986013938903  0.7778950972953425  1.0000
  H   H21       1.0  0.5106031904062289  0.3647908711519463  0.212365272095262  1.0000
  H   H22       1.0  0.08675110958655098  0.1351439321247909  0.2884692368267139  1.0000
  H   H23       1.0  0.4893861836892484  0.6352100104814582  0.787634438318193  1.0000
  H   H24       1.0  0.913242132620283  0.8648552772146019  0.7115292557919375  1.0000
  H   H25       1.0  0.6434265734858825  0.3069871924861332  0.9741917110617492  1.0000
  H   H26       1.0  0.926080914805567  0.1929509553786275  0.5264181349520527  1.0000
  H   H27       1.0  0.35655827208650254  0.6930161975882854  0.025807743891718447  1.0000
  H   H28       1.0  0.07394063821455885  0.807040728637709  0.4735841859839525  1.0000
  H   H29       1.0  0.7571145645486795  0.1058720977417664  0.0499791015934363  1.0000
  H   H30       1.0  0.9123519354592564  0.3942073589669874  0.4513534620128965  1.0000
  H   H31       1.0  0.24287825687791553  0.8941321284796544  0.9500183289217715  1.0000
  H   H32       1.0  0.08766698750194037  0.6057851611963514  0.5486509723320125  1.0000
  H   H33       1.0  0.32924465027729616  0.503434914643492  0.07477763641851  1.0000
  H   H34       1.0  0.9057696318613181  0.9969522896498404  0.4235407227598103  1.0000
  H   H35       1.0  0.6707428681927254  0.4965693115779359  0.9252218630202761  1.0000
  H   H36       1.0  0.09424346026629864  0.0030410666605079  0.5764593236696881  1.0000
  H   H37       1.0  0.6008798636262325  0.5195156938612229  0.06863909700781788  1.0000
  H   H38       1.0  0.18594601214676498  0.9805002611614881  0.43301973951912487  1.0000
  H   H39       1.0  0.3991073752799469  0.48048686006619334  0.9313600982783825  1.0000
  H   H40       1.0  0.8140649662109071  0.0194956035898812  0.5669808707302265  1.0000
  C   C1        1.0  0.6232062764653252  0.8878551729062636  0.3816952410683996  1.0000
  C   C2        1.0  0.8945320252850169  0.6132653323112578  0.11799562272675965  1.0000
  C   C3        1.0  0.3767992148806768  0.1121457087271409  0.6183045222594643  1.0000
  C   C4        1.0  0.10546012299214871  0.3867322047341233  0.8820049971216193  1.0000
  C   C5        1.0  0.5844622331104149  0.794057037929889  0.46019381349034916  1.0000
  C   C6        1.0  0.8407026868140619  0.7068485775071167  0.03870246651406723  1.0000
  C   C7        1.0  0.41554627204877187  0.2059446798505249  0.5398072704237791  1.0000
  C   C8        1.0  0.15929454911388063  0.2931497956852738  0.9612990170994706  1.0000
  C   C9        1.0  0.5312299524912092  0.8155577220399479  0.5364736988161454  1.0000
  C   C10       1.0  0.8842354628730362  0.6853713055132147  0.9623216263783192  1.0000
  C   C11       1.0  0.46877823317178274  0.1844448318874683  0.4635271879441447  1.0000
  C   C12       1.0  0.1157620925511083  0.3146262315321593  0.0376800543890567  1.0000
  C   C13       1.0  0.59645822101367  0.6038887797869421  0.5411779364043312  1.0000
  C   C14       1.0  0.7423299810941154  0.8969959319749138  0.9571725106009908  1.0000
  C   C15       1.0  0.4035460751186192  0.3961146102874764  0.4588230892036477  1.0000
  C   C16       1.0  0.257679356943882  0.10300244121747681  0.0428249559849618  1.0000
  C   C17       1.0  0.6158256923421774  0.6832173908259874  0.46213282038006304  1.0000
  C   C18       1.0  0.7625385378194026  0.817572836324203  0.036502650353654104  1.0000
  C   C19       1.0  0.3841786437224569  0.316783490807417  0.5378680982291685  1.0000
  C   C20       1.0  0.2374660135510072  0.1824272091621992  0.9634953355668401  1.0000
  C   C21       1.0  0.6706458652701099  0.6417570415377583  0.3878078939585805  1.0000
  C   C22       1.0  0.7018175720269326  0.8592530922749759  0.11070493363075679  1.0000
  C   C23       1.0  0.3293525473585602  0.35824216780162743  0.6121935133207046  1.0000
  C   C24       1.0  0.29818602085489937  0.1407494616524332  0.8892924608282158  1.0000
  C   C25       1.0  0.6251755727901697  0.1963549098396982  0.2117872008965023  1.0000
  C   C26       1.0  0.030784423945228033  0.3036635081376318  0.28945632473589455  1.0000
  C   C27       1.0  0.37481938382571695  0.803647644087718  0.7882107447459602  1.0000
  C   C28       1.0  0.9692122129226773  0.6963340289077493  0.7105446575712193  1.0000
  C   C29       1.0  0.5629498940720269  0.3105190774391176  0.1736893413344376  1.0000
  C   C30       1.0  0.04531378377556898  0.1894884706271398  0.3271946384149231  1.0000
  C   C31       1.0  0.4370406567241716  0.6894826403412964  0.8263102927447576  1.0000
  C   C32       1.0  0.9546860822113107  0.8105090664182412  0.6728047317897178  1.0000
  C   C33       1.0  0.5667995653604053  0.3553390653970965  0.08685179950371952  1.0000
  C   C34       1.0  0.007681337612133712  0.1447186514895051  0.4137554610403456  1.0000
  C   C35       1.0  0.43318767354577414  0.6446634885303126  0.9131473957824808  1.0000
  C   C36       1.0  0.9923218402647721  0.8552780494088665  0.5862443479572904  1.0000
  C   C37       1.0  0.6365733848545146  0.2794771198445716  0.04182535025208269  1.0000
  C   C38       1.0  0.9576313719629111  0.2205270836336553  0.4589563603116815  1.0000
  C   C39       1.0  0.36341321505927493  0.7205271063768564  0.9581734507264413  1.0000
  C   C40       1.0  0.04238447583340158  0.779466272676693  0.5410457814986102  1.0000
  C   C41       1.0  0.6992092080308506  0.1662310416576531  0.08366747178242659  1.0000
  C   C42       1.0  0.9479188323039125  0.3338141330238642  0.41751263053285464  1.0000
  C   C43       1.0  0.30078542908884753  0.8337723484167725  0.9163302767061979  1.0000
  C   C44       1.0  0.052092228824811716  0.6661808955804958  0.5824900306119644  1.0000
  C   C45       1.0  0.49618175671782433  0.4794174280456289  0.047315565673535814  1.0000
  C   C46       1.0  0.021764376147764643  0.0206536671930735  0.45281028211652335  1.0000
  C   C47       1.0  0.5038045850514764  0.5205859620287896  0.9526840100995102  1.0000
  C   C48       1.0  0.9782450232419394  0.9793430337053053  0.5471881564177821  1.0000
  N   N1        1.0  0.694731431965927  0.1244512842131655  0.16742088217711876  1.0000
  N   N2        1.0  0.9837200011471836  0.3755997434973892  0.3339850536373774  1.0000
  N   N3        1.0  0.30526352464995904  0.8755512697142436  0.8325770634653367  1.0000
  N   N4        1.0  0.016278214688696932  0.6243969574009824  0.6660181003847825  1.0000
  N   N5        1.0  0.5152819225820764  0.7364607237215424  0.6102955854243959  1.0000
  N   N6        1.0  0.86134369755424  0.7644507447445008  0.8882493088315542  1.0000
  N   N7        1.0  0.48472654264475784  0.2635435024998856  0.38970560548848  1.0000
  N   N8        1.0  0.13865945890330517  0.2355451200068686  0.11174942121896689  1.0000
  N   N9        1.0  0.5500311050686261  0.6306764214153944  0.611299058828571  1.0000
  N   N10       1.0  0.7917130764554084  0.8702492615497448  0.8870631904375514  1.0000
  N   N11       1.0  0.44997474861227  0.3693252963650124  0.3887030595473462  1.0000
  N   N12       1.0  0.2082942276773352  0.1297466032016175  0.1129346259707518  1.0000
  O   O1        1.0  0.7164966382062656  0.8540045975188592  0.3198186102192865  1.0000
  O   O2        1.0  0.8777359810752687  0.6466117110540921  0.1817719684264887  1.0000
  O   O3        1.0  0.2835118455335675  0.1459962841145455  0.6801813947477342  1.0000
  O   O4        1.0  0.12226422582715903  0.3533858259912819  0.8182286778790981  1.0000
  O   O5        1.0  0.13289035718045747  0.954371503373693  0.23800939842050187  1.0000
  O   O6        1.0  0.3173810568743037  0.5452564794382724  0.2635883666348349  1.0000
  O   O7        1.0  0.867109428941724  0.0456310505537232  0.7619901857816344  1.0000
  O   O8        1.0  0.6826170148388258  0.45474272990112047  0.7364117645434973  1.0000
  O   O9        1.0  0.572944885402073  0.9867738721468555  0.38208658437678616  1.0000
  O   O10       1.0  0.9556199075748708  0.5147739041906831  0.1169532385051397  1.0000
  O   O11       1.0  0.4270594506625542  0.013227009486549  0.6179143342324451  1.0000
  O   O12       1.0  0.04436360443634879  0.4852236328546908  0.883047932526722  1.0000
  O   O13       1.0  0.5172035049491159  0.6430271488397423  0.3499227074154946  1.0000
  O   O14       1.0  0.512302561421336  0.8604922621377399  0.14508093833865834  1.0000
  O   O15       1.0  0.4827900810796209  0.35697624123467625  0.6500793261970729  1.0000
  O   O16       1.0  0.48770045381981236  0.1395102917896693  0.854917033761005  1.0000
  O   O17       1.0  0.8751395177727732  0.5990040089783975  0.3775175565083444  1.0000
  O   O18       1.0  0.8542166067292529  0.9001323193940962  0.12442886598414304  1.0000
  O   O19       1.0  0.12485714051449291  0.400994364213993  0.6224845047458771  1.0000
  O   O20       1.0  0.14578848234950212  0.09987023453332002  0.875568649294415  1.0000
