data_image0
_chemical_formula_structural       Cu8H36C24I2N18
_chemical_formula_sum              "Cu8 H36 C24 I2 N18"
_cell_length_a       8.511114326010778
_cell_length_b       11.691799266898883
_cell_length_c       11.691807502012963
_cell_angle_alpha    120.00018969920332
_cell_angle_beta     90.00003803252677
_cell_angle_gamma    90.00013547528899

_space_group_name_H-M_alt    "P 1"
_space_group_IT_number       1

loop_
  _space_group_symop_operation_xyz
  'x, y, z'

loop_
  _atom_site_type_symbol
  _atom_site_label
  _atom_site_symmetry_multiplicity
  _atom_site_fract_x
  _atom_site_fract_y
  _atom_site_fract_z
  _atom_site_occupancy
  Cu  Cu1       1.0  0.39115879063179193  0.33333416239857877  0.666668985140319  1.0000
  Cu  Cu2       1.0  0.891163039504619  0.6666667903916661  0.33333188405341463  1.0000
  Cu  Cu3       1.0  0.17611146678364523  0.23883429548316568  0.3944382692414904  1.0000
  Cu  Cu4       1.0  0.17611226715079914  0.6055589079867545  0.8443945466496741  1.0000
  Cu  Cu5       1.0  0.1761114978232072  0.15560350171690368  0.761164249467164  1.0000
  Cu  Cu6       1.0  0.6761127451318812  0.7611651070815879  0.6055634310009024  1.0000
  Cu  Cu7       1.0  0.6761131196996715  0.394441482192903  0.15560508150245764  1.0000
  Cu  Cu8       1.0  0.6761115391611979  0.8443988636906995  0.23883380040161484  1.0000
  H   H1        1.0  0.23425420690443127  0.9951311749480779  0.14651253576783313  1.0000
  H   H2        1.0  0.2342531201848601  0.8534903211255979  0.8486186145235379  1.0000
  H   H3        1.0  0.23425394575270533  0.1513812352891506  0.0048703352328872155  1.0000
  H   H4        1.0  0.7342544258400779  0.004869367341690601  0.8534871966754023  1.0000
  H   H5        1.0  0.7342531626929159  0.1465112087787617  0.1513816117276647  1.0000
  H   H6        1.0  0.7342546869867022  0.8486163441490645  0.9951287710805943  1.0000
  H   H7        1.0  0.30034166282202795  0.845671238530677  0.13642595054191986  1.0000
  H   H8        1.0  0.3003419517850077  0.8635747293672011  0.7092434850700471  1.0000
  H   H9        1.0  0.30034311858923257  0.2907560351911584  0.15432745741848208  1.0000
  H   H10       1.0  0.8003447267854754  0.1543304642770451  0.8635735389573539  1.0000
  H   H11       1.0  0.8003409130222464  0.1364279610564338  0.2907582088370617  1.0000
  H   H12       1.0  0.8003432710101707  0.7092417171430371  0.845668346239563  1.0000
  H   H13       1.0  0.4219216180887813  0.9272454854070061  0.0769079282404093  1.0000
  H   H14       1.0  0.4219172624578178  0.9230918782457349  0.850335676660492  1.0000
  H   H15       1.0  0.42192152688458867  0.14966116607807578  0.07275420590979559  1.0000
  H   H16       1.0  0.9219232958553789  0.0727545602396233  0.9230899364201406  1.0000
  H   H17       1.0  0.921917077076749  0.0769071797722631  0.14966340478142828  1.0000
  H   H18       1.0  0.9219245619895277  0.8503359167214056  0.9272447432229782  1.0000
  H   H19       1.0  0.6721240872727137  0.17776311371977727  0.6444316307642239  1.0000
  H   H20       1.0  0.672125500899007  0.35556951175713897  0.5333334711128684  1.0000
  H   H21       1.0  0.672125812589897  0.46666800145488435  0.8222368515832201  1.0000
  H   H22       1.0  0.1721246707355064  0.8222362784094199  0.3555683517242939  1.0000
  H   H23       1.0  0.1721267819150611  0.6444308679986362  0.4666695710902714  1.0000
  H   H24       1.0  0.17212412035704724  0.5333333659140465  0.17776582912742364  1.0000
  H   H25       1.0  0.801838984790841  0.09480718986132082  0.5072925957931175  1.0000
  H   H26       1.0  0.8018396681191858  0.49270728300451344  0.5875164189441263  1.0000
  H   H27       1.0  0.801840856733847  0.4124856754848382  0.9051910833242259  1.0000
  H   H28       1.0  0.30183878748920995  0.9051895787696792  0.49270357203820225  1.0000
  H   H29       1.0  0.301840454040132  0.5072944237236071  0.4124856391415291  1.0000
  H   H30       1.0  0.30183926542219547  0.5875140560093968  0.0948108424417526  1.0000
  H   H31       1.0  0.6832950351199828  0.0013469589031843  0.5552072381172123  1.0000
  H   H32       1.0  0.6832968815640471  0.4447926601833316  0.4461409033083256  1.0000
  H   H33       1.0  0.6832973095360516  0.5538600640641818  0.9986516376813552  1.0000
  H   H34       1.0  0.1832950982591157  0.9986514748316752  0.4447914152981056  1.0000
  H   H35       1.0  0.18329677662012503  0.5552067611752278  0.5538590992206877  1.0000
  H   H36       1.0  0.18329399877955405  0.446139357291301  0.0013483648455476164  1.0000
  C   C1        1.0  0.40822168341287585  0.0221226462735089  0.2879425054224569  1.0000
  C   C2        1.0  0.40822183266154605  0.7120596757131779  0.7341802331311341  1.0000
  C   C3        1.0  0.40822474248407303  0.2658182569306575  0.9778789986574238  1.0000
  C   C4        1.0  0.9082214132095744  0.97787835115507  0.7120609602750463  1.0000
  C   C5        1.0  0.9082224388918051  0.28794033409354114  0.265819317555497  1.0000
  C   C6        1.0  0.9082218789400687  0.73418274049822  0.022121901141851304  1.0000
  C   C7        1.0  0.3375390747052124  0.9435234063560571  0.15483849276183995  1.0000
  C   C8        1.0  0.3375368524515282  0.8451617829710684  0.7886828294406881  1.0000
  C   C9        1.0  0.3375401894724633  0.21131399688330538  0.05647675538040183  1.0000
  C   C10       1.0  0.8375382789707686  0.05647839376535299  0.8451627740574775  1.0000
  C   C11       1.0  0.8375369764175603  0.15483804190896683  0.211316594454857  1.0000
  C   C12       1.0  0.8375406889982671  0.7886838527691964  0.9435208256008563  1.0000
  C   C13       1.0  0.5574197193274912  0.08583033925487628  0.4587005683903342  1.0000
  C   C14       1.0  0.5574217112062954  0.5413007407883087  0.6271307127665438  1.0000
  C   C15       1.0  0.5574215675731509  0.3728700843742772  0.9141717127894534  1.0000
  C   C16       1.0  0.0574195953117922  0.9141707280177158  0.5412993406671303  1.0000
  C   C17       1.0  0.05742230316867139  0.4586993388742044  0.37286955778552766  1.0000
  C   C18       1.0  0.057418921995704905  0.6271280200497386  0.08582842543977152  1.0000
  C   C19       1.0  0.6857413891950656  0.0904941806810555  0.5462965026194765  1.0000
  C   C20       1.0  0.6857431537113784  0.4537040944976168  0.5441989259928731  1.0000
  C   C21       1.0  0.685743322840068  0.45580141757456977  0.9095060676772917  1.0000
  C   C22       1.0  0.1857411705359127  0.9095052470698092  0.4537017936933195  1.0000
  C   C23       1.0  0.1857441057597242  0.5462963208813604  0.4558024300356107  1.0000
  C   C24       1.0  0.18574158675919963  0.5441970225674453  0.0904951560294052  1.0000
  I   I1        1.0  0.0711807130673776  0.3333376942972989  0.6666655415986894  1.0000
  I   I2        1.0  0.5711661629860315  0.666665384190395  0.33333366914873597  1.0000
  N   N1        1.0  0.442552430370128  0.1748490929213702  0.4948375000521422  1.0000
  N   N2        1.0  0.44255305142492324  0.5051647668609575  0.6800123323918185  1.0000
  N   N3        1.0  0.44255281619263803  0.3199878414753812  0.8251533462463952  1.0000
  N   N4        1.0  0.9425503008899981  0.8251510067017801  0.5051646781136795  1.0000
  N   N5        1.0  0.9425543795689536  0.49483434514494457  0.31998593076628606  1.0000
  N   N6        1.0  0.9425499150703728  0.6800142333802198  0.17484810893864022  1.0000
  N   N7        1.0  0.3476892964119216  0.1345856227897926  0.38572714802466374  1.0000
  N   N8        1.0  0.34769024105727203  0.6142746907937209  0.7488577567096469  1.0000
  N   N9        1.0  0.34769087845597096  0.2511400277842597  0.8654158143063526  1.0000
  N   N10       1.0  0.8476897467214143  0.865414228658672  0.6142765705843658  1.0000
  N   N11       1.0  0.847691151940076  0.3857241730301125  0.251139480988165  1.0000
  N   N12       1.0  0.8476905145494771  0.7488627865130937  0.13458510923268116  1.0000
  N   N13       1.0  0.539728968190616  0.988539539745986  0.32994411424755304  1.0000
  N   N14       1.0  0.5397297744031276  0.6700573646676348  0.6585955374585808  1.0000
  N   N15       1.0  0.5397301214215063  0.34140406287657743  0.01146202960591582  1.0000
  N   N16       1.0  0.03972720054419911  0.011460493628554499  0.6700578351671069  1.0000
  N   N17       1.0  0.03972874420131229  0.3299436563247724  0.3414051951673258  1.0000
  N   N18       1.0  0.0397272222449843  0.6585949828789666  0.9885377153987915  1.0000
