data_image0
_chemical_formula_structural       Zn2H8C40N2Cl4O8F10
_chemical_formula_sum              "Zn2 H8 C40 N2 Cl4 O8 F10"
_cell_length_a       11.085904184558723
_cell_length_b       13.111269396751274
_cell_length_c       11.865533322988242
_cell_angle_alpha    84.41954353619072
_cell_angle_beta     86.29948274031256
_cell_angle_gamma    64.45435520222321

_space_group_name_H-M_alt    "P 1"
_space_group_IT_number       1

loop_
  _space_group_symop_operation_xyz
  'x, y, z'

loop_
  _atom_site_type_symbol
  _atom_site_label
  _atom_site_symmetry_multiplicity
  _atom_site_fract_x
  _atom_site_fract_y
  _atom_site_fract_z
  _atom_site_occupancy
  Zn  Zn1       1.0  0.8687192375856865  0.5547600322503287  0.4485976597619585  1.0000
  Zn  Zn2       1.0  0.13138760065029936  0.44537008873111716  0.5515089458503581  1.0000
  H   H1        1.0  0.7793329686374192  0.4292108710009828  0.3057864836968704  1.0000
  H   H2        1.0  0.22061636722180117  0.5712448603230057  0.6941978058148095  1.0000
  H   H3        1.0  0.20571201084509738  0.3395165901771975  0.9291673256784847  1.0000
  H   H4        1.0  0.7939344473481783  0.661052682388046  0.07076813343906001  1.0000
  H   H5        1.0  0.5758056134118162  0.40101603480560755  0.792829157223629  1.0000
  H   H6        1.0  0.42395646761289635  0.5994244705563858  0.20704176855561943  1.0000
  H   H7        1.0  0.6002415850112043  0.6495629580685574  0.5593768998030627  1.0000
  H   H8        1.0  0.39978611063462205  0.3508887689070335  0.4406277458778903  1.0000
  C   C1        1.0  0.03305162716674912  0.28874305956501434  0.540011813706684  1.0000
  C   C2        1.0  0.9669771244802379  0.7114035099712336  0.45994716934433205  1.0000
  C   C3        1.0  0.5143743526043638  0.4257923659166707  0.868918863294958  1.0000
  C   C4        1.0  0.4855140586123951  0.5745374493468915  0.1310255766253121  1.0000
  C   C5        1.0  0.41149169906731936  0.39527325644055367  0.886670658085663  1.0000
  C   C6        1.0  0.5883073105221114  0.6051680863589582  0.11326367459864171  1.0000
  C   C7        1.0  0.9808427288707903  0.8213708026423844  0.4533083847458954  1.0000
  C   C8        1.0  0.019123858474664215  0.1787973275850803  0.546654517220766  1.0000
  C   C9        1.0  0.9761305761316805  0.030176846031842796  0.6530136450820763  1.0000
  C   C10       1.0  0.02371988280564351  0.9700456344795042  0.3469481314837423  1.0000
  C   C11       1.0  0.99244131412928  0.12915710359060745  0.650890337853788  1.0000
  C   C12       1.0  0.007447343566752806  0.8710498738996648  0.3490697590258875  1.0000
  C   C13       1.0  0.02830058151272403  0.12705888665412599  0.44882673027152015  1.0000
  C   C14       1.0  0.9716441642251539  0.8730959294610158  0.5511494141341089  1.0000
  C   C15       1.0  0.013570026875129284  0.025100699574366614  0.44665962665322206  1.0000
  C   C16       1.0  0.9863133345256543  0.9750794585568984  0.5533209311228262  1.0000
  C   C17       1.0  0.3951183599575784  0.5836069096909355  0.6152708284661941  1.0000
  C   C18       1.0  0.6047499094030115  0.4169597117010183  0.38462497376516314  1.0000
  C   C19       1.0  0.3024916879316563  0.5398718571000246  0.632116535863382  1.0000
  C   C20       1.0  0.6974163404760177  0.4606468645509024  0.36782449152529756  1.0000
  C   C21       1.0  0.40360135404215214  0.4148143331209653  0.49044663169267005  1.0000
  C   C22       1.0  0.596306591452155  0.5857310470110021  0.5094868751589559  1.0000
  C   C23       1.0  0.09680327374136516  0.46318211198963877  0.2971707571080984  1.0000
  C   C24       1.0  0.9032863107291789  0.5369646542968171  0.7029302836756487  1.0000
  C   C25       1.0  0.5020048400633357  0.4559248302368887  0.46832987636777557  1.0000
  C   C26       1.0  0.4978276300592341  0.5446928656680826  0.5315223691198838  1.0000
  C   C27       1.0  0.16940826808929188  0.4514372981532376  0.1839704145131407  1.0000
  C   C28       1.0  0.8306209536250581  0.5487980818716947  0.8161115135396101  1.0000
  C   C29       1.0  0.22283704236452448  0.3816854737723716  0.996801635451874  1.0000
  C   C30       1.0  0.7769271071348385  0.618780519957852  0.003161449311178851  1.0000
  C   C31       1.0  0.14582536405275454  0.3981425267483871  0.09530614606391911  1.0000
  C   C32       1.0  0.8540344181239377  0.6022588748160231  0.9047093466220133  1.0000
  C   C33       1.0  0.2691003301161388  0.4892707344106952  0.1672071294105848  1.0000
  C   C34       1.0  0.7310016981428618  0.5108752587519233  0.8328883042373081  1.0000
  C   C35       1.0  0.3522280596373335  0.47644759537575954  0.06869249527432687  1.0000
  C   C36       1.0  0.6477608492340039  0.5237794912431113  0.931337323703552  1.0000
  C   C37       1.0  0.3256673408916341  0.41826086433241727  0.9840303022965814  1.0000
  C   C38       1.0  0.6741846064754782  0.5821143197530817  0.01594368024307608  1.0000
  C   C39       1.0  0.45909607105600947  0.5130044138885879  0.05055065091599432  1.0000
  C   C40       1.0  0.5409167111750648  0.48718745148184445  0.9494666784292675  1.0000
  N   N1        1.0  0.6920802596680105  0.5436008760588962  0.43145335244416577  1.0000
  N   N2        1.0  0.30786887805206214  0.45688307485013974  0.5685139448135388  1.0000
  Cl  Cl1       1.0  0.9741682263281817  0.6536231462215409  0.888635926902417  1.0000
  Cl  Cl2       1.0  0.025642510529273497  0.3468337239598114  0.11136718966437091  1.0000
  Cl  Cl3       1.0  0.022873924631142035  0.8076541251128047  0.22559553752253692  1.0000
  Cl  Cl4       1.0  0.9770592291488998  0.1925288038267111  0.7743682298807073  1.0000
  O   O1        1.0  0.9343314285944614  0.3750414999651567  0.49966857982299473  1.0000
  O   O2        1.0  0.06575393280571262  0.6251010042206033  0.500226634714096  1.0000
  O   O3        1.0  0.14041571182424667  0.28555935642444297  0.574807084233143  1.0000
  O   O4        1.0  0.8595944289101496  0.7145774064263434  0.42523358616425366  1.0000
  O   O5        1.0  0.97009117013976  0.5158988979268812  0.29848011580028816  1.0000
  O   O6        1.0  0.0300096866291923  0.4842132541177692  0.7016363020579419  1.0000
  O   O7        1.0  0.17090399284003874  0.41890826772687717  0.3818634388262225  1.0000
  O   O8        1.0  0.8292126493504313  0.5812123642648003  0.6182334130133286  1.0000
  F   F1        1.0  0.39000257362997093  0.33665292856450435  0.8072772864855723  1.0000
  F   F2        1.0  0.609650952817283  0.6639487891449961  0.19258322122677643  1.0000
  F   F3        1.0  0.3880957858526415  0.6662312286065699  0.6787164725563812  1.0000
  F   F4        1.0  0.6118925581939578  0.3342179751832433  0.3213005110956999  1.0000
  F   F5        1.0  0.7137896080135137  0.4586951815715707  0.7451480867204267  1.0000
  F   F6        1.0  0.28651034807217  0.541261658106073  0.2550185631976518  1.0000
  F   F7        1.0  0.9470510825186336  0.8227337795633075  0.6498140594696766  1.0000
  F   F8        1.0  0.05290590162106671  0.17739908823768497  0.350155183924926  1.0000
  F   F9        1.0  0.949180897028647  0.9854178861166717  0.7536059379246892  1.0000
  F   F10       1.0  0.050654966388116  0.014809335430513203  0.24635561811722076  1.0000
