data_image0
_chemical_formula_structural       H36Pb4C40Br8N12
_chemical_formula_sum              "H36 Pb4 C40 Br8 N12"
_cell_length_a       8.002246239899119
_cell_length_b       9.684329770338625
_cell_length_c       16.056671073087077
_cell_angle_alpha    89.99833616853451
_cell_angle_beta     93.8707901027543
_cell_angle_gamma    89.99930279074152

_space_group_name_H-M_alt    "P 1"
_space_group_IT_number       1

loop_
  _space_group_symop_operation_xyz
  'x, y, z'

loop_
  _atom_site_type_symbol
  _atom_site_label
  _atom_site_symmetry_multiplicity
  _atom_site_fract_x
  _atom_site_fract_y
  _atom_site_fract_z
  _atom_site_occupancy
  H   H1        1.0  0.8670379384470692  0.6440599877786751  0.6158009092004024  1.0000
  H   H2        1.0  0.6329603288302863  0.14405878861738589  0.38418054648735733  1.0000
  H   H3        1.0  0.13292270762150343  0.35591797488578447  0.38418901662310395  1.0000
  H   H4        1.0  0.36714951393113177  0.8559088473107792  0.61581067277686  1.0000
  H   H5        1.0  0.7268337124841436  0.5235079951517959  0.4916625241320035  1.0000
  H   H6        1.0  0.7731920512953679  0.023506847839399797  0.5083116649419497  1.0000
  H   H7        1.0  0.2731364000821229  0.47646583755011573  0.5083072448110286  1.0000
  H   H8        1.0  0.22689563199870832  0.9764607876274309  0.4917041603390261  1.0000
  H   H9        1.0  0.7947117481610775  0.2739896045377179  0.4698578143954607  1.0000
  H   H10       1.0  0.7052915902346371  0.7739984719543997  0.5301271263378098  1.0000
  H   H11       1.0  0.2052693381838679  0.7259976516435316  0.5301211364412952  1.0000
  H   H12       1.0  0.294708196573815  0.22599601137432765  0.4698918527854304  1.0000
  H   H13       1.0  0.9834780906005632  0.1524754416232668  0.576782353668797  1.0000
  H   H14       1.0  0.5165207738532017  0.6524839422823517  0.4232139250762047  1.0000
  H   H15       1.0  0.016543112656883394  0.8475087165590695  0.4231970390696063  1.0000
  H   H16       1.0  0.4833917111358518  0.34752809509186017  0.5768275423770604  1.0000
  H   H17       1.0  0.10762683038188921  0.1552298267930041  0.7013802635636069  1.0000
  H   H18       1.0  0.3923861256331946  0.6552217747183492  0.2986242752450039  1.0000
  H   H19       1.0  0.8923150943865465  0.8447543316027718  0.2986070059849908  1.0000
  H   H20       1.0  0.6076501485111194  0.3447582521642828  0.7013912558917781  1.0000
  H   H21       1.0  0.3018045616396066  0.5443008311996068  0.9175499126493352  1.0000
  H   H22       1.0  0.19817304412486433  0.04429236114078349  0.08244641148468902  1.0000
  H   H23       1.0  0.6981998301883295  0.4557122402632315  0.08240759456683831  1.0000
  H   H24       1.0  0.8018164695649544  0.9557475554441554  0.9176163597872106  1.0000
  H   H25       1.0  0.4156551242690369  0.35055271997809706  0.007638606410559101  1.0000
  H   H26       1.0  0.08428826413209119  0.8505609197253892  0.9923538908075006  1.0000
  H   H27       1.0  0.5843288485536677  0.6494448624064263  0.9923292538593602  1.0000
  H   H28       1.0  0.9157111615591943  0.1494820953703808  0.007675661707430906  1.0000
  H   H29       1.0  0.38411043707873205  0.10765711355015382  0.9520327662364565  1.0000
  H   H30       1.0  0.1158745180810072  0.6076614212017758  0.04793532190752361  1.0000
  H   H31       1.0  0.6158078631078254  0.8923404688505557  0.047948526283349203  1.0000
  H   H32       1.0  0.8841437344020877  0.39238675764487135  0.9520570266755117  1.0000
  H   H33       1.0  0.23627061155250573  0.0697410538703167  0.8134385750199158  1.0000
  H   H34       1.0  0.26363476737290625  0.5696971656059376  0.18652933862379942  1.0000
  H   H35       1.0  0.763581145558547  0.9302596266004671  0.1865449012016356  1.0000
  H   H36       1.0  0.736402631206687  0.4302931879974776  0.8134532268986947  1.0000
  Pb  Pb1       1.0  0.15366942982824844  0.6524904571629264  0.7539712103381433  1.0000
  Pb  Pb2       1.0  0.3464725407958085  0.1525162666615429  0.24596592740594767  1.0000
  Pb  Pb3       1.0  0.8464768786349666  0.3474534297955572  0.2459804328712495  1.0000
  Pb  Pb4       1.0  0.6536073098475227  0.8475009332419675  0.754058911177552  1.0000
  C   C1        1.0  0.8856727897095097  0.5338336116477223  0.605467361291396  1.0000
  C   C2        1.0  0.6143046762564096  0.0338341834943421  0.39452018256196203  1.0000
  C   C3        1.0  0.1142819130147004  0.4661412534816093  0.3945129712827794  1.0000
  C   C4        1.0  0.38577842206238694  0.9661355174815683  0.6054829921498666  1.0000
  C   C5        1.0  0.8096664769257772  0.4680447757697479  0.5364815609538598  1.0000
  C   C6        1.0  0.6903044401079584  0.968064119677905  0.4635060042388802  1.0000
  C   C7        1.0  0.19026381629624473  0.5319290564895455  0.4635158083899925  1.0000
  C   C8        1.0  0.3097648824573298  0.0319241681080626  0.5364965907867401  1.0000
  C   C9        1.0  0.8472280491545305  0.3286526617117289  0.5248472368285633  1.0000
  C   C10       1.0  0.6527211075340063  0.828673905353149  0.4751531289726502  1.0000
  C   C11       1.0  0.15270878158093382  0.6713149751208718  0.4751423101062501  1.0000
  C   C12       1.0  0.3472875092307887  0.1713185127742634  0.5248643529778576  1.0000
  C   C13       1.0  0.9523975645003021  0.2612893769353661  0.5833222105789562  1.0000
  C   C14       1.0  0.5475376468329217  0.7613143924608181  0.41668127022988  1.0000
  C   C15       1.0  0.04755045227780389  0.7386813575603381  0.416670298437083  1.0000
  C   C16       1.0  0.45243055588561276  0.23869144942430856  0.5833444775950838  1.0000
  C   C17       1.0  0.01886718910105859  0.3344590522312815  0.6542091739517206  1.0000
  C   C18       1.0  0.48106359418122935  0.8344757987327682  0.3457936710538051  1.0000
  C   C19       1.0  0.9810787896735178  0.6655271715349969  0.3457695457538108  1.0000
  C   C20       1.0  0.5189437065241052  0.1655259127228845  0.6542256240995885  1.0000
  C   C21       1.0  0.2896245800326511  0.43704562914339107  0.8968408681627764  1.0000
  C   C22       1.0  0.2103294296298586  0.9370391956628126  0.10316235696893733  1.0000
  C   C23       1.0  0.7103552963042786  0.5629550508218202  0.10313678588376263  1.0000
  C   C24       1.0  0.789665517706318  0.0630017537753034  0.8968881852070965  1.0000
  C   C25       1.0  0.35332827954420043  0.33038318496196695  0.9465606319548103  1.0000
  C   C26       1.0  0.14660921803618981  0.8303869297976763  0.05343135694415931  1.0000
  C   C27       1.0  0.6466100578229971  0.6696195602988128  0.05342150344397821  1.0000
  C   C28       1.0  0.8533778329203088  0.16965505287752333  0.9465933148145852  1.0000
  C   C29       1.0  0.33470403772630414  0.1955414154610935  0.9157653398702694  1.0000
  C   C30       1.0  0.1652382589974195  0.6955456067768254  0.0842305190751915  1.0000
  C   C31       1.0  0.6652053476788568  0.8044530691036016  0.0842199378341348  1.0000
  C   C32       1.0  0.8347638835125722  0.3044984410435276  0.9157929188869858  1.0000
  C   C33       1.0  0.2529465027875943  0.1740873146996691  0.8382696661237361  1.0000
  C   C34       1.0  0.24696483650959075  0.6740757253578237  0.16172589894463135  1.0000
  C   C35       1.0  0.7469200064335625  0.8259113003026144  0.16172252819427516  1.0000
  C   C36       1.0  0.7530364146120192  0.32594044262260263  0.8382869127498582  1.0000
  C   C37       1.0  0.1916231016735708  0.2886283944924202  0.7911221906295014  1.0000
  C   C38       1.0  0.3082920050250025  0.7886067703061882  0.2088864245228166  1.0000
  C   C39       1.0  0.8083064270531538  0.7113650574282389  0.2088608200572892  1.0000
  C   C40       1.0  0.6916971901654422  0.21140320163451778  0.7911489267463594  1.0000
  Br  Br1       1.0  0.4742651731657618  0.5886878960125657  0.6629854937739241  1.0000
  Br  Br2       1.0  0.0258961379314897  0.0886011599087198  0.3370065498872919  1.0000
  Br  Br3       1.0  0.5259336888572506  0.41151207355140673  0.3370063538538447  1.0000
  Br  Br4       1.0  0.9741971692769907  0.9114470184310759  0.6629914476365287  1.0000
  Br  Br5       1.0  0.8933180300113576  0.6788977624622277  0.8743600853264013  1.0000
  Br  Br6       1.0  0.6068322264590124  0.1788303740476067  0.1255959948224188  1.0000
  Br  Br7       1.0  0.1070393270374339  0.3211060133953012  0.125617876487496  1.0000
  Br  Br8       1.0  0.39305578598790447  0.8210525893663884  0.8744276264238879  1.0000
  N   N1        1.0  0.9891864782406686  0.4703849165416898  0.6635113700364955  1.0000
  N   N2        1.0  0.5107934828516179  0.9703964758850103  0.3364671904000716  1.0000
  N   N3        1.0  0.010792018554468498  0.5296054373850508  0.3364699633690122  1.0000
  N   N4        1.0  0.4892761791391536  0.029598007706574902  0.6635254527132092  1.0000
  N   N5        1.0  0.11331608862425918  0.2590880227115164  0.7133955246658914  1.0000
  N   N6        1.0  0.3866145153608755  0.7590847170209258  0.28661551871378793  1.0000
  N   N7        1.0  0.8866259845768383  0.7409064617445793  0.2865873908498813  1.0000
  N   N8        1.0  0.6133761020478518  0.2409077008954696  0.713414909475212  1.0000
  N   N9        1.0  0.2113798695168754  0.4184476516620562  0.8201893302070786  1.0000
  N   N10       1.0  0.28856949569414775  0.9184296422028667  0.17981278798579584  1.0000
  N   N11       1.0  0.7885874623993774  0.581545800191833  0.17978841906838744  1.0000
  N   N12       1.0  0.7114142233971421  0.08158136204791329  0.8202360363417469  1.0000
