data_image0
_chemical_formula_structural       Zn2H8C16I2N2O8
_chemical_formula_sum              "Zn2 H8 C16 I2 N2 O8"
_cell_length_a       7.369061606934265
_cell_length_b       9.110447443799352
_cell_length_c       13.297817517637604
_cell_angle_alpha    93.51579476676436
_cell_angle_beta     102.70244251882701
_cell_angle_gamma    80.33133344693343

_space_group_name_H-M_alt    "P 1"
_space_group_IT_number       1

loop_
  _space_group_symop_operation_xyz
  'x, y, z'

loop_
  _atom_site_type_symbol
  _atom_site_label
  _atom_site_symmetry_multiplicity
  _atom_site_fract_x
  _atom_site_fract_y
  _atom_site_fract_z
  _atom_site_occupancy
  Zn  Zn1       1.0  0.30029325423888753  0.5240475827926973  0.4804312827001098  1.0000
  Zn  Zn2       1.0  0.6922701522356788  0.4183397118549976  0.5195471209720637  1.0000
  H   H1        1.0  0.18461692727572654  0.3991355793949439  0.1599898938595885  1.0000
  H   H2        1.0  0.8052380326683702  0.537799777607191  0.8398982865293901  1.0000
  H   H3        1.0  0.8438099588382143  0.5624100433052845  0.028341116890189318  1.0000
  H   H4        1.0  0.14638274304274285  0.37278701277622167  0.9715208890598885  1.0000
  H   H5        1.0  0.08441426598725603  0.3257310476967987  0.5185312223046452  1.0000
  H   H6        1.0  0.9081464650438563  0.6159011307939367  0.4815320427439785  1.0000
  H   H7        1.0  0.7138086563994575  0.9275607018969655  0.5216691538720681  1.0000
  H   H8        1.0  0.2815770892914315  0.013982045875152893  0.4780452511710179  1.0000
  C   C1        1.0  0.5284901268198965  0.756799686087817  0.5057601050200304  1.0000
  C   C2        1.0  0.2939603819735623  0.4232104920334622  0.12295498600300188  1.0000
  C   C3        1.0  0.3943533688347928  0.4325575822110397  0.8586085847108151  1.0000
  C   C4        1.0  0.5952643094257084  0.5045152814550777  0.14100662853005025  1.0000
  C   C5        1.0  0.41185711127685914  0.44324648867556965  0.9681949794251634  1.0000
  C   C6        1.0  0.5776962503910139  0.4930300184634079  0.0313940865735063  1.0000
  C   C7        1.0  0.5667349946592636  0.9119803057451678  0.5072588569308037  1.0000
  C   C8        1.0  0.42863828814738975  0.029680950522440207  0.49189818090987797  1.0000
  C   C9        1.0  0.46699730225803665  0.18495722673286968  0.493971374961788  1.0000
  C   C10       1.0  0.5232859544058713  0.4687312864063103  0.6986751936535639  1.0000
  C   C11       1.0  0.4650692559250941  0.4720529315613716  0.3009278919936449  1.0000
  C   C12       1.0  0.45680040569579455  0.46902904621256175  0.1869892708499634  1.0000
  C   C13       1.0  0.5324081320848322  0.46898049754344145  0.8126721925824753  1.0000
  C   C14       1.0  0.7171692925342655  0.5263680077890669  0.9818546162653516  1.0000
  C   C15       1.0  0.27267560569972465  0.4095611465914645  0.017886647373615013  1.0000
  C   C16       1.0  0.6957828872148042  0.5136439299105576  0.8767807756986699  1.0000
  I   I1        1.0  0.8373003837945062  0.5844822761359726  0.2296168684153272  1.0000
  I   I2        1.0  0.15234676376998382  0.3530223691800103  0.7694574567627654  1.0000
  N   N1        1.0  0.9726047443878513  0.4142033790476632  0.5139579435855453  1.0000
  N   N2        1.0  0.020073720830964686  0.5274515664809983  0.48587089312467663  1.0000
  O   O1        1.0  0.35843989967214174  0.7354777098403887  0.49125990205292414  1.0000
  O   O2        1.0  0.637005831986741  0.20586865015346237  0.5071990047214427  1.0000
  O   O3        1.0  0.6731619979956489  0.6542700343304733  0.5195564593410325  1.0000
  O   O4        1.0  0.3227078091925861  0.2878562525525582  0.48208348957312813  1.0000
  O   O5        1.0  0.36663402658979277  0.5162604961371502  0.640032661971091  1.0000
  O   O6        1.0  0.6222533616154562  0.428112909899241  0.3602825456394995  1.0000
  O   O7        1.0  0.6786604487635229  0.42527053055304986  0.6702140025517095  1.0000
  O   O8        1.0  0.309178673821819  0.5147576524331757  0.32897600608142596  1.0000
