data_image0
_chemical_formula_structural       Ag4H52C56S8N8
_chemical_formula_sum              "Ag4 H52 C56 S8 N8"
_cell_length_a       5.794315904504185
_cell_length_b       15.850730824551597
_cell_length_c       15.590728538055945
_cell_angle_alpha    88.2026723258932
_cell_angle_beta     79.29076912501137
_cell_angle_gamma    80.28279742256781

_space_group_name_H-M_alt    "P 1"
_space_group_IT_number       1

loop_
  _space_group_symop_operation_xyz
  'x, y, z'

loop_
  _atom_site_type_symbol
  _atom_site_label
  _atom_site_symmetry_multiplicity
  _atom_site_fract_x
  _atom_site_fract_y
  _atom_site_fract_z
  _atom_site_occupancy
  Ag  Ag1       1.0  0.7735822881335964  0.9701329458902846  0.9126172180647389  1.0000
  Ag  Ag2       1.0  0.6501345517464117  0.031063138373539786  0.08877692868991723  1.0000
  Ag  Ag3       1.0  0.26643477311377234  0.0856075157965108  0.9684217613322945  1.0000
  Ag  Ag4       1.0  0.31066945245893873  0.9131215137019169  0.032984788172719  1.0000
  H   H1        1.0  0.13902533117396143  0.630913947738854  0.13741790446474775  1.0000
  H   H2        1.0  0.934196667931218  0.36866540588840735  0.8595399743219405  1.0000
  H   H3        1.0  0.22592688965166025  0.8583678338335332  0.6267703779280894  1.0000
  H   H4        1.0  0.7054324302864218  0.140769316532392  0.3711216237929946  1.0000
  H   H5        1.0  0.10359183745725876  0.741372282510426  0.1625295572693446  1.0000
  H   H6        1.0  0.02311613776854664  0.2578628434863361  0.8357208186592759  1.0000
  H   H7        1.0  0.15250929630740725  0.8357558517506616  0.7397267948172159  1.0000
  H   H8        1.0  0.7288969837719466  0.1622477430874412  0.257779416090294  1.0000
  H   H9        1.0  0.08212635178294642  0.5922436257732926  0.2910892868774938  1.0000
  H   H10       1.0  0.987359206569089  0.40702616012784887  0.7061819245496537  1.0000
  H   H11       1.0  0.31431130625694714  0.7068316123898484  0.5917593720136693  1.0000
  H   H12       1.0  0.6183070813238769  0.29101000726229387  0.4080217644189049  1.0000
  H   H13       1.0  0.7947144507741156  0.5749620013724126  0.42830940011295143  1.0000
  H   H14       1.0  0.8159210690007865  0.4233151291323551  0.5701133087679298  1.0000
  H   H15       1.0  0.6112013291753372  0.5720873965803932  0.5779498886613297  1.0000
  H   H16       1.0  0.7733993817433598  0.42624355356501553  0.4229429258685826  1.0000
  H   H17       1.0  0.3712572455318084  0.6479019720795021  0.4443233091462561  1.0000
  H   H18       1.0  0.4771022457750862  0.3489060240012023  0.5561014647519471  1.0000
  H   H19       1.0  0.9625675449537641  0.5591540744103938  0.6521007108046818  1.0000
  H   H20       1.0  0.18527020031817187  0.4410996548261963  0.3482737993157842  1.0000
  H   H21       1.0  0.24244019267575115  0.7407643762110254  0.3244716158378083  1.0000
  H   H22       1.0  0.31979501425311707  0.2560490217713109  0.6769186142588453  1.0000
  H   H23       1.0  0.008722766160346654  0.6799593607342088  0.7420846229367442  1.0000
  H   H24       1.0  0.4341662217925447  0.3216947919026012  0.2565750437534859  1.0000
  H   H25       1.0  0.5308080640184798  0.7605425551212477  0.19010544073596955  1.0000
  H   H26       1.0  0.49661926298880854  0.2376043413023083  0.810292569332532  1.0000
  H   H27       1.0  0.7077496181993939  0.8120027531848065  0.7585881142207853  1.0000
  H   H28       1.0  0.2752294429529414  0.1892979270111681  0.23896705491178954  1.0000
  H   H29       1.0  0.6562719849979359  0.6660711140476607  0.0128472910355697  1.0000
  H   H30       1.0  0.35189560107594525  0.3341648680650522  0.9790705016739027  1.0000
  H   H31       1.0  0.680486004002923  0.981009070950577  0.6600730681756204  1.0000
  H   H32       1.0  0.31153579231232714  0.023277760831355514  0.3421350906679238  1.0000
  H   H33       1.0  0.8025464649825695  0.5928533132103908  0.08130982020173863  1.0000
  H   H34       1.0  0.5071052744653103  0.40715659591059955  0.9136642713049741  1.0000
  H   H35       1.0  0.5881800084289563  0.917668461612415  0.5855501635217095  1.0000
  H   H36       1.0  0.07798918466545494  0.0844911332148115  0.4151180959491968  1.0000
  H   H37       1.0  0.8011538633533489  0.5100644735792556  0.9342502257837995  1.0000
  H   H38       1.0  0.24656092394168624  0.4863303265749863  0.0595194933861123  1.0000
  H   H39       1.0  0.6916111333976288  0.0657937178768933  0.5084076674382061  1.0000
  H   H40       1.0  0.26830621520520037  0.9362118806294148  0.48916708498440203  1.0000
  H   H41       1.0  0.42840307434607894  0.49703331171624404  0.753934471733487  1.0000
  H   H42       1.0  0.6428216520669424  0.5071134777055378  0.2508534591832543  1.0000
  H   H43       1.0  0.09174487501680766  0.24717737856038016  0.4991362851619955  1.0000
  H   H44       1.0  0.8415929357768235  0.7496303155341266  0.5032977342932271  1.0000
  H   H45       1.0  0.5324712206744312  0.6244166763343413  0.8195424099897155  1.0000
  H   H46       1.0  0.9548798767609556  0.385170285374528  0.18775414037978075  1.0000
  H   H47       1.0  0.8547255613875039  0.1790052595570728  0.6247865906481209  1.0000
  H   H48       1.0  0.6501969656641647  0.8165514845892333  0.3810098797051325  1.0000
  H   H49       1.0  0.25647723547308493  0.6956452683534591  0.9495761085607415  1.0000
  H   H50       1.0  0.9065817122538248  0.31192137765146555  0.053380784738259  1.0000
  H   H51       1.0  0.04888482799963607  0.047163364341415104  0.6929769120828839  1.0000
  H   H52       1.0  0.7745938365734586  0.9505856101368976  0.3117986160835074  1.0000
  C   C1        1.0  0.8391247300663662  0.7964142745874268  0.05108627592315432  1.0000
  C   C2        1.0  0.7005831478714695  0.2044088748472319  0.9493313174353732  1.0000
  C   C3        1.0  0.35949068250793204  0.9485102968396361  0.7941951049284344  1.0000
  C   C4        1.0  0.10049792028664949  0.05060712755053489  0.2062564327994849  1.0000
  C   C5        1.0  0.007352283916738071  0.6897968601182214  0.15132726259624016  1.0000
  C   C6        1.0  0.8689470397278924  0.3097739737623755  0.846891127291997  1.0000
  C   C7        1.0  0.29937737452413427  0.8466147991178444  0.6870653695993667  1.0000
  C   C8        1.0  0.8302472272898456  0.15239263668196656  0.3112966310824206  1.0000
  C   C9        1.0  0.8259689847651472  0.6775682988349487  0.23205219520243506  1.0000
  C   C10       1.0  0.7541284008707264  0.3213333599475376  0.7668333320994662  1.0000
  C   C11       1.0  0.4905075694659116  0.7678760307540102  0.6762456018581702  1.0000
  C   C12       1.0  0.935196369811905  0.23166147268551643  0.3224042731870469  1.0000
  C   C13       1.0  0.8981512193434755  0.6252747947495008  0.2995962680662317  1.0000
  C   C14       1.0  0.8421907766588534  0.37367188139637625  0.6987448437728576  1.0000
  C   C15       1.0  0.4660945083736719  0.6999017531063245  0.6251182010259484  1.0000
  C   C16       1.0  0.7960914501028283  0.29882245288051484  0.374401824872905  1.0000
  C   C17       1.0  0.7355951462079776  0.6149406694196955  0.37574523856891073  1.0000
  C   C18       1.0  0.7435370073637914  0.38335158583223  0.6231637886810264  1.0000
  C   C19       1.0  0.6345579319406479  0.6251164163656854  0.6166471225356036  1.0000
  C   C20       1.0  0.8851931528140111  0.3739034964806009  0.383479985354164  1.0000
  C   C21       1.0  0.49871510082088844  0.655753164822805  0.3848593017485627  1.0000
  C   C22       1.0  0.554238305202567  0.341720901101354  0.6151300703346649  1.0000
  C   C23       1.0  0.8313040514327736  0.6177092108050317  0.6581029891986747  1.0000
  C   C24       1.0  0.11543995252873883  0.3823805124813333  0.3417349387749909  1.0000
  C   C25       1.0  0.4259903617097087  0.7078274418925117  0.3175293395224159  1.0000
  C   C26       1.0  0.46552916847454634  0.2895875790805391  0.6829894341679295  1.0000
  C   C27       1.0  0.8573226515988921  0.6855118514696913  0.7087173078321174  1.0000
  C   C28       1.0  0.25537526231440916  0.31535056434592695  0.2901727889041226  1.0000
  C   C29       1.0  0.5890096363712731  0.7188350291636638  0.241679993357188  1.0000
  C   C30       1.0  0.5653989625942445  0.279334358240753  0.7582780454619922  1.0000
  C   C31       1.0  0.6874238123047146  0.7600321059359986  0.717886204223845  1.0000
  C   C32       1.0  0.16536910127275925  0.24059616402727355  0.280370699468115  1.0000
  C   C33       1.0  0.8293182064344651  0.6434302684580543  0.0322791369553315  1.0000
  C   C34       1.0  0.524024207454346  0.3570066714315914  0.9636258136041109  1.0000
  C   C35       1.0  0.5228676820399515  0.9648576304694245  0.6384909770106406  1.0000
  C   C36       1.0  0.11666003677033392  0.03667254592314611  0.3625252122464531  1.0000
  C   C37       1.0  0.007729941242679667  0.6070350671519621  0.9533530724310637  1.0000
  C   C38       1.0  0.5729100557901744  0.39460426037044993  0.0450448309491094  1.0000
  C   C39       1.0  0.38635267627748276  0.04493698695519302  0.6044976494014094  1.0000
  C   C40       1.0  0.029315492163561885  0.9551092472003901  0.3967457060200205  1.0000
  C   C41       1.0  0.9638389980441388  0.5366031172713974  0.9104578339508438  1.0000
  C   C42       1.0  0.4071395594669198  0.46265131871085424  0.08637536455599103  1.0000
  C   C43       1.0  0.5041215594591932  0.08923451399730449  0.5352942190957961  1.0000
  C   C44       1.0  0.12858056960443046  0.9113084311412153  0.46419577909168214  1.0000
  C   C45       1.0  0.3106520624425215  0.5295630548526374  0.8104107218490455  1.0000
  C   C46       1.0  0.6260923311560378  0.47405615322863065  0.19244172723646366  1.0000
  C   C47       1.0  0.17239602687254046  0.18986921059878628  0.5303429106000481  1.0000
  C   C48       1.0  0.8930773919273702  0.8078360496458642  0.4717601512536689  1.0000
  C   C49       1.0  0.3696580670234578  0.6002172254246005  0.8475112648095973  1.0000
  C   C50       1.0  0.8011795109102096  0.4063307228374953  0.15682494488380175  1.0000
  C   C51       1.0  0.039538031987987665  0.1513593566490101  0.599983701049652  1.0000
  C   C52       1.0  0.7850218452792462  0.845674318286939  0.4039262456974413  1.0000
  C   C53       1.0  0.21562824359795474  0.6396994645786478  0.9200510349598687  1.0000
  C   C54       1.0  0.7740386108353693  0.36577598887262047  0.0819449715750267  1.0000
  C   C55       1.0  0.1482439608133674  0.07777515319203593  0.637758561963544  1.0000
  C   C56       1.0  0.8543204123842546  0.9204774664298868  0.3656859552571846  1.0000
  S   S1        1.0  0.6938697440550999  0.8166048775334717  0.9637485355549631  1.0000
  S   S2        1.0  0.4852586608729226  0.1854633059989297  0.0366155301441538  1.0000
  S   S3        1.0  0.4865917425423021  0.0353664274107999  0.8132046045598929  1.0000
  S   S4        1.0  0.33036333327586204  0.9647798671517265  0.18909167908878297  1.0000
  S   S5        1.0  0.9063270014929828  0.8753576977990818  0.11010313153185083  1.0000
  S   S6        1.0  0.9017909268931065  0.1250215086099473  0.8916852921287344  1.0000
  S   S7        1.0  0.20833421273761105  0.8924445686035726  0.875187675831697  1.0000
  S   S8        1.0  0.9832481524665155  0.10581630758511547  0.123739629155601  1.0000
  N   N1        1.0  0.8979092523123386  0.7134754388851904  0.0748727927690993  1.0000
  N   N2        1.0  0.705984454676454  0.28708813033585295  0.9241680953003666  1.0000
  N   N3        1.0  0.38534784582742526  0.9229308442845934  0.7100659437388046  1.0000
  N   N4        1.0  0.012064787728654373  0.07635544220059391  0.2899488866214598  1.0000
  N   N5        1.0  0.10955601107249881  0.4979227028212634  0.8408509878706243  1.0000
  N   N6        1.0  0.4302273312463356  0.5022243333852643  0.1581892474225128  1.0000
  N   N7        1.0  0.4026895300161398  0.15976506746176966  0.4982478565709982  1.0000
  N   N8        1.0  0.06420681831325938  0.8396281368902192  0.5016657934574482  1.0000
