data_image0
_chemical_formula_structural       Zn10H40C52N36O20
_chemical_formula_sum              "Zn10 H40 C52 N36 O20"
_cell_length_a       12.590514090004513
_cell_length_b       14.625712502005307
_cell_length_c       20.317732844009644
_cell_angle_alpha    90.0000819336536
_cell_angle_beta     90.00007813534893
_cell_angle_gamma    89.99994633949258

_space_group_name_H-M_alt    "P 1"
_space_group_IT_number       1

loop_
  _space_group_symop_operation_xyz
  'x, y, z'

loop_
  _atom_site_type_symbol
  _atom_site_label
  _atom_site_symmetry_multiplicity
  _atom_site_fract_x
  _atom_site_fract_y
  _atom_site_fract_z
  _atom_site_occupancy
  Zn  Zn1       1.0  0.7037997637969866  0.33906513227442053  0.23192399438861602  1.0000
  Zn  Zn2       1.0  0.29620220777665196  0.33906377950571454  0.7680761571444492  1.0000
  Zn  Zn3       1.0  0.20379542436045026  0.660936187784685  0.2680775835124791  1.0000
  Zn  Zn4       1.0  0.7962014373128028  0.6609364047717959  0.7319214235222589  1.0000
  Zn  Zn5       1.0  0.5349290950958616  0.18314872545037986  0.2627880126354896  1.0000
  Zn  Zn6       1.0  0.465066689324594  0.1831458056599828  0.7372154233152699  1.0000
  Zn  Zn7       1.0  0.03492531698639569  0.8168486306386953  0.23721587962008067  1.0000
  Zn  Zn8       1.0  0.9650658181131887  0.8168542402301425  0.7627818117132747  1.0000
  Zn  Zn9       1.0  0.500001292166317  0.9925729773176996  7.289285833e-07  1.0000
  Zn  Zn10      1.0  1.3256377258e-06  0.007425091116161299  0.49999821120920984  1.0000
  H   H1        1.0  0.16833349775266973  0.944940682595053  0.1216819517211292  1.0000
  H   H2        1.0  0.8316662370230786  0.9449445793486647  0.878314887394467  1.0000
  H   H3        1.0  0.6683336890923853  0.055061350262498386  0.3783274702985722  1.0000
  H   H4        1.0  0.3316677921136203  0.055069250400855196  0.6216714038957889  1.0000
  H   H5        1.0  0.5489656528309296  0.5149130484730975  0.2414767569610419  1.0000
  H   H6        1.0  0.4510377190812704  0.5149122336068075  0.758524068160483  1.0000
  H   H7        1.0  0.04896624659237149  0.4850883984757531  0.2585276396605423  1.0000
  H   H8        1.0  0.951043511218451  0.4850891912293562  0.7414702016117474  1.0000
  H   H9        1.0  0.3968422066775331  0.7348154930000629  0.1739038123276941  1.0000
  H   H10       1.0  0.6031553702071902  0.734808533877576  0.8261051145363325  1.0000
  H   H11       1.0  0.8968396786008198  0.2651877200446506  0.3261033470898553  1.0000
  H   H12       1.0  0.10315681226570918  0.26519864587359615  0.6738883611591363  1.0000
  H   H13       1.0  0.461021820516457  0.0393881241238958  0.1477878708323814  1.0000
  H   H14       1.0  0.538980471719583  0.039386739178702605  0.8522164011787439  1.0000
  H   H15       1.0  0.9609947768039504  0.9605931570626608  0.3522232817063369  1.0000
  H   H16       1.0  0.038996204487219195  0.9606040837019166  0.6477770188226515  1.0000
  H   H17       1.0  0.7828307373612587  0.17010171843261185  0.9327673923864169  1.0000
  H   H18       1.0  0.21716823800635854  0.1701092970881461  0.0672335692072039  1.0000
  H   H19       1.0  0.2828337295262031  0.8298895883480526  0.567232637577888  1.0000
  H   H20       1.0  0.7171645398639085  0.8298892771050462  0.4327675281131961  1.0000
  H   H21       1.0  0.6973934698789177  0.0777589207440599  0.9519003479192705  1.0000
  H   H22       1.0  0.30261195828624915  0.07776981009147478  0.04810199495970121  1.0000
  H   H23       1.0  0.1973923510214206  0.9222304048737583  0.5481001000795303  1.0000
  H   H24       1.0  0.802609790802009  0.9222300615300367  0.451895731244953  1.0000
  H   H25       1.0  0.8080662068826568  0.35799121819837143  0.1019833704660371  1.0000
  H   H26       1.0  0.19193018469174206  0.35799294336099047  0.898011878781574  1.0000
  H   H27       1.0  0.3080677256987911  0.6420031791318194  0.39801337610886384  1.0000
  H   H28       1.0  0.6919378929690935  0.6420025402734024  0.6019851192168347  1.0000
  H   H29       1.0  0.31781958595732357  0.31214838110643933  0.3024779447785377  1.0000
  H   H30       1.0  0.6821728834315549  0.3121411023454783  0.697518241532542  1.0000
  H   H31       1.0  0.8178091820491172  0.687850794336974  0.19752865387572882  1.0000
  H   H32       1.0  0.1821749428397155  0.6878673801022187  0.8024733340127241  1.0000
  H   H33       1.0  0.3940389820440017  0.03753810410348281  0.26765751420207806  1.0000
  H   H34       1.0  0.6059585466792681  0.03753642665367348  0.7323467558983269  1.0000
  H   H35       1.0  0.8940347128487786  0.9624664786895848  0.2323452131546659  1.0000
  H   H36       1.0  0.1059578549418987  0.9624652809904358  0.767655089301293  1.0000
  H   H37       1.0  0.3755528785890263  0.0964617993166144  0.3307753071366193  1.0000
  H   H38       1.0  0.6244429985889325  0.09645793041973859  0.6692290237482865  1.0000
  H   H39       1.0  0.8755517142752466  0.9035414311705522  0.1692278963591889  1.0000
  H   H40       1.0  0.12443535682617579  0.9035403434430405  0.8307738218493981  1.0000
  C   C1        1.0  0.6359787877945138  0.15220914338605243  0.0677953201037198  1.0000
  C   C2        1.0  0.3640225894708351  0.15221489766274487  0.9322105448408139  1.0000
  C   C3        1.0  0.1359714229112328  0.8477806088950784  0.4322121051049308  1.0000
  C   C4        1.0  0.8640323870762144  0.8477818123952259  0.5677885712268136  1.0000
  C   C5        1.0  0.21175115823554336  0.8876586897501325  0.14246772470561814  1.0000
  C   C6        1.0  0.7882438723409846  0.887661897157315  0.8575295474957374  1.0000
  C   C7        1.0  0.7117440955300935  0.11234672616536298  0.35754124281021404  1.0000
  C   C8        1.0  0.2882501761421423  0.11235196817601431  0.6424571982949843  1.0000
  C   C9        1.0  0.5055290313315693  0.45410236800309883  0.2559689732938182  1.0000
  C   C10       1.0  0.49447678839477044  0.45410285626661556  0.744032281277363  1.0000
  C   C11       1.0  0.005527146244205  0.5458970633606198  0.2440344012689764  1.0000
  C   C12       1.0  0.9944809580008493  0.5459012678817246  0.7559630105543604  1.0000
  C   C13       1.0  0.39932767586991247  0.4432961198509062  0.2756182596361826  1.0000
  C   C14       1.0  0.6006725956705949  0.4432937472151863  0.7243746167080047  1.0000
  C   C15       1.0  0.8993262065462488  0.5567023050639005  0.2243879175744894  1.0000
  C   C16       1.0  0.10068029764095597  0.5567148020189379  0.7756149193891134  1.0000
  C   C17       1.0  0.635063060156817  0.19751298009396118  0.1288769612612199  1.0000
  C   C18       1.0  0.3649350916345426  0.1975172450830769  0.8711250129698982  1.0000
  C   C19       1.0  0.13505958418319608  0.8024795078411342  0.37112603352776574  1.0000
  C   C20       1.0  0.8649506282638482  0.8024794642218042  0.6288711508067095  1.0000
  C   C21       1.0  0.32912294088195887  0.78030936806676  0.1691773932446949  1.0000
  C   C22       1.0  0.6708777643109937  0.7803071489017838  0.8308266587461405  1.0000
  C   C23       1.0  0.8291228543558373  0.21969321674993128  0.3308331526721986  1.0000
  C   C24       1.0  0.17087447944565778  0.21970065907529346  0.6691629382708086  1.0000
  C   C25       1.0  0.3917890112775949  0.8995198600374507  0.0835222558545041  1.0000
  C   C26       1.0  0.6082099778635026  0.8995185457498989  0.9164843800194192  1.0000
  C   C27       1.0  0.8917884414824754  0.10048130596501889  0.416484406996716  1.0000
  C   C28       1.0  0.10820901987987949  0.10048247631551988  0.5835110687818741  1.0000
  C   C29       1.0  0.5218453459070885  0.086403227710214  0.130736314257561  1.0000
  C   C30       1.0  0.4781561017712973  0.08640602877614609  0.869268006256661  1.0000
  C   C31       1.0  0.021829833341712394  0.9135804645624147  0.3692715040787959  1.0000
  C   C32       1.0  0.9781691407400428  0.9135892202872566  0.6307267792301231  1.0000
  C   C33       1.0  0.31573897100889775  0.8582221195459069  0.12938460200783913  1.0000
  C   C34       1.0  0.6842624450688461  0.8582172333845576  0.8706214990811887  1.0000
  C   C35       1.0  0.8157374645630425  0.14178047623582296  0.3706219948464664  1.0000
  C   C36       1.0  0.18426312959884678  0.1417878287163603  0.6293720469986611  1.0000
  C   C37       1.0  0.7591841902745101  0.2976686977372508  0.0926973411352776  1.0000
  C   C38       1.0  0.24081067735217226  0.2976717687073389  0.9073022755110642  1.0000
  C   C39       1.0  0.25918645868527074  0.7023250559301601  0.40730477700902407  1.0000
  C   C40       1.0  0.7408190954351852  0.7023298284143563  0.5926942727290481  1.0000
  C   C41       1.0  0.38804305209001905  0.349393701906564  0.2869506714847461  1.0000
  C   C42       1.0  0.611954142939389  0.34938856265613777  0.713047521975767  1.0000
  C   C43       1.0  0.8880382810229361  0.6506060997093356  0.2130525428468601  1.0000
  C   C44       1.0  0.1119522377076621  0.650616558703561  0.7869459613528775  1.0000
  C   C45       1.0  0.7092370468007798  0.18331045648908875  0.0197073254580999  1.0000
  C   C46       1.0  0.2907635029318882  0.18331704984844774  0.9802941419428848  1.0000
  C   C47       1.0  0.2092369664071113  0.8166799194748433  0.48029474933865407  1.0000
  C   C48       1.0  0.7907708480991501  0.8166817714280868  0.5197034340068569  1.0000
  C   C49       1.0  0.3158084177399374  0.5130390865230224  0.2810716237221841  1.0000
  C   C50       1.0  0.6841981331710867  0.51303184854126  0.7189247698361214  1.0000
  C   C51       1.0  0.815807805616309  0.48695735565701875  0.21893694191319923  1.0000
  C   C52       1.0  0.18420909843035094  0.4869855207038043  0.7810717292841148  1.0000
  N   N1        1.0  0.5624060453623726  0.15422763697612393  0.1689276358159688  1.0000
  N   N2        1.0  0.43758897575364836  0.15422766066919277  0.8310757703006574  1.0000
  N   N3        1.0  0.06239687757047819  0.8457614918713502  0.3310787411823739  1.0000
  N   N4        1.0  0.9376053460752161  0.8457676216391832  0.6689199643446885  1.0000
  N   N5        1.0  0.48106229774252524  0.30738544218171865  0.2750866696278679  1.0000
  N   N6        1.0  0.5189357364864051  0.3073824538637594  0.724913941402427  1.0000
  N   N7        1.0  0.9810567128815819  0.6926142832019123  0.2249146567031062  1.0000
  N   N8        1.0  0.0189282011641296  0.6926193250981638  0.775086351732007  1.0000
  N   N9        1.0  0.16745042375306696  0.8314351663032653  0.18694360334623641  1.0000
  N   N10       1.0  0.8325430784847682  0.8314382492420335  0.8130526264917889  1.0000
  N   N11       1.0  0.6674527366279149  0.1685675510010753  0.3130623726421149  1.0000
  N   N12       1.0  0.33254068064239545  0.16857079370377898  0.686938587364196  1.0000
  N   N13       1.0  0.562256659491581  0.081922001868989  0.0701247440517463  1.0000
  N   N14       1.0  0.4377447929795294  0.08192700738180038  0.9298785874789389  1.0000
  N   N15       1.0  0.062246831666840294  0.9180643921921642  0.42988212499615497  1.0000
  N   N16       1.0  0.9377553146146482  0.918068274800298  0.5701161629372962  1.0000
  N   N17       1.0  0.5539909564234975  0.3724748719512689  0.256032443553714  1.0000
  N   N18       1.0  0.4460109794033114  0.3724767672629667  0.7439711877131572  1.0000
  N   N19       1.0  0.053988189607196084  0.6275252034234595  0.2439694965222401  1.0000
  N   N20       1.0  0.946006325070179  0.6275239779754428  0.7560289838626986  1.0000
  N   N21       1.0  0.23975173412016904  0.7648838650865812  0.2031599766237306  1.0000
  N   N22       1.0  0.7602442220791159  0.764884240224653  0.7968391376442838  1.0000
  N   N23       1.0  0.7397547353061995  0.23511947669285146  0.2968460621092817  1.0000
  N   N24       1.0  0.26024178774280665  0.2351241782428062  0.7031510291076515  1.0000
  N   N25       1.0  0.696493410824246  0.27104921547746125  0.14304297645787764  1.0000
  N   N26       1.0  0.30350466228193074  0.27104871663451746  0.8569561205461653  1.0000
  N   N27       1.0  0.19649236594231914  0.7289466407489652  0.3569585951012826  1.0000
  N   N28       1.0  0.8035147481910341  0.7289459918321624  0.6430385133742078  1.0000
  N   N29       1.0  0.7239539165708279  0.1432716244364158  0.9607724461063114  1.0000
  N   N30       1.0  0.2760450875044426  0.14327978305496458  0.039227995628508  1.0000
  N   N31       1.0  0.22395364306351684  0.8567183631432159  0.5392295014854085  1.0000
  N   N32       1.0  0.7760469803637946  0.8567187428815897  0.4607692153412302  1.0000
  N   N33       1.0  0.7684347637252884  0.2581936358959068  0.0340569238557791  1.0000
  N   N34       1.0  0.23156332313411096  0.25819956559629986  0.9659431442514191  1.0000
  N   N35       1.0  0.2684355269757575  0.741796691552807  0.4659437257711829  1.0000
  N   N36       1.0  0.7315731619046986  0.7417993041946289  0.5340543803247257  1.0000
  O   O1        1.0  0.35643533564772406  0.9652814197084892  0.045826139443413204  1.0000
  O   O2        1.0  0.6435675543734829  0.9652774162611023  0.9541810564520717  1.0000
  O   O3        1.0  0.8564333284425555  0.03471977526498899  0.45417803182230904  1.0000
  O   O4        1.0  0.14357214576833138  0.03472631173694649  0.5458158995795017  1.0000
  O   O5        1.0  0.34087484364586357  0.5956203334346384  0.26214289203170443  1.0000
  O   O6        1.0  0.6591228821621157  0.5956117860614826  0.7378491570857477  1.0000
  O   O7        1.0  0.8408799201484242  0.40437472073332964  0.2378528986550563  1.0000
  O   O8        1.0  0.15914660325386615  0.4043919291892024  0.7621561795285032  1.0000
  O   O9        1.0  0.22485902732176294  0.4930941334552514  0.3021467600306877  1.0000
  O   O10       1.0  0.7751380139442146  0.4930826767988065  0.6978461676795931  1.0000
  O   O11       1.0  0.7248567602346936  0.5069071693602396  0.1978705859355543  1.0000
  O   O12       1.0  0.27516091669777853  0.5069482924412937  0.8021292465930614  1.0000
  O   O13       1.0  0.4874173650625691  0.874899479633548  0.0812887677330494  1.0000
  O   O14       1.0  0.5125864159138372  0.8749044016886173  0.9187198114711066  1.0000
  O   O15       1.0  0.9874191564565606  0.1250981893641878  0.4187199468285456  1.0000
  O   O16       1.0  0.012583044057890898  0.1250994336522098  0.5812755543471866  1.0000
  O   O17       1.0  0.4280828748433548  0.08063550728634541  0.2974974946982698  1.0000
  O   O18       1.0  0.5719146077643557  0.08063448231231261  0.7025063276813199  1.0000
  O   O19       1.0  0.9280793821136015  0.9193656289710361  0.20250624656257804  1.0000
  O   O20       1.0  0.07190926054985168  0.9193679369591192  0.7974940114301675  1.0000
