data_image0
_chemical_formula_structural       Cd6H102C72N12Cl6O12
_chemical_formula_sum              "Cd6 H102 C72 N12 Cl6 O12"
_cell_length_a       14.584001859000006
_cell_length_b       16.37705629461514
_cell_length_c       16.374827578864835
_cell_angle_alpha    119.9911177275762
_cell_angle_beta     90.0000029980576
_cell_angle_gamma    89.9999991379869

_space_group_name_H-M_alt    "P 1"
_space_group_IT_number       1

loop_
  _space_group_symop_operation_xyz
  'x, y, z'

loop_
  _atom_site_type_symbol
  _atom_site_label
  _atom_site_symmetry_multiplicity
  _atom_site_fract_x
  _atom_site_fract_y
  _atom_site_fract_z
  _atom_site_occupancy
  Cd  Cd1       1.0  0.028814469290644205  0.34738329846386773  0.7402380645059738  1.0000
  Cd  Cd2       1.0  0.8620884856557826  0.7402537693581266  0.39282762079572114  1.0000
  Cd  Cd3       1.0  0.6954209365022451  0.39282195057089814  0.6526007146185792  1.0000
  Cd  Cd4       1.0  0.5288150746182226  0.65261704693377  0.25976276742385834  1.0000
  Cd  Cd5       1.0  0.362087874002505  0.2597465804118571  0.6071732289029371  1.0000
  Cd  Cd6       1.0  0.19542098950738315  0.6071769179136767  0.34739794177736644  1.0000
  H   H1        1.0  0.15597365963215995  0.058879668481125705  0.3494467601943826  1.0000
  H   H2        1.0  0.9894472190113179  0.34955249848720626  0.2906062037448649  1.0000
  H   H3        1.0  0.822824248265512  0.29047998455445156  0.9409204886677005  1.0000
  H   H4        1.0  0.6559742830165478  0.9411194575003138  0.6505528573198236  1.0000
  H   H5        1.0  0.4894466068071355  0.6504475949392727  0.7093936895226424  1.0000
  H   H6        1.0  0.3228249683580416  0.7095194961438056  0.059078785118529764  1.0000
  H   H7        1.0  0.03449739947703279  0.0522257512911822  0.3383495799477033  1.0000
  H   H8        1.0  0.8679565597468727  0.3384695757572516  0.28611926574795643  1.0000
  H   H9        1.0  0.7013582738583966  0.28612172245619416  0.9477347580428915  1.0000
  H   H10       1.0  0.5344980233999266  0.9477739836387896  0.6616506416874942  1.0000
  H   H11       1.0  0.36795594761999695  0.661529905533115  0.7138800104445199  1.0000
  H   H12       1.0  0.20135762211330646  0.7138780146628817  0.05226547248863526  1.0000
  H   H13       1.0  0.08699259593112171  0.0646112349230137  0.4418296937976153  1.0000
  H   H14       1.0  0.9204455839309349  0.441916608587988  0.37721522768789856  1.0000
  H   H15       1.0  0.7538514092115847  0.3771751942212874  0.9352854091475539  1.0000
  H   H16       1.0  0.5869932140016874  0.9353882426812773  0.5581695674149998  1.0000
  H   H17       1.0  0.4204456538833342  0.5580831314053826  0.6227850145245243  1.0000
  H   H18       1.0  0.25385075971887266  0.6228255066565324  0.0647150821565391  1.0000
  H   H19       1.0  0.14653180921609285  0.22289345782538567  0.4805694482000576  1.0000
  H   H20       1.0  0.979944338292896  0.48073791016643247  0.2576819023448139  1.0000
  H   H21       1.0  0.8131897139731382  0.2576678258618158  0.7769073491043131  1.0000
  H   H22       1.0  0.6465317419834946  0.7771066311022494  0.5194304267845595  1.0000
  H   H23       1.0  0.47994441589433035  0.5192615725931518  0.7423173798184239  1.0000
  H   H24       1.0  0.3131890717551401  0.7423313966956612  0.2230909609467845  1.0000
  H   H25       1.0  0.15709406332599238  0.19556721898637622  0.31719740998436663  1.0000
  H   H26       1.0  0.9905977901613457  0.3173306023157282  0.12165967713281133  1.0000
  H   H27       1.0  0.8238095719371615  0.12160765332983212  0.8042851125317017  1.0000
  H   H28       1.0  0.6570933195199942  0.8044325175519802  0.6828028181871633  1.0000
  H   H29       1.0  0.4905978729939734  0.6826694911258498  0.8783402161960583  1.0000
  H   H30       1.0  0.3238102972053768  0.8783911223256666  0.19571486655465267  1.0000
  H   H31       1.0  0.095924297277648  0.3004570133971427  0.3898740601107776  1.0000
  H   H32       1.0  0.9294431063331888  0.3899928472512713  0.08940776825668459  1.0000
  H   H33       1.0  0.7626082604254736  0.08944849177308359  0.6994066116484704  1.0000
  H   H34       1.0  0.595924236653616  0.699543074866547  0.6101258121756461  1.0000
  H   H35       1.0  0.4294431922700924  0.6100072453879904  0.9105921218116537  1.0000
  H   H36       1.0  0.26260830561420795  0.9105518566917894  0.30059423274631336  1.0000
  H   H37       1.0  0.035148110462259304  0.1967907236174327  0.3099073412613152  1.0000
  H   H38       1.0  0.8686429234558448  0.3100462147395291  0.11314478588442263  1.0000
  H   H39       1.0  0.7018526484076304  0.1131541496328836  0.8031048084301775  1.0000
  H   H40       1.0  0.5351480527864326  0.8032091058345331  0.6900915645633463  1.0000
  H   H41       1.0  0.3686430066652235  0.6899535245742286  0.8868554535660852  1.0000
  H   H42       1.0  0.20185337360353373  0.8868461980349098  0.19689603272536982  1.0000
  H   H43       1.0  0.9951356525362914  0.20278273072169384  0.5416531664495282  1.0000
  H   H44       1.0  0.8284838548028975  0.5416085442480708  0.3388130460142948  1.0000
  H   H45       1.0  0.6616771166341522  0.33876981712380433  0.7971431302289178  1.0000
  H   H46       1.0  0.49513639454161773  0.7972173627794206  0.4583467271213025  1.0000
  H   H47       1.0  0.32848324298908693  0.45839119453881233  0.6611871912950705  1.0000
  H   H48       1.0  0.16167647458813414  0.6612299194746782  0.2028570981869678  1.0000
  H   H49       1.0  0.9388698861698119  0.19953245547274892  0.4440342170631341  1.0000
  H   H50       1.0  0.7723421979184056  0.4439195809175729  0.244459903316809  1.0000
  H   H51       1.0  0.6055814033323657  0.244348267317271  0.8004345378215875  1.0000
  H   H52       1.0  0.43887063383706965  0.8004676372901899  0.5559656735078208  1.0000
  H   H53       1.0  0.27234227567812763  0.5560807676749989  0.7555409415969481  1.0000
  H   H54       1.0  0.10558144519671944  0.7556518210731156  0.1995653349797238  1.0000
  H   H55       1.0  0.9841132980502041  0.364530774342498  0.49813481744963906  1.0000
  H   H56       1.0  0.817436812715137  0.49809373938312257  0.13353645146737145  1.0000
  H   H57       1.0  0.650712359114934  0.13355048540158534  0.6353621179133244  1.0000
  H   H58       1.0  0.484113359627152  0.6354683559439351  0.5018648175596641  1.0000
  H   H59       1.0  0.3174362121937478  0.5019059992588382  0.8664637852530107  1.0000
  H   H60       1.0  0.1507124087917618  0.8664496035808966  0.3646377572941902  1.0000
  H   H61       1.0  0.11399890499324535  0.5135365953078762  0.714278455391508  1.0000
  H   H62       1.0  0.9472413766838628  0.7142010755605314  0.2004959070619707  1.0000
  H   H63       1.0  0.7805100611769833  0.20059389955320486  0.486289761000137  1.0000
  H   H64       1.0  0.6139981432550601  0.48646384572078466  0.28572106523477475  1.0000
  H   H65       1.0  0.4472421472228307  0.28579962785446617  0.79950459455295  1.0000
  H   H66       1.0  0.28051012070476844  0.7994061911321423  0.5137101211276801  1.0000
  H   H67       1.0  0.9966948970212146  0.5157010707216756  0.6883577966551686  1.0000
  H   H68       1.0  0.8299100690396558  0.6882850841559787  0.1724775248737346  1.0000
  H   H69       1.0  0.6631938393322799  0.17254071355360168  0.48419042605422663  1.0000
  H   H70       1.0  0.49669494998842384  0.48429928081426965  0.3116430602201989  1.0000
  H   H71       1.0  0.3299108407857077  0.3117146546496273  0.8275227125117086  1.0000
  H   H72       1.0  0.16319389851366856  0.8274590230647831  0.5158098024425402  1.0000
  H   H73       1.0  0.9688205144904106  0.598357123290441  0.6027285711290278  1.0000
  H   H74       1.0  0.8020781978332822  0.6027396465132425  0.004211221279533177  1.0000
  H   H75       1.0  0.6354442532669894  0.004223981752929247  0.40152694851848036  1.0000
  H   H76       1.0  0.4688219452204053  0.4016429698654349  0.3972713210387938  1.0000
  H   H77       1.0  0.3020789780013119  0.39726044445507097  0.9957886619982333  1.0000
  H   H78       1.0  0.13544431447287764  0.9957757545013948  0.5984732784987871  1.0000
  H   H79       1.0  0.0176001162172099  0.637243379479635  0.4809697495585965  1.0000
  H   H80       1.0  0.8508967854982076  0.48107568606640444  0.8435929068001617  1.0000
  H   H81       1.0  0.684353317316358  0.8436970575562057  0.36272979582210524  1.0000
  H   H82       1.0  0.5176014272592228  0.36275670775649616  0.5190301185519247  1.0000
  H   H83       1.0  0.3508975144787955  0.5189250160846086  0.1564075896780396  1.0000
  H   H84       1.0  0.18435270915620092  0.156303289882004  0.6372710444004142  1.0000
  H   H85       1.0  0.254725702766983  0.4770710498380595  0.4236332175780433  1.0000
  H   H86       1.0  0.0878915379241931  0.42354573424876923  0.9464855841084729  1.0000
  H   H87       1.0  0.9212855454768063  0.9467378178306163  0.5231980770727704  1.0000
  H   H88       1.0  0.7547263288037699  0.5229285244802571  0.5763647367322309  1.0000
  H   H89       1.0  0.5878914467658376  0.57645435390954  0.05351428774967822  1.0000
  H   H90       1.0  0.42128561532682346  0.05326227470162344  0.4768018125606376  1.0000
  H   H91       1.0  0.21601273839517895  0.42931449469453753  0.5402795441476587  1.0000
  H   H92       1.0  0.04915385971442991  0.5401423803127159  0.11088899985249169  1.0000
  H   H93       1.0  0.8824320206921145  0.11108057460828039  0.5708823842543326  1.0000
  H   H94       1.0  0.7160133568025204  0.5706849846024157  0.4597197239438062  1.0000
  H   H95       1.0  0.5491545051199723  0.4598583178796077  0.8891114805379633  1.0000
  H   H96       1.0  0.3824313880859478  0.8889197754285975  0.4291184665289622  1.0000
  H   H97       1.0  0.12055608788729442  0.3515348709554472  0.5919187377484435  1.0000
  H   H98       1.0  0.9538424476968005  0.5919713547900828  0.24033661570967982  1.0000
  H   H99       1.0  0.7871001634879992  0.24036557825821353  0.648367160565016  1.0000
  H   H100      1.0  0.6205567019694983  0.6484648651035556  0.4080814884750625  1.0000
  H   H101      1.0  0.4538432138578303  0.4080289961836743  0.75966423888098  1.0000
  H   H102      1.0  0.2870995285075395  0.7596341599857439  0.3516330745379365  1.0000
  C   C1        1.0  0.0914440472636997  0.08628664530216679  0.3883260342795226  1.0000
  C   C2        1.0  0.9249237768892943  0.3884297071966074  0.30204965428919917  1.0000
  C   C3        1.0  0.758267892460211  0.3020023473513263  0.913592508974631  1.0000
  C   C4        1.0  0.5914439831470731  0.9137131848883655  0.6116728745466137  1.0000
  C   C5        1.0  0.42492385034830704  0.6115703853833596  0.6979502355381941  1.0000
  C   C6        1.0  0.2582672429800894  0.6979973905143666  0.0864077245910978  1.0000
  C   C7        1.0  0.0865880417180591  0.19373269798335  0.4332990411636006  1.0000
  C   C8        1.0  0.920056797794388  0.4334016503127884  0.239564155534005  1.0000
  C   C9        1.0  0.7533001175681523  0.23955097338170375  0.8061454579560989  1.0000
  C   C10       1.0  0.5865879767656211  0.8062680007000865  0.5667014412226836  1.0000
  C   C11       1.0  0.4200568756647912  0.5665984422033362  0.7604357340338911  1.0000
  C   C12       1.0  0.25330015901784725  0.7604487644188254  0.1938547753447823  1.0000
  C   C13       1.0  0.09395295880394632  0.2234772472191436  0.3585937855926815  1.0000
  C   C14       1.0  0.9274587417573772  0.3587279817662862  0.1351291934012196  1.0000
  C   C15       1.0  0.7606684655066546  0.13512151546358106  0.7763854704279114  1.0000
  C   C16       1.0  0.5939522130408293  0.7765228410186822  0.6414060865886172  1.0000
  C   C17       1.0  0.4274588244938756  0.6412721108469412  0.864870696561326  1.0000
  C   C18       1.0  0.2606691926347012  0.8648778699057686  0.2236151158896363  1.0000
  C   C19       1.0  0.9981122001179233  0.22954456025422598  0.49183800845941067  1.0000
  C   C20       1.0  0.8315008575300384  0.4918145497756968  0.2622471732610237  1.0000
  C   C21       1.0  0.6647530897688654  0.2622143711926481  0.7703871521658314  1.0000
  C   C22       1.0  0.49811225980518986  0.770455533285933  0.5081618852700985  1.0000
  C   C23       1.0  0.33150093504947636  0.5081855415786265  0.7377527115854223  1.0000
  C   C24       1.0  0.16475244800879105  0.7377853654461859  0.2296130764140545  1.0000
  C   C25       1.0  0.9855806610253952  0.33702943814488856  0.5473218207750322  1.0000
  C   C26       1.0  0.8189014331225126  0.5472810238556605  0.2102218983940177  1.0000
  C   C27       1.0  0.6521660069277858  0.21023563460916952  0.6629043370692572  1.0000
  C   C28       1.0  0.485580719261968  0.6629706552308648  0.45267807228633944  1.0000
  C   C29       1.0  0.3189015146163997  0.45271906733336204  0.789777985780674  1.0000
  C   C30       1.0  0.15216605627480823  0.7897634913223115  0.3370952802419255  1.0000
  C   C31       1.0  0.0634908189268941  0.4850614921405949  0.6567606004900028  1.0000
  C   C32       1.0  0.8967147782597281  0.6567025701919605  0.17154647873652365  1.0000
  C   C33       1.0  0.7299992349033818  0.17161854566598578  0.514840657158068  1.0000
  C   C34       1.0  0.56349143144611  0.5149385956975934  0.34323927006721544  1.0000
  C   C35       1.0  0.3967148638490415  0.3432975220179202  0.8284534095868709  1.0000
  C   C36       1.0  0.22999929227452756  0.8283815443566879  0.48515922227671393  1.0000
  C   C37       1.0  0.08894610679676872  0.5117367782943346  0.583856507007532  1.0000
  C   C38       1.0  0.9221508670626621  0.5837961631739432  0.07199867121743624  1.0000
  C   C39       1.0  0.7554627533803001  0.07210115896706525  0.48829016847021484  1.0000
  C   C40       1.0  0.588946724031331  0.48826366240565733  0.41614301228307243  1.0000
  C   C41       1.0  0.4221502715786018  0.4162039293696438  0.9280012184620933  1.0000
  C   C42       1.0  0.25546212495835624  0.9278991894040516  0.5117106755435756  1.0000
  C   C43       1.0  0.033274143580833006  0.5700048767986061  0.5652930836277507  1.0000
  C   C44       1.0  0.8665193873493993  0.5652943259010141  0.9951501215041959  1.0000
  C   C45       1.0  0.6998716923424626  0.9952304717366333  0.42998142511449106  1.0000
  C   C46       1.0  0.5332740771944487  0.4299952106431491  0.4347067853184187  1.0000
  C   C47       1.0  0.3665194231813729  0.4347057659127245  0.004849765209300596  1.0000
  C   C48       1.0  0.19987108277947396  0.004769265362938304  0.5700188053377745  1.0000
  C   C49       1.0  0.059989031022631416  0.5921243076428128  0.49693875763709644  1.0000
  C   C50       1.0  0.8932555310688316  0.4969775002546226  0.9046864470875775  1.0000
  C   C51       1.0  0.7266592644634787  0.9048081737242554  0.40791918060172355  1.0000
  C   C52       1.0  0.5599896546918331  0.40787639069166204  0.503061723331051  1.0000
  C   C53       1.0  0.3932548853722865  0.503024165522177  0.09531430962282879  1.0000
  C   C54       1.0  0.22665865467958216  0.09519217426898047  0.5920816618763852  1.0000
  C   C55       1.0  0.19167990817192057  0.5019306046362715  0.46451468327828155  1.0000
  C   C56       1.0  0.024863570221036507  0.46445617112000553  0.9625025187599906  1.0000
  C   C57       1.0  0.8582370062982392  0.9626986765870101  0.49827947763626695  1.0000
  C   C58       1.0  0.6916812179136402  0.498071058495988  0.535486062684953  1.0000
  C   C59       1.0  0.5248641644920937  0.5355445267536395  0.037497960335400676  1.0000
  C   C60       1.0  0.35823570650879333  0.03730132060459815  0.5017217244808237  1.0000
  C   C61       1.0  0.16969143261432154  0.4767006486623231  0.5312905660092399  1.0000
  C   C62       1.0  0.0028668371596865003  0.5311986974066869  0.05450257082139844  1.0000
  C   C63       1.0  0.8361813399881441  0.05466004534311243  0.5234584035207775  1.0000
  C   C64       1.0  0.6696906809751371  0.5233004036392187  0.4687095681839752  1.0000
  C   C65       1.0  0.5028668000345746  0.46880235270621995  0.9454975544773989  1.0000
  C   C66       1.0  0.3361813948978849  0.9453396935447601  0.47654183419900426  1.0000
  C   C67       1.0  0.8924265326620928  0.3607329481764409  0.5980663355529289  1.0000
  C   C68       1.0  0.7257665029587984  0.5980172917650391  0.2372580205750909  1.0000
  C   C69       1.0  0.55901050499255  0.2372949135508407  0.6392549045169817  1.0000
  C   C70       1.0  0.3924265883237795  0.6392661809071144  0.40193329456799654  1.0000
  C   C71       1.0  0.2257665837183894  0.401982445674264  0.762742211257809  1.0000
  C   C72       1.0  0.059010556177142306  0.7627051742285644  0.3607449658013453  1.0000
  N   N1        1.0  0.05824671620631962  0.3821391645413783  0.6183948413949311  1.0000
  N   N2        1.0  0.8915186758137212  0.618392012954935  0.2361695094672031  1.0000
  N   N3        1.0  0.7247853049636819  0.236227053565834  0.6177655383278164  1.0000
  N   N4        1.0  0.5582466435673228  0.6178609232280082  0.38160502888267456  1.0000
  N   N5        1.0  0.39151875697793775  0.38160868972900647  0.7638309891767892  1.0000
  N   N6        1.0  0.22478535738876815  0.7637730363884359  0.38223434082897983  1.0000
  N   N7        1.0  0.1381397330059855  0.5589333675322267  0.44766027405453485  1.0000
  N   N8        1.0  0.9713678359201695  0.44766852651939365  0.8886372175304021  1.0000
  N   N9        1.0  0.8047791129925842  0.8888035531468149  0.44122307443661446  1.0000
  N   N10       1.0  0.6381396733226411  0.4410673318275328  0.5523402110802778  1.0000
  N   N11       1.0  0.47136856170416064  0.5523321772121292  0.11136328537084242  1.0000
  N   N12       1.0  0.3047791866735993  0.11119644334346655  0.5587781248303474  1.0000
  Cl  Cl1       1.0  0.0090297765822385  0.18460687780839166  0.7048799012755752  1.0000
  Cl  Cl2       1.0  0.842364136739697  0.7048786749032488  0.5202853827946472  1.0000
  Cl  Cl3       1.0  0.6756753310905027  0.5202286666632715  0.8153917069347686  1.0000
  Cl  Cl4       1.0  0.5090283242083515  0.8153932093152819  0.29511996637794635  1.0000
  Cl  Cl5       1.0  0.34236625976239315  0.2951216746079838  0.47971546585246483  1.0000
  Cl  Cl6       1.0  0.17567606237748384  0.47977055409010205  0.1846065957846434  1.0000
  O   O1        1.0  0.8241976590453677  0.3678780266220583  0.5540566303302654  1.0000
  O   O2        1.0  0.6575335154615305  0.55407898805786  0.18605022168399202  1.0000
  O   O3        1.0  0.4908015177430018  0.18606191015211243  0.6319988485268413  1.0000
  O   O4        1.0  0.3241970317208216  0.6321204910241393  0.4459423855553198  1.0000
  O   O5        1.0  0.15753359848459783  0.44592171155633753  0.8139502644848309  1.0000
  O   O6        1.0  0.9908021267097242  0.8139375727499143  0.3680004342152757  1.0000
  O   O7        1.0  0.8870411818550539  0.36928573825186833  0.679710774108486  1.0000
  O   O8        1.0  0.7203749801459483  0.6795977111640426  0.310389985509687  1.0000
  O   O9        1.0  0.5535846957209005  0.31046921853891263  0.6308778368227481  1.0000
  O   O10       1.0  0.38704191856180614  0.6307143538311095  0.32028911369916824  1.0000
  O   O11       1.0  0.22037505798803642  0.3204016736766775  0.689610598659556  1.0000
  O   O12       1.0  0.0535847486203025  0.6895314797115333  0.3691226438039267  1.0000
