data_image0
_chemical_formula_structural       Hg4H24C32N20Cl4O4
_chemical_formula_sum              "Hg4 H24 C32 N20 Cl4 O4"
_cell_length_a       3.903639259342201
_cell_length_b       12.668617630006109
_cell_length_c       19.564964747795855
_cell_angle_alpha    90.00009175441767
_cell_angle_beta     94.54862471024857
_cell_angle_gamma    89.99992594999303

_space_group_name_H-M_alt    "P 1"
_space_group_IT_number       1

loop_
  _space_group_symop_operation_xyz
  'x, y, z'

loop_
  _atom_site_type_symbol
  _atom_site_label
  _atom_site_symmetry_multiplicity
  _atom_site_fract_x
  _atom_site_fract_y
  _atom_site_fract_z
  _atom_site_occupancy
  Hg  Hg1       1.0  0.2466887879744135  0.9992290770122807  0.11080741400153465  1.0000
  Hg  Hg2       1.0  0.25331330852329603  0.49922695871681805  0.38919405087918335  1.0000
  Hg  Hg3       1.0  0.7533088790543729  0.0007729337885109999  0.889196432433607  1.0000
  Hg  Hg4       1.0  0.7466868072961859  0.5007718946687731  0.6108047207748796  1.0000
  H   H1        1.0  0.9827387505396955  0.2502421977568048  0.3349743573755929  1.0000
  H   H2        1.0  0.5172748368249884  0.7502390182798209  0.1650256787725795  1.0000
  H   H3        1.0  0.01726657742018739  0.7497621810963506  0.6650275586129267  1.0000
  H   H4        1.0  0.4827304185583258  0.24975509899218204  0.8349731693899612  1.0000
  H   H5        1.0  0.42999360821466587  0.1394961027512309  0.24840691416265054  1.0000
  H   H6        1.0  0.07000468351855459  0.6394891693791035  0.2515941227356676  1.0000
  H   H7        1.0  0.5699938038952296  0.8605098548132518  0.7515978018597949  1.0000
  H   H8        1.0  0.9299979899865034  0.36050573724484986  0.7484041758683658  1.0000
  H   H9        1.0  0.8197637269806607  0.08015566893592307  0.23180416515444333  1.0000
  H   H10       1.0  0.6802325151442259  0.5801518891832985  0.26819594832979726  1.0000
  H   H11       1.0  0.1802262428104271  0.9198487099232365  0.7682000778191379  1.0000
  H   H12       1.0  0.3197650067035837  0.4198445961451824  0.7318017624607122  1.0000
  H   H13       1.0  0.4790850791638377  0.1988898432160866  0.03890810800974979  1.0000
  H   H14       1.0  0.020897549322555196  0.6988850272724745  0.4610917347795649  1.0000
  H   H15       1.0  0.5209048543309008  0.8011137462890832  0.9610946010529627  1.0000
  H   H16       1.0  0.9790974269418767  0.3011138261140686  0.5389069603636896  1.0000
  H   H17       1.0  0.8212773641174917  0.4352592512399056  0.9654918424401939  1.0000
  H   H18       1.0  0.6787218133382636  0.9352580508916615  0.5345082778738897  1.0000
  H   H19       1.0  0.17873049733236715  0.5647396021461477  0.03450857789054849  1.0000
  H   H20       1.0  0.32127058104644857  0.06474238119893269  0.4654898677112413  1.0000
  H   H21       1.0  0.6303986542137279  0.31069559648405226  0.9779144204074225  1.0000
  H   H22       1.0  0.8695983914599167  0.8106927089257923  0.5220845173412485  1.0000
  H   H23       1.0  0.3695886732071471  0.689307203667596  0.022086716489020792  1.0000
  H   H24       1.0  0.13040426993562448  0.18930772316227265  0.477913269961995  1.0000
  C   C1        1.0  0.8473478881192592  0.3826809661428996  0.06506636852412129  1.0000
  C   C2        1.0  0.6526446859135717  0.882676821125088  0.43493502488725966  1.0000
  C   C3        1.0  0.15265226399949225  0.6173170978924744  0.9349339370400356  1.0000
  C   C4        1.0  0.3473580359885631  0.1173180855013882  0.5650653189307488  1.0000
  C   C5        1.0  0.8742704279837171  0.3152372754489078  0.17603946262977385  1.0000
  C   C6        1.0  0.6257326633073531  0.8152336559724558  0.3239615066055918  1.0000
  C   C7        1.0  0.1257169478298437  0.6847678927615776  0.8239637194818099  1.0000
  C   C8        1.0  0.3742828348765314  0.18476677611259618  0.6760359606711643  1.0000
  C   C9        1.0  0.0580772038177741  0.40009124813762026  0.20336675249093614  1.0000
  C   C10       1.0  0.4419303395876852  0.900089010911138  0.296632135522607  1.0000
  C   C11       1.0  0.9419204269117357  0.5999115520133812  0.7966355600341044  1.0000
  C   C12       1.0  0.5580850859991315  0.09991221052223409  0.7033622639335702  1.0000
  C   C13       1.0  0.14986740988685907  0.48203539172701665  0.15611927770719083  1.0000
  C   C14       1.0  0.35013216854105167  0.9820277834132013  0.3438816208132279  1.0000
  C   C15       1.0  0.8501430697332069  0.5179658297173972  0.8438832260940854  1.0000
  C   C16       1.0  0.6498704444662022  0.0179679125597048  0.6561141212737238  1.0000
  C   C17       1.0  0.9799497037836105  0.2898431432667365  0.2858323022039215  1.0000
  C   C18       1.0  0.5200688761988914  0.7898392949784563  0.21416784914597287  1.0000
  C   C19       1.0  0.020058230255997993  0.7101588675315186  0.7141711859493254  1.0000
  C   C20       1.0  0.4799363428836898  0.21015640099586358  0.7858294651068645  1.0000
  C   C21       1.0  0.6429534409225254  0.1445691838520489  0.21487647426347672  1.0000
  C   C22       1.0  0.8570425622018193  0.6445630059410306  0.2851237021534061  1.0000
  C   C23       1.0  0.35702880743525617  0.8554359843600209  0.7851271426407889  1.0000
  C   C24       1.0  0.14296264478002743  0.35543347938476433  0.7148731007963177  1.0000
  C   C25       1.0  0.5177184609505262  0.13525239426385843  0.14040961903145893  1.0000
  C   C26       1.0  0.9822724613853495  0.6352471390811163  0.3595914943793018  1.0000
  C   C27       1.0  0.48226639348844447  0.8647496165412039  0.8595955700371504  1.0000
  C   C28       1.0  0.01772247858860249  0.3647477675430082  0.6404056668515422  1.0000
  C   C29       1.0  0.5731771592055283  0.20813083524731008  0.09229518808916028  1.0000
  C   C30       1.0  0.9268134564183582  0.7081257217846968  0.4077044626154701  1.0000
  C   C31       1.0  0.42681534406820987  0.7918719649052828  0.9077075592285694  1.0000
  C   C32       1.0  0.07317891376928289  0.2918739209525326  0.5922926603622826  1.0000
  N   N1        1.0  0.032695330770472694  0.4651029396735281  0.08834907268269628  1.0000
  N   N2        1.0  0.46729914672527423  0.9650986088446626  0.41165071017805127  1.0000
  N   N3        1.0  0.9673202642134201  0.5348943350081468  0.911652485020468  1.0000
  N   N4        1.0  0.5326957932457504  0.0348978764836687  0.5883464510535602  1.0000
  N   N5        1.0  0.7409151481717731  0.3766672806290359  0.9986981795126861  1.0000
  N   N6        1.0  0.7590662461465385  0.8766659653311846  0.5013011044640263  1.0000
  N   N7        1.0  0.2590902160961761  0.6233315727612734  0.0013052703836180998  1.0000
  N   N8        1.0  0.24092350586796837  0.1233328880518911  0.49869393504396686  1.0000
  N   N9        1.0  0.7588441540892461  0.3014827553695412  0.10887741797804296  1.0000
  N   N10       1.0  0.741148672835422  0.8014760977667592  0.3911218508851916  1.0000
  N   N11       1.0  0.2411509673576191  0.6985208341371985  0.8911274128094532  1.0000
  N   N12       1.0  0.2588488127116547  0.19852196626404608  0.6088743259956074  1.0000
  N   N13       1.0  0.12250817754596709  0.3824240429321152  0.2734313191521025  1.0000
  N   N14       1.0  0.3775148500787039  0.8824216584632011  0.22656778113242376  1.0000
  N   N15       1.0  0.8774997322950995  0.6175779678648751  0.726571146394164  1.0000
  N   N16       1.0  0.6224980420371793  0.11757482685990786  0.7734281139765213  1.0000
  N   N17       1.0  0.8241637383786014  0.2454633586214783  0.22691236631710854  1.0000
  N   N18       1.0  0.6758396118117884  0.7454572247165032  0.27308853474594486  1.0000
  N   N19       1.0  0.17582620721248074  0.7545418095885308  0.7730908540498687  1.0000
  N   N20       1.0  0.3241656193685997  0.25453926061055643  0.7269092908107735  1.0000
  Cl  Cl1       1.0  0.9204512381457163  0.8576948870254951  0.06004184275207788  1.0000
  Cl  Cl2       1.0  0.5795568109591825  0.35769375455119956  0.43995822187059724  1.0000
  Cl  Cl3       1.0  0.07955661119169831  0.14231107052887634  0.9399580662786416  1.0000
  Cl  Cl4       1.0  0.4204433411566412  0.6423058881883889  0.560042083694327  1.0000
  O   O1        1.0  0.3256400528295059  0.5619935869830427  0.17241467015869455  1.0000
  O   O2        1.0  0.17435332641654358  0.0619905589486578  0.3275836579911199  1.0000
  O   O3        1.0  0.6743754937543899  0.43800526640031723  0.8275848423312621  1.0000
  O   O4        1.0  0.8256364860986948  0.9380059263812581  0.6724139380331805  1.0000
