data_image0
_chemical_formula_structural       Ag8H50C60S4N10O16
_chemical_formula_sum              "Ag8 H50 C60 S4 N10 O16"
_cell_length_a       10.233075680318514
_cell_length_b       11.840363187844371
_cell_length_c       13.85783593457601
_cell_angle_alpha    83.7937403027338
_cell_angle_beta     80.83869930452735
_cell_angle_gamma    87.40268113706095

_space_group_name_H-M_alt    "P 1"
_space_group_IT_number       1

loop_
  _space_group_symop_operation_xyz
  'x, y, z'

loop_
  _atom_site_type_symbol
  _atom_site_label
  _atom_site_symmetry_multiplicity
  _atom_site_fract_x
  _atom_site_fract_y
  _atom_site_fract_z
  _atom_site_occupancy
  Ag  Ag1       1.0  0.46945141049918965  0.8321706174997132  0.2716510691736147  1.0000
  Ag  Ag2       1.0  0.5305397566795591  0.1678220866795641  0.7283551045245957  1.0000
  Ag  Ag3       1.0  0.44347207297008134  0.8586099624875276  0.5021682507322254  1.0000
  Ag  Ag4       1.0  0.5565289194730668  0.14139273724946125  0.49783433893288276  1.0000
  Ag  Ag5       1.0  0.7660739990031972  0.016130912172428704  0.367008139126753  1.0000
  Ag  Ag6       1.0  0.2339270450285369  0.9838650265939041  0.6329994397299075  1.0000
  Ag  Ag7       1.0  0.7715016062674991  0.9265263692294072  0.15637207557271893  1.0000
  Ag  Ag8       1.0  0.2285142269104909  0.07347775342637422  0.8436293481831854  1.0000
  H   H1        1.0  0.47189554157766617  0.5680920961261506  0.2671429787428181  1.0000
  H   H2        1.0  0.5281045055479936  0.4319046747803555  0.7328603058014662  1.0000
  H   H3        1.0  0.34565239089354804  0.40856009115078273  0.22280881358945948  1.0000
  H   H4        1.0  0.6543506534518713  0.5914333457883316  0.7772088788287944  1.0000
  H   H5        1.0  0.14170237876955838  0.45991490531773144  0.1438875499515788  1.0000
  H   H6        1.0  0.8583027230052098  0.5400682919067918  0.8561301864590546  1.0000
  H   H7        1.0  0.074419486805489  0.6645565798162281  0.11386400538001601  1.0000
  H   H8        1.0  0.925582617580048  0.33542992713745445  0.8861364390353258  1.0000
  H   H9        1.0  0.2874095331650111  0.899141500409357  0.1680905810119526  1.0000
  H   H10       1.0  0.7126094104472429  0.10084366707489782  0.8318878067515384  1.0000
  H   H11       1.0  0.005873278886916499  0.838844042485434  0.13975276653698637  1.0000
  H   H12       1.0  0.9941287544054376  0.16115173807954622  0.8602381138762425  1.0000
  H   H13       1.0  0.2532470326262414  0.0688442709753829  0.15163235736319078  1.0000
  H   H14       1.0  0.7467679064839104  0.9311471134028084  0.8483689822207764  1.0000
  H   H15       1.0  0.1972443005165374  0.27215597468575947  0.11950079151480249  1.0000
  H   H16       1.0  0.8027678544839532  0.727810898587677  0.8805119480801978  1.0000
  H   H17       1.0  0.9670018425199418  0.33119969647331277  0.08239784630549706  1.0000
  H   H18       1.0  0.033017025827810194  0.6687959154448253  0.9176091091872322  1.0000
  H   H19       1.0  0.802390019979356  0.1794978481382898  0.09148003890473423  1.0000
  H   H20       1.0  0.197616836703169  0.8205149103633576  0.9085179836498652  1.0000
  H   H21       1.0  0.4044251800301595  0.6135567842508252  0.5000647138638215  1.0000
  H   H22       1.0  0.5955720118926493  0.38642474916223085  0.4999404066893902  1.0000
  H   H23       1.0  0.23397891193337733  0.4789253329003956  0.4788171899653547  1.0000
  H   H24       1.0  0.7659953048994339  0.5210828642115076  0.5211750220335034  1.0000
  H   H25       1.0  0.028295186742440106  0.560785710448883  0.4102838148950525  1.0000
  H   H26       1.0  0.9716888174895075  0.4392376711100996  0.5897151312685125  1.0000
  H   H27       1.0  0.0043159963881152005  0.7666894280831896  0.37209498024308363  1.0000
  H   H28       1.0  0.9956740193729915  0.23332442750555066  0.627896257750116  1.0000
  H   H29       1.0  0.2638568879674992  0.9727155941716819  0.41398859174132235  1.0000
  H   H30       1.0  0.7361441619302556  0.02727941615439991  0.5860096965972161  1.0000
  H   H31       1.0  0.9775748238776175  0.9339492718531803  0.3815929225980738  1.0000
  H   H32       1.0  0.022435022125002004  0.0660607902625401  0.618394188892708  1.0000
  H   H33       1.0  0.23205302112629064  0.15545466244954304  0.4014170893836421  1.0000
  H   H34       1.0  0.7679456823319981  0.8445887862037654  0.5985730993517889  1.0000
  H   H35       1.0  0.1806403586887058  0.3601003414985869  0.3700274213142691  1.0000
  H   H36       1.0  0.8193237696638889  0.6399326781829302  0.6299628137027256  1.0000
  H   H37       1.0  0.9578704873300979  0.42351407098628624  0.32101512239969304  1.0000
  H   H38       1.0  0.04209774946439639  0.5764993189320438  0.6789751177258623  1.0000
  H   H39       1.0  0.7950349390215764  0.2737858450421413  0.31430943107672243  1.0000
  H   H40       1.0  0.20493229500082322  0.7262293054566205  0.6856858052545789  1.0000
  H   H41       1.0  0.750532443163131  0.66818835319026  0.15578054931115298  1.0000
  H   H42       1.0  0.2494745741088167  0.33180318789961666  0.844222429269628  1.0000
  H   H43       1.0  0.6624634490681843  0.5296370752082141  0.057644673443583365  1.0000
  H   H44       1.0  0.33754249446558754  0.4703655182520664  0.9423559004318206  1.0000
  H   H45       1.0  0.5070560305071014  0.6051420406533623  0.9397126556330164  1.0000
  H   H46       1.0  0.4929558477660905  0.3948612531264644  0.060282820709339505  1.0000
  H   H47       1.0  0.4469892397469265  0.8105322913594222  0.9251215231446893  1.0000
  H   H48       1.0  0.5530266573872069  0.18946330433857383  0.07487712422150139  1.0000
  H   H49       1.0  0.590703381038061  0.013912106149867003  0.0769684563019268  1.0000
  H   H50       1.0  0.4092988384685299  0.9860590522797921  0.9230269906119233  1.0000
  C   C1        1.0  0.3838003347126389  0.5847802677271263  0.23193552534219458  1.0000
  C   C2        1.0  0.6162066822203656  0.415211224886285  0.768061684995935  1.0000
  C   C3        1.0  0.3130126293811272  0.49680075694145404  0.20750951358764522  1.0000
  C   C4        1.0  0.6869983425837773  0.5031915827265864  0.7924958072550224  1.0000
  C   C5        1.0  0.2002454335339081  0.5258953292673781  0.1640029636795717  1.0000
  C   C6        1.0  0.799772508365443  0.4740917502862559  0.8359984460479382  1.0000
  C   C7        1.0  0.16238934964602691  0.6396425759656168  0.14711903930824374  1.0000
  C   C8        1.0  0.8376226697967156  0.360342025162211  0.8528782603103905  1.0000
  C   C9        1.0  0.23887387823472753  0.723747751091928  0.17348472218449015  1.0000
  C   C10       1.0  0.7611291650515  0.2762455343582318  0.826514944475484  1.0000
  C   C11       1.0  0.20730334265634548  0.8448489281707272  0.15948972239895198  1.0000
  C   C12       1.0  0.7926957590247242  0.1551418957266151  0.8405120939335049  1.0000
  C   C13       1.0  0.08940203659412298  0.8921583604451869  0.1427977598225283  1.0000
  C   C14       1.0  0.9105940950596151  0.1078326168996426  0.8572159372326595  1.0000
  C   C15       1.0  0.0606877477147876  0.013920721136969398  0.1308417809394768  1.0000
  C   C16       1.0  0.9393143059718838  0.9860726740380843  0.8691688159212773  1.0000
  C   C17       1.0  0.1557568842144263  0.09510864667254991  0.1335692914659887  1.0000
  C   C18       1.0  0.8442481660141256  0.9048813175821807  0.8664441767834389  1.0000
  C   C19       1.0  0.12343698975344353  0.20970609843709553  0.1165271058534643  1.0000
  C   C20       1.0  0.8765660859980785  0.790282993219094  0.883479464460457  1.0000
  C   C21       1.0  0.9966571559150951  0.2421932290268742  0.09688634127737569  1.0000
  C   C22       1.0  0.0033617506792467003  0.7577972485379122  0.9031167852905354  1.0000
  C   C23       1.0  0.9048691018160114  0.15823007725978747  0.1000871497371065  1.0000
  C   C24       1.0  0.09514378585791412  0.8417706365714112  0.8999070184273634  1.0000
  C   C25       1.0  0.312931010140538  0.6444336205264635  0.4740193198902815  1.0000
  C   C26       1.0  0.6870700205915626  0.3555639509167322  0.5259801618803408  1.0000
  C   C27       1.0  0.21888171125534228  0.569741473708561  0.45910386924362706  1.0000
  C   C28       1.0  0.7810984090802577  0.43027179324405307  0.540897251447845  1.0000
  C   C29       1.0  0.1060625401286046  0.6150327701007328  0.42251003426387257  1.0000
  C   C30       1.0  0.8939085595142016  0.3849951833722328  0.577499362608556  1.0000
  C   C31       1.0  0.0910161190248928  0.731808168484307  0.4026465624567734  1.0000
  C   C32       1.0  0.9089708883351904  0.2682109567265912  0.5973582220929856  1.0000
  C   C33       1.0  0.1873113336730512  0.8032473272795005  0.4222888690285345  1.0000
  C   C34       1.0  0.8126727671074365  0.19676335170639447  0.5777163674902681  1.0000
  C   C35       1.0  0.17574986818826227  0.926571254282095  0.4076724915835399  1.0000
  C   C36       1.0  0.8242411646614018  0.0734393534787614  0.5923391520179067  1.0000
  C   C37       1.0  0.06396073208076561  0.9827247180027998  0.38768582264795975  1.0000
  C   C38       1.0  0.9360362228441945  0.017288313647839004  0.6123234417893783  1.0000
  C   C39       1.0  0.0421714365849795  0.1046756321579849  0.3726667517829085  1.0000
  C   C40       1.0  0.9578285204513006  0.8953329977151654  0.6273310463126691  1.0000
  C   C41       1.0  0.1367557693731101  0.18380239612609023  0.38070709116373536  1.0000
  C   C42       1.0  0.8632361693187961  0.8162190990914056  0.6192867766037509  1.0000
  C   C43       1.0  0.10761627793959862  0.29901365043721034  0.3624917704197514  1.0000
  C   C44       1.0  0.8923579067244914  0.7009987828855773  0.6374985851374716  1.0000
  C   C45       1.0  0.9848236969588202  0.3340068862057637  0.33618642608011123  1.0000
  C   C46       1.0  0.0151495229679171  0.6660021430463063  0.6638014916063781  1.0000
  C   C47       1.0  0.8936738680884276  0.25155463827092467  0.33216065273460765  1.0000
  C   C48       1.0  0.1063102510951026  0.7484533705258088  0.6678304118061504  1.0000
  C   C49       1.0  0.6847082596290974  0.695279123329314  0.10250785956048244  1.0000
  C   C50       1.0  0.3152967195486269  0.30472012059627224  0.8974967657171646  1.0000
  C   C51       1.0  0.6337769900053375  0.6194555849615713  0.04898562842308246  1.0000
  C   C52       1.0  0.36622595745259906  0.3805505060741653  0.9510200053972895  1.0000
  C   C53       1.0  0.5468227732072961  0.6612690431892504  0.9844752070716679  1.0000
  C   C54       1.0  0.4531881537976616  0.3387292380812355  0.0155288126073145  1.0000
  C   C55       1.0  0.5128894828811212  0.7763393805259042  0.9762273733584976  1.0000
  C   C56       1.0  0.4871204985097749  0.22365292949719157  0.023772293987334984  1.0000
  C   C57       1.0  0.5683054814641366  0.8489248784852279  0.031599300873317304  1.0000
  C   C58       1.0  0.4317143889778308  0.15106887589955423  0.9683911219283771  1.0000
  C   C59       1.0  0.5405941070395315  0.9704934580381136  0.027985367286426244  1.0000
  C   C60       1.0  0.4594169085719315  0.029492752181184304  0.971998902779667  1.0000
  S   S1        1.0  0.48602338262052297  0.10420246548333983  0.2770280920501733  1.0000
  S   S2        1.0  0.5139766771268981  0.8957925757933727  0.7229717530948462  1.0000
  S   S3        1.0  0.7245103213000448  0.745424064594509  0.36709544758414125  1.0000
  S   S4        1.0  0.27548771956118395  0.2545761244603498  0.6329055718559928  1.0000
  N   N1        1.0  0.34917015109807886  0.6949609141758301  0.21481642400887324  1.0000
  N   N2        1.0  0.6508279351891417  0.3050333999317303  0.7851938279285946  1.0000
  N   N3        1.0  0.9348609383236308  0.0468323369708799  0.1175207753374039  1.0000
  N   N4        1.0  0.0651440018025298  0.9531719261764522  0.8824739792887684  1.0000
  N   N5        1.0  0.29791992125552014  0.7581468772411812  0.45711735570151996  1.0000
  N   N6        1.0  0.702082091811981  0.24185131295195822  0.5428566923855058  1.0000
  N   N7        1.0  0.9204110924956552  0.13992858649829296  0.3506472824269622  1.0000
  N   N8        1.0  0.07959087675582312  0.8600757089053631  0.6493449323153159  1.0000
  N   N9        1.0  0.6539852799617094  0.8071351220312479  0.09351645646717088  1.0000
  N   N10       1.0  0.34602762109658874  0.1928639712422041  0.9064872508439946  1.0000
  O   O1        1.0  0.41592014564134433  0.017185638152604096  0.2334593596610404  1.0000
  O   O2        1.0  0.5840808850060171  0.9828119211714679  0.7665386800489172  1.0000
  O   O3        1.0  0.4667250497350607  0.06792499549562342  0.38703586735483236  1.0000
  O   O4        1.0  0.5332760131233981  0.9320683336771299  0.6129647498270997  1.0000
  O   O5        1.0  0.6308966725981193  0.09974506418411978  0.23554357325885178  1.0000
  O   O6        1.0  0.3691043584305476  0.9002525496759761  0.7644609557240898  1.0000
  O   O7        1.0  0.42867786815120484  0.21803681963725552  0.2560837071440076  1.0000
  O   O8        1.0  0.5713201919180478  0.7819608143600475  0.743916839894375  1.0000
  O   O9        1.0  0.6664863443029106  0.8562175069035123  0.4077664925418532  1.0000
  O   O10       1.0  0.3335206283903958  0.1437800303248338  0.5922416741482195  1.0000
  O   O11       1.0  0.8299290426070769  0.7768582797410348  0.2813945979306922  1.0000
  O   O12       1.0  0.1700631204609167  0.22313344686867256  0.7185985653519325  1.0000
  O   O13       1.0  0.6122098253971799  0.6899604298278208  0.3349729290599512  1.0000
  O   O14       1.0  0.38779118599978807  0.3100396784942561  0.6650248620214255  1.0000
  O   O15       1.0  0.7801734487215342  0.6730936842182091  0.44381147848997665  1.0000
  O   O16       1.0  0.2198284891238345  0.3269149564683715  0.5561918583566267  1.0000
