data_image0
_chemical_formula_structural       Cu12H40C56N16Cl12
_chemical_formula_sum              "Cu12 H40 C56 N16 Cl12"
_cell_length_a       5.045618574
_cell_length_b       16.500268145
_cell_length_c       18.6778
_cell_angle_alpha    90.0
_cell_angle_beta     90.0
_cell_angle_gamma    90.0

_space_group_name_H-M_alt    "P 1"
_space_group_IT_number       1

loop_
  _space_group_symop_operation_xyz
  'x, y, z'

loop_
  _atom_site_type_symbol
  _atom_site_label
  _atom_site_symmetry_multiplicity
  _atom_site_fract_x
  _atom_site_fract_y
  _atom_site_fract_z
  _atom_site_occupancy
  Cu  Cu1       1.0  0.7055269731136065  0.062203231546334295  0.7883915664585783  1.0000
  Cu  Cu2       1.0  0.29446934567273786  0.5622035907829215  0.21160896893638176  1.0000
  Cu  Cu3       1.0  0.7944675050659099  0.0622044436478433  0.2883910310636182  1.0000
  Cu  Cu4       1.0  0.2055288137204343  0.5622035907829215  0.7116084335414214  1.0000
  Cu  Cu5       1.0  0.6469157254216213  0.0230153835478788  0.5669993254023494  1.0000
  Cu  Cu6       1.0  0.3530885210349268  0.5230145306829499  0.4329979976228485  1.0000
  Cu  Cu7       1.0  0.8530866804280919  0.0230141714463628  0.0670020023771514  1.0000
  Cu  Cu8       1.0  0.1469155841109  0.5230163488352204  0.9329996038077297  1.0000
  Cu  Cu9       1.0  0.0811991620038768  0.108316421545041  0.6643764254890812  1.0000
  Cu  Cu10      1.0  0.9188011206175659  0.6083149626293576  0.3356214329310703  1.0000
  Cu  Cu11      1.0  0.4188009793068445  0.1083152094435249  0.1643791024638901  1.0000
  Cu  Cu12      1.0  0.581199303314598  0.608315568680112  0.8356230391159583  1.0000
  H   H1        1.0  0.15204082289395868  0.9358975178036388  0.7694557174827849  1.0000
  H   H2        1.0  0.8479535139748364  0.43590018882083836  0.2305432117272943  1.0000
  H   H3        1.0  0.3479533726641151  0.9359005480574254  0.2694562528777453  1.0000
  H   H4        1.0  0.6520429461222292  0.4358977646178133  0.7305448179121754  1.0000
  H   H5        1.0  0.21112773079782696  0.7920398556650241  0.8117379991219522  1.0000
  H   H6        1.0  0.7888685879885171  0.2920425266822235  0.1882614654830874  1.0000
  H   H7        1.0  0.288868446677796  0.7920428859188107  0.3117379991219522  1.0000
  H   H8        1.0  0.7111278721085483  0.2920401024791985  0.6882620008780476  1.0000
  H   H9        1.0  0.888993080672769  0.7366262107493782  0.9012153465611588  1.0000
  H   H10       1.0  0.11100522003112448  0.2366276696650615  0.0987851888338014  1.0000
  H   H11       1.0  0.6110033794242966  0.7366280289016487  0.40121427577123814  1.0000
  H   H12       1.0  0.3889929393620477  0.2366264575635455  0.598784653438841  1.0000
  H   H13       1.0  0.5447914779298983  0.8277295786940684  0.9513363458223124  1.0000
  H   H14       1.0  0.45520682277399516  0.3277304315589973  0.04866365417768748  1.0000
  H   H15       1.0  0.9552069640847165  0.8277301847448229  0.4513363458223125  1.0000
  H   H16       1.0  0.04479331853672619  0.3277298255082357  0.5486636541776873  1.0000
  H   H17       1.0  0.9297452693260196  0.1402692356064108  0.9588045701313845  1.0000
  H   H18       1.0  0.0702530313778738  0.6402738371983006  0.0411981068434173  1.0000
  H   H19       1.0  0.5702591184412426  0.1402716598094429  0.4588013577616223  1.0000
  H   H20       1.0  0.4297431460977492  0.6402689887922435  0.5411959652635758  1.0000
  H   H21       1.0  0.25836871750821183  0.1671009207711265  0.8589041535941035  1.0000
  H   H22       1.0  0.7416295831956816  0.6671018860584681  0.1410990587756586  1.0000
  H   H23       1.0  0.2416294418849603  0.167101526821881  0.3589014766193017  1.0000
  H   H24       1.0  0.7583708407364824  0.6671006739569592  0.6410958464058965  1.0000
  H   H25       1.0  0.03367079724880989  0.8544703562452298  0.012803970489031296  1.0000
  H   H26       1.0  0.9663255215375273  0.35447181516091325  0.9871987064857777  1.0000
  H   H27       1.0  0.46632736214435505  0.8544709622959914  0.5128012935142223  1.0000
  H   H28       1.0  0.5336709385595313  0.3544706030594043  0.4871971003008894  1.0000
  H   H29       1.0  0.11908946171562458  0.7533138183434076  0.11162342460032448  1.0000
  H   H30       1.0  0.880910820905818  0.2533158833098454  0.8883803231643981  1.0000
  H   H31       1.0  0.3809106795950967  0.7533144243941621  0.6116196768356019  1.0000
  H   H32       1.0  0.6190876211087896  0.25331467120832946  0.3883771107946359  1.0000
  H   H33       1.0  0.5151082987907216  0.7735310655462087  0.18984462838236024  1.0000
  H   H34       1.0  0.4848939657482703  0.2735331305126465  0.8101575131974881  1.0000
  H   H35       1.0  0.9848960889765408  0.7735334897492336  0.6898435575924324  1.0000
  H   H36       1.0  0.015108157480000299  0.273531312360376  0.3101553716176396  1.0000
  H   H37       1.0  0.8130460001751203  0.891737629394747  0.16627547141526117  1.0000
  H   H38       1.0  0.1869582462814208  0.3917396943611919  0.8337261347696198  1.0000
  H   H39       1.0  0.6869603695096913  0.8917406596485336  0.6662738652303801  1.0000
  H   H40       1.0  0.31304585886439895  0.39173727015815984  0.3337245285847387  1.0000
  C   C1        1.0  0.0242566888885847  0.9099767269267005  0.8106870188137805  1.0000
  C   C2        1.0  0.9757376479802032  0.4099787918931455  0.18931191039629874  1.0000
  C   C3        1.0  0.47573750666948195  0.9099791511297255  0.3106870188137805  1.0000
  C   C4        1.0  0.5242568301993059  0.4099769737408679  0.6893129811862195  1.0000
  C   C5        1.0  0.05551747439718469  0.8303646873855117  0.8338937133923707  1.0000
  C   C6        1.0  0.9444768624716103  0.33036675235194934  0.1661057512126689  1.0000
  C   C7        1.0  0.4444747392433399  0.8303671115885365  0.33389371339237056  1.0000
  C   C8        1.0  0.555517615707906  0.3303649341996788  0.6661062866076292  1.0000
  C   C9        1.0  0.878017221283521  0.7997888206440393  0.8842957950079792  1.0000
  C   C10       1.0  0.12198107942037237  0.2997908856104843  0.1157042049920207  1.0000
  C   C11       1.0  0.6219812207310937  0.7997900327455554  0.3842952596130189  1.0000
  C   C12       1.0  0.37801707997279976  0.2997896735089682  0.6157047403869811  1.0000
  C   C13       1.0  0.6872972954931099  0.8513970728564786  0.9130518583559065  1.0000
  C   C14       1.0  0.3127049690458819  0.3513979257214075  0.0869486770390537  1.0000
  C   C15       1.0  0.8127051103566031  0.8513982849579946  0.4130507875659858  1.0000
  C   C16       1.0  0.18729715418238868  0.351397319670653  0.5869486770390536  1.0000
  C   C17       1.0  0.676876373017727  0.9322860613426727  0.8905652699996764  1.0000
  C   C18       1.0  0.3231239096037157  0.4322869142076016  0.10943473000032358  1.0000
  C   C19       1.0  0.8231260328319863  0.9322866673934271  0.3905647346047161  1.0000
  C   C20       1.0  0.1768762317070056  0.4322857021060855  0.6094352653952839  1.0000
  C   C21       1.0  0.48628328995048514  0.9928250775102754  0.9180540534752452  1.0000
  C   C22       1.0  0.5137150107534082  0.4928283545782364  0.0819459465247547  1.0000
  C   C23       1.0  0.013714869442687  0.9928268956625459  0.4180529826853245  1.0000
  C   C24       1.0  0.9862854131787556  0.4928265364259659  0.5819464819197151  1.0000
  C   C25       1.0  0.3323814464775268  0.9855882254209264  0.980891753846812  1.0000
  C   C26       1.0  0.667620818061465  0.4855890782858551  0.019108781548148095  1.0000
  C   C27       1.0  0.1676246405858421  0.9855888314716807  0.48088961226697075  1.0000
  C   C28       1.0  0.8323835697057973  0.485587866184339  0.5191082461531877  1.0000
  C   C29       1.0  0.0965768602706092  0.1001492815436933  0.9480768613005777  1.0000
  C   C30       1.0  0.9034214404332842  0.6001508528817894  0.05192635106918429  1.0000
  C   C31       1.0  0.4034252629576613  0.1001504936452022  0.44807311353585527  1.0000
  C   C32       1.0  0.5965770015813305  0.6001490347295189  0.5519242094893428  1.0000
  C   C33       1.0  0.2732370629647178  0.1137011825209981  0.8926848986497333  1.0000
  C   C34       1.0  0.7267592558216265  0.6137033599098487  0.1073172429301081  1.0000
  C   C35       1.0  0.2267610964284543  0.1137036067240231  0.3926827570698919  1.0000
  C   C36       1.0  0.7732391861929884  0.6137015417575782  0.607315636745227  1.0000
  C   C37       1.0  0.3802526829686599  0.9241958897874625  0.0379059632290719  1.0000
  C   C38       1.0  0.6197456177352336  0.4241991668554164  0.9620940367709281  1.0000
  C   C39       1.0  0.1197474583420615  0.9241983139904875  0.5379059632290719  1.0000
  C   C40       1.0  0.8802548061969304  0.424196136601637  0.4620940367709281  1.0000
  C   C41       1.0  0.20344185454078456  0.860245413908693  0.0482337320241157  1.0000
  C   C42       1.0  0.796558428080658  0.3602468728243835  0.9517694803456535  1.0000
  C   C43       1.0  0.2965582867699368  0.860245413908693  0.5482305196543464  1.0000
  C   C44       1.0  0.7034439777690551  0.3602456607228675  0.4517668033708446  1.0000
  C   C45       1.0  0.2520662197007368  0.8040851144604204  0.1021977963143428  1.0000
  C   C46       1.0  0.7479360448382549  0.3040871794268654  0.897804880660466  1.0000
  C   C47       1.0  0.2479339216099845  0.8040863265619365  0.6021945839445735  1.0000
  C   C48       1.0  0.7520643790939089  0.3040853612745948  0.3978027390806175  1.0000
  C   C49       1.0  0.47377144446036107  0.8148073644532872  0.1457473578258686  1.0000
  C   C50       1.0  0.5262288381610815  0.3148088233689705  0.8542526421741313  1.0000
  C   C51       1.0  0.026228696850360198  0.8148085765548032  0.6457473578258686  1.0000
  C   C52       1.0  0.9737676219359839  0.3148070052167  0.3542526421741314  1.0000
  C   C53       1.0  0.6396381241797754  0.8802032713875008  0.1330285151356136  1.0000
  C   C54       1.0  0.3603641403592164  0.3802059424047002  0.8669730910492675  1.0000
  C   C55       1.0  0.8603662635874868  0.8802056955905329  0.6330269089507325  1.0000
  C   C56       1.0  0.1396379828690542  0.3802035182016752  0.3669720202593467  1.0000
  N   N1        1.0  0.8372789060531147  0.959944399739932  0.8370835965691865  1.0000
  N   N2        1.0  0.1627193946507788  0.4599458586556224  0.1629153326408925  1.0000
  N   N3        1.0  0.6627215178790493  0.9599462178922096  0.3370841319641471  1.0000
  N   N4        1.0  0.3372787647423934  0.4599446465541064  0.6629164034308133  1.0000
  N   N5        1.0  0.4586771604032052  0.059127523954551  0.8755897375493901  1.0000
  N   N6        1.0  0.5413211403006883  0.5591297013434087  0.12441026245060977  1.0000
  N   N7        1.0  0.041320998989966995  0.0591293421068215  0.3755892021544298  1.0000
  N   N8        1.0  0.9586792836314757  0.5591284892418926  0.6244102624506098  1.0000
  N   N9        1.0  0.1255366395042117  0.0366284956516409  0.9927389735407812  1.0000
  N   N10       1.0  0.8744656250347801  0.5366324911927691  0.0072615618541789  1.0000
  N   N11       1.0  0.3744694475591572  0.0366303138039115  0.49273736735590024  1.0000
  N   N12       1.0  0.6255347988973838  0.5366282488374665  0.5072610264592186  1.0000
  N   N13       1.0  0.5979167778448087  0.9341672428923999  0.0796260801593363  1.0000
  N   N14       1.0  0.402083504776634  0.4341705199603609  0.9203749906305914  1.0000
  N   N15       1.0  0.9020856280049044  0.934169667095432  0.579624473974448  1.0000
  N   N16       1.0  0.09791861845163649  0.4341674897065744  0.4203739198406637  1.0000
  Cl  Cl1       1.0  0.4307123037794653  0.0292037678276174  0.6856749724271578  1.0000
  Cl  Cl2       1.0  0.5692899607595265  0.5292017028611724  0.3143239567829212  1.0000
  Cl  Cl3       1.0  0.069287837531256  0.0292019496753468  0.1856771140069995  1.0000
  Cl  Cl4       1.0  0.9307124450901865  0.529202308911934  0.8143244921778816  1.0000
  Cl  Cl5       1.0  0.9093790845871438  0.1786467937427574  0.7590192635106945  1.0000
  Cl  Cl6       1.0  0.090623179951848  0.6786471529793445  0.2409802010943451  1.0000
  Cl  Cl7       1.0  0.5906213393450201  0.1786486118950279  0.25901979890565485  1.0000
  Cl  Cl8       1.0  0.4093809251939716  0.678646546928583  0.7409802010943449  1.0000
  Cl  Cl9       1.0  0.8802349870214313  0.1495805994369803  0.5640990908993544  1.0000
  Cl  Cl10      1.0  0.11976133176490578  0.6495785344705354  0.435898767520797  1.0000
  Cl  Cl11      1.0  0.6197634549931762  0.1495781752339482  0.0641017678741633  1.0000
  Cl  Cl12      1.0  0.3802368276282664  0.6495803526228059  0.9358998383107248  1.0000
