data_image0
_chemical_formula_structural       Ho2H60C60S6O18
_chemical_formula_sum              "Ho2 H60 C60 S6 O18"
_cell_length_a       11.777890053012499
_cell_length_b       11.777826665864946
_cell_length_c       11.777911259212107
_cell_angle_alpha    79.7950888671168
_cell_angle_beta     79.79429410768718
_cell_angle_gamma    79.79467636830216

_space_group_name_H-M_alt    "P 1"
_space_group_IT_number       1

loop_
  _space_group_symop_operation_xyz
  'x, y, z'

loop_
  _atom_site_type_symbol
  _atom_site_label
  _atom_site_symmetry_multiplicity
  _atom_site_fract_x
  _atom_site_fract_y
  _atom_site_fract_z
  _atom_site_occupancy
  Ho  Ho1       1.0  0.17347588528420493  0.1734794832318087  0.1734834812064605  1.0000
  Ho  Ho2       1.0  0.8265185926292632  0.8265164419702842  0.8265203309849554  1.0000
  H   H1        1.0  0.23571399807519106  0.2758228621417231  0.4432095657145609  1.0000
  H   H2        1.0  0.4432146876805093  0.23569781189330996  0.2758206394954997  1.0000
  H   H3        1.0  0.2758239874635536  0.4432063777418165  0.23571083699424375  1.0000
  H   H4        1.0  0.7642887135468825  0.7241756784135944  0.556793177229814  1.0000
  H   H5        1.0  0.5567849666289818  0.764298111929044  0.7241822576580715  1.0000
  H   H6        1.0  0.7241752737846029  0.5567921642750165  0.7642908176869909  1.0000
  H   H7        1.0  0.3739748372286016  0.2922601249691184  0.5711647634612333  1.0000
  H   H8        1.0  0.5711611715781472  0.37396986513845587  0.2922461614269167  1.0000
  H   H9        1.0  0.29226000657081397  0.5711610715128472  0.37397476107980765  1.0000
  H   H10       1.0  0.6260251548038483  0.7077392886464438  0.42883915503688286  1.0000
  H   H11       1.0  0.4288392154642865  0.6260269321785328  0.707753055534198  1.0000
  H   H12       1.0  0.7077415812056316  0.42883921563823446  0.626024475575349  1.0000
  H   H13       1.0  0.32476815052224595  0.4409512722426072  0.707076939720679  1.0000
  H   H14       1.0  0.7070777444500961  0.3247701470005708  0.4409349821020782  1.0000
  H   H15       1.0  0.4409469876012724  0.7070775014527156  0.3247725409003053  1.0000
  H   H16       1.0  0.6752331747493513  0.5590507599200478  0.2929228838599087  1.0000
  H   H17       1.0  0.29292131102346275  0.6752240333943861  0.5590632349114131  1.0000
  H   H18       1.0  0.5590528747098346  0.2929227861582788  0.6752270007674711  1.0000
  H   H19       1.0  0.13968246900559927  0.5777386596013585  0.7081047456140865  1.0000
  H   H20       1.0  0.708105838547944  0.1396882352973279  0.577722025544908  1.0000
  H   H21       1.0  0.5777335400668804  0.7081071660786263  0.1396845942151543  1.0000
  H   H22       1.0  0.860320525836208  0.4222694795473813  0.2918962501144761  1.0000
  H   H23       1.0  0.29190118701586  0.8603103043790482  0.4222791057237316  1.0000
  H   H24       1.0  0.4222663228009866  0.2918931220740503  0.8603132491642426  1.0000
  H   H25       1.0  0.06375923410159602  0.3783164930414883  0.8701295530026911  1.0000
  H   H26       1.0  0.8701298250282294  0.06375565914073182  0.3783185429951175  1.0000
  H   H27       1.0  0.3783141885246267  0.870127545937855  0.06375848983967099  1.0000
  H   H28       1.0  0.9362402362616961  0.6216864138473639  0.1298653496159901  1.0000
  H   H29       1.0  0.129872811654117  0.9362376468806559  0.6216817425350953  1.0000
  H   H30       1.0  0.6216840246527724  0.12987797802120582  0.936239568533935  1.0000
  H   H31       1.0  0.919098385388871  0.45795967410688126  0.864140275737057  1.0000
  H   H32       1.0  0.8641422983172686  0.9190963535405814  0.45796277693787607  1.0000
  H   H33       1.0  0.45796526242123303  0.8641380958475011  0.9190949224971589  1.0000
  H   H34       1.0  0.08090048474659993  0.5420414880003435  0.135854192462503  1.0000
  H   H35       1.0  0.1358593450759216  0.08089782589365767  0.5420358317008791  1.0000
  H   H36       1.0  0.5420363250768362  0.1358621910327358  0.08090516330219091  1.0000
  H   H37       1.0  0.9442866020194246  0.2998851213274563  0.87263744761524  1.0000
  H   H38       1.0  0.8726391225590222  0.9442806686090818  0.2998896952919381  1.0000
  H   H39       1.0  0.29988576156002733  0.8726361883818113  0.944282038493739  1.0000
  H   H40       1.0  0.055712267559293635  0.700116040238086  0.12735871887269926  1.0000
  H   H41       1.0  0.1273632524535984  0.05571438323641329  0.700108629731126  1.0000
  H   H42       1.0  0.7001129752351788  0.12736584419987204  0.05571909174996383  1.0000
  H   H43       1.0  0.7810228030194466  0.2813424846833925  0.028549609513369503  1.0000
  H   H44       1.0  0.02855880032829822  0.781022795878755  0.28133790809260967  1.0000
  H   H45       1.0  0.28133283429286854  0.028552924680148802  0.7810290426152093  1.0000
  H   H46       1.0  0.218975204940115  0.7186586781954816  0.9714433129041139  1.0000
  H   H47       1.0  0.9714456392645233  0.2189757466542517  0.7186568875414351  1.0000
  H   H48       1.0  0.7186680965255053  0.9714517243227687  0.21897378421399333  1.0000
  H   H49       1.0  0.7470743931081929  0.4308061623494979  0.05777775500236264  1.0000
  H   H50       1.0  0.05778257843964237  0.747073809075481  0.43080055330066347  1.0000
  H   H51       1.0  0.430794087360333  0.05778105221134669  0.7470784378788196  1.0000
  H   H52       1.0  0.2529243456356697  0.5691958721280983  0.9422174312320024  1.0000
  H   H53       1.0  0.9422223867196493  0.2529212439760542  0.5691913701941402  1.0000
  H   H54       1.0  0.5692029228560216  0.9422209797468781  0.2529263939542615  1.0000
  H   H55       1.0  0.7750399431741359  0.3122030636973037  0.17413261716286135  1.0000
  H   H56       1.0  0.1741435062807213  0.7750438882984201  0.3121993555114527  1.0000
  H   H57       1.0  0.31219414833269354  0.17413624276716172  0.7750498531818764  1.0000
  H   H58       1.0  0.22495594598037635  0.6878007175651176  0.8258602169390912  1.0000
  H   H59       1.0  0.8258590767335292  0.22495552733571592  0.6877956140258235  1.0000
  H   H60       1.0  0.687807569721855  0.8258631709301697  0.22495206201524098  1.0000
  C   C1        1.0  0.05307238026733781  0.3243492182871961  0.3437586428066198  1.0000
  C   C2        1.0  0.343765482906285  0.0530542264706426  0.3243518990877732  1.0000
  C   C3        1.0  0.32434402852002353  0.34376003048028986  0.053067909372615005  1.0000
  C   C4        1.0  0.946932790666537  0.6756501963862148  0.6562367183559203  1.0000
  C   C5        1.0  0.656235895476648  0.9469416955375822  0.6756549387741302  1.0000
  C   C6        1.0  0.675649400487558  0.6562428758515039  0.9469348539437518  1.0000
  C   C7        1.0  0.0262187601736201  0.41400287648617967  0.4251069858022944  1.0000
  C   C8        1.0  0.4251044135029431  0.026213595793159097  0.41400891249091387  1.0000
  C   C9        1.0  0.4140094434993101  0.42510122105890247  0.026218246170316217  1.0000
  C   C10       1.0  0.9737812885890946  0.5859904304959258  0.5748929081026475  1.0000
  C   C11       1.0  0.5748978281694194  0.9737823265267948  0.5859960745763002  1.0000
  C   C12       1.0  0.5859941319689527  0.5748973203498408  0.9737809476909901  1.0000
  C   C13       1.0  0.10655484586125402  0.42022367981937947  0.4985938304294065  1.0000
  C   C14       1.0  0.4985968287320475  0.10654951073779982  0.42021898102567684  1.0000
  C   C15       1.0  0.4202210382620848  0.498594365857251  0.10655399133841569  1.0000
  C   C16       1.0  0.8934466110803359  0.5797774802437557  0.5014044259721756  1.0000
  C   C17       1.0  0.5014054143322042  0.8934464129363775  0.5797817603205786  1.0000
  C   C18       1.0  0.5797757111196873  0.5014094127376153  0.8934463325549514  1.0000
  C   C19       1.0  0.2143273359212472  0.3423011721238893  0.5006127964608424  1.0000
  C   C20       1.0  0.500612687349637  0.21431619349539946  0.34229357334645266  1.0000
  C   C21       1.0  0.34230170303997914  0.5006120925495167  0.21432770723500028  1.0000
  C   C22       1.0  0.7856729952260579  0.65770173263909  0.4993878976608599  1.0000
  C   C23       1.0  0.49939075672700994  0.7856832202837084  0.6577063385496587  1.0000
  C   C24       1.0  0.6576980273227592  0.49938906689016  0.7856742507559672  1.0000
  C   C25       1.0  0.2909193689731921  0.3506891519661793  0.5732195282836018  1.0000
  C   C26       1.0  0.5732107843172544  0.2909145399034259  0.350683639643826  1.0000
  C   C27       1.0  0.3506857752978334  0.5732227034328403  0.2909169091622701  1.0000
  C   C28       1.0  0.7090818246284059  0.6493137522960025  0.426781862475984  1.0000
  C   C29       1.0  0.42678947049842725  0.709083128971393  0.6493188427846732  1.0000
  C   C30       1.0  0.6493124378795657  0.42678282052622046  0.7090811492113359  1.0000
  C   C31       1.0  0.2636058560145145  0.43604641298293956  0.6493330583629415  1.0000
  C   C32       1.0  0.6493290524437542  0.2636022959283295  0.4360414532115726  1.0000
  C   C33       1.0  0.4360463316059295  0.6493327062931158  0.263607813785292  1.0000
  C   C34       1.0  0.7363949984722282  0.5639530001318179  0.35067155677305095  1.0000
  C   C35       1.0  0.3506673581015464  0.7363979917899571  0.5639612459140153  1.0000
  C   C36       1.0  0.563951150230416  0.3506719455255406  0.7363896790598119  1.0000
  C   C37       1.0  0.16070533100513273  0.5120581942929688  0.6500431764075216  1.0000
  C   C38       1.0  0.6500463731580197  0.1607050830872723  0.512049501766974  1.0000
  C   C39       1.0  0.512050365198924  0.6500477660367707  0.1607023454894971  1.0000
  C   C40       1.0  0.839302841067827  0.48794994428855887  0.3499543568506097  1.0000
  C   C41       1.0  0.3499593202801563  0.8392908391253826  0.48795232784242865  1.0000
  C   C42       1.0  0.4879455228420824  0.34995601414227906  0.8392938851892282  1.0000
  C   C43       1.0  0.07920017657870913  0.5078913810166696  0.5750337596982361  1.0000
  C   C44       1.0  0.5750436155855567  0.0791980302847506  0.5078893909681597  1.0000
  C   C45       1.0  0.5078903445826485  0.575035209337301  0.0791992976670244  1.0000
  C   C46       1.0  0.9208067944818624  0.4921132674599278  0.42496460301004657  1.0000
  C   C47       1.0  0.4249620781309958  0.920797892198749  0.4921115894970569  1.0000
  C   C48       1.0  0.49210925550198686  0.424966823556119  0.9207999817819896  1.0000
  C   C49       1.0  0.9703196169847814  0.3755262371436743  0.8981882444871018  1.0000
  C   C50       1.0  0.8981851146215547  0.9703159255303148  0.37553059309428954  1.0000
  C   C51       1.0  0.3755283275285137  0.8981842073214565  0.970317870554176  1.0000
  C   C52       1.0  0.029678519582610398  0.6244740506563815  0.1018124513374801  1.0000
  C   C53       1.0  0.1018113520972435  0.029678255012818493  0.6244697797265104  1.0000
  C   C54       1.0  0.6244721347320308  0.10181782480032096  0.029682954676907503  1.0000
  C   C55       1.0  0.7962845363861107  0.3439600227055379  0.08075733292962892  1.0000
  C   C56       1.0  0.08076728742115341  0.7962836258141481  0.3439562379075838  1.0000
  C   C57       1.0  0.3439516921156809  0.0807608410973302  0.796293374235283  1.0000
  C   C58       1.0  0.20371101476705894  0.6560402684928376  0.9192353289719719  1.0000
  C   C59       1.0  0.919236945283565  0.20371055401359686  0.6560385166354834  1.0000
  C   C60       1.0  0.6560487679178381  0.9192411888576826  0.2037142441493315  1.0000
  S   S1        1.0  0.9477373245949039  0.3584790575711807  0.054244694090293345  1.0000
  S   S2        1.0  0.054247530033102065  0.9477381552113612  0.3584749464336383  1.0000
  S   S3        1.0  0.35847189509848215  0.0542440454479802  0.947747345956671  1.0000
  S   S4        1.0  0.052255113350554404  0.641524724340222  0.9457495991810844  1.0000
  S   S5        1.0  0.9457522576166468  0.05225689813653389  0.6415212886757828  1.0000
  S   S6        1.0  0.6415249817776074  0.945758856984696  0.05226414792056027  1.0000
  O   O1        1.0  0.12286087459690263  0.3487143893456093  0.2488591497930273  1.0000
  O   O2        1.0  0.2488656391953299  0.12284502096778738  0.34869975624491184  1.0000
  O   O3        1.0  0.3487069401878813  0.2488576409952047  0.12285736082898069  1.0000
  O   O4        1.0  0.877141259460892  0.6512937519289962  0.7511360544325071  1.0000
  O   O5        1.0  0.7511342784541455  0.877149158655527  0.651300006550656  1.0000
  O   O6        1.0  0.6512888712431106  0.7511409030248329  0.8771415073007204  1.0000
  O   O7        1.0  0.008129041571706413  0.23175548538632276  0.369244484591789  1.0000
  O   O8        1.0  0.3692502027813235  0.0080908594075879  0.23176598112645758  1.0000
  O   O9        1.0  0.2317538497713444  0.36924803708372156  0.008119005509939811  1.0000
  O   O10       1.0  0.9918814368714235  0.7682430552661402  0.6307500926422875  1.0000
  O   O11       1.0  0.6307499748675982  0.9919015727665438  0.7682408370414038  1.0000
  O   O12       1.0  0.76823434583158  0.6307609769904302  0.991889546581632  1.0000
  O   O13       1.0  0.008284977142196205  0.2350877741895161  0.09290138563037692  1.0000
  O   O14       1.0  0.09289953928659143  0.0082907351271686  0.235082189718554  1.0000
  O   O15       1.0  0.2350813430644862  0.09290023953521137  0.008296017607065704  1.0000
  O   O16       1.0  0.9917090540418487  0.7649168788198111  0.9070958680957729  1.0000
  O   O17       1.0  0.9070998550234535  0.991706936144368  0.7649136520627238  1.0000
  O   O18       1.0  0.7649123470560472  0.9071009204307855  0.9917104045048288  1.0000
