data_image0
_chemical_formula_structural       K4H20C16O24
_chemical_formula_sum              "K4 H20 C16 O24"
_cell_length_a       7.603364932007131
_cell_length_b       7.742512202000789
_cell_length_c       10.795569114010336
_cell_angle_alpha    89.99996089998577
_cell_angle_beta     90.00015317023629
_cell_angle_gamma    89.99996485439182

_space_group_name_H-M_alt    "P 1"
_space_group_IT_number       1

loop_
  _space_group_symop_operation_xyz
  'x, y, z'

loop_
  _atom_site_type_symbol
  _atom_site_label
  _atom_site_symmetry_multiplicity
  _atom_site_fract_x
  _atom_site_fract_y
  _atom_site_fract_z
  _atom_site_occupancy
  K   K1        1.0  0.1611307702710221  0.6718320186682052  0.5301656509760875  1.0000
  K   K2        1.0  0.33886833958010953  0.3281685627366143  0.030166321253595606  1.0000
  K   K3        1.0  0.6611342277181509  0.828167461593239  0.4698357773210163  1.0000
  K   K4        1.0  0.8388659038307581  0.17182722106902304  0.9698375296526224  1.0000
  H   H1        1.0  0.26186678854128337  0.8184629277395172  0.04964820021675111  1.0000
  H   H2        1.0  0.23813239532648114  0.18153634287025264  0.5496488321743769  1.0000
  H   H3        1.0  0.7618695334870367  0.6815364923602589  0.9503534175784626  1.0000
  H   H4        1.0  0.7381344696570977  0.3184620842390731  0.4503501977070385  1.0000
  H   H5        1.0  0.2212944816950113  0.05229681660053843  0.1957360553822767  1.0000
  H   H6        1.0  0.27870394197030635  0.9477023098555153  0.6957373288699387  1.0000
  H   H7        1.0  0.7212965039535465  0.44770291213478697  0.8042638691302316  1.0000
  H   H8        1.0  0.7787029985622241  0.5522971001907422  0.30426246798297296  1.0000
  H   H9        1.0  0.34800975311505056  0.042011920348500105  0.3637365835322585  1.0000
  H   H10       1.0  0.15198930880015382  0.9579870403317658  0.8637366874978484  1.0000
  H   H11       1.0  0.8480098154351197  0.45798902428057897  0.6362635793475563  1.0000
  H   H12       1.0  0.6519890488299611  0.5420137369616427  0.136262870987153  1.0000
  H   H13       1.0  0.3671890356418147  0.6110172059045027  0.25620716655158304  1.0000
  H   H14       1.0  0.1328122481705449  0.38898186088114534  0.7562065763090546  1.0000
  H   H15       1.0  0.8671895499539845  0.8889808597246046  0.7437946493679777  1.0000
  H   H16       1.0  0.6328110380379857  0.11101921226968162  0.24379225544647917  1.0000
  H   H17       1.0  0.8193464458614911  0.8363044704469118  0.14100749816988414  1.0000
  H   H18       1.0  0.6806537516334645  0.16369441140273724  0.6410061777980333  1.0000
  H   H19       1.0  0.3193481884165764  0.6636949153249818  0.8589942277518008  1.0000
  H   H20       1.0  0.18065348589063754  0.3363066331762142  0.3589918176491055  1.0000
  C   C1        1.0  0.03462959097443271  0.8594224751590076  0.24066616014609118  1.0000
  C   C2        1.0  0.4653782098446868  0.14057919009728442  0.7406727967168935  1.0000
  C   C3        1.0  0.5346276904039727  0.640577080653465  0.7593350301792583  1.0000
  C   C4        1.0  0.9653769022412179  0.35942297600704626  0.2593285132540544  1.0000
  C   C5        1.0  0.22505051080524657  0.920356132931353  0.23305672143899164  1.0000
  C   C6        1.0  0.274949369853232  0.0796429566975263  0.7330583969826492  1.0000
  C   C7        1.0  0.7250486775300616  0.5796433091577813  0.7669439007893076  1.0000
  C   C8        1.0  0.7749480527832305  0.4203580315662166  0.26693977584697853  1.0000
  C   C9        1.0  0.32529414624910663  0.8046701830240794  0.14064670791526626  1.0000
  C   C10       1.0  0.17470406812439174  0.195328997792366  0.6406472140555409  1.0000
  C   C11       1.0  0.8252965367884432  0.6953317823373413  0.859353176582978  1.0000
  C   C12       1.0  0.6747044902237322  0.304670758768765  0.35935169650630894  1.0000
  C   C13       1.0  0.5143630209420778  0.8723380921593034  0.12774342779442802  1.0000
  C   C14       1.0  0.9856358109583142  0.12766209434845882  0.6277445507328779  1.0000
  C   C15       1.0  0.0143661517954214  0.6276614757553248  0.8722577244113552  1.0000
  C   C16       1.0  0.48563425769378926  0.3723387680880921  0.3722549447336547  1.0000
  O   O1        1.0  0.9689476945684065  0.7941048491202595  0.3339821903243987  1.0000
  O   O2        1.0  0.5310506056358548  0.20589513388272004  0.8339768634165807  1.0000
  O   O3        1.0  0.46894867740872576  0.7058957388765422  0.6660207433234646  1.0000
  O   O4        1.0  0.03105226377702761  0.29410341690120845  0.16602085060817023  1.0000
  O   O5        1.0  0.9496124277830236  0.8828862146056625  0.1347995071806665  1.0000
  O   O6        1.0  0.5503864309261531  0.11711396493892323  0.6348016689364401  1.0000
  O   O7        1.0  0.44961422326660744  0.6171156765097267  0.8652015374833514  1.0000
  O   O8        1.0  0.05038747461664881  0.3828871574382974  0.36519608146056737  1.0000
  O   O9        1.0  0.30874394286329493  0.9203185941097658  0.3511941569415527  1.0000
  O   O10       1.0  0.1912550714045622  0.07968037894617912  0.8511956750274836  1.0000
  O   O11       1.0  0.8087456063690439  0.579682089565125  0.6488066227289837  1.0000
  O   O12       1.0  0.6912546207522965  0.42032065930056467  0.14880419297398362  1.0000
  O   O13       1.0  0.31415971946031374  0.6278141365822095  0.17292850178668573  1.0000
  O   O14       1.0  0.18584124797075677  0.37218630394906443  0.6729298718276057  1.0000
  O   O15       1.0  0.8141605607365039  0.8721852522880482  0.8270722880712285  1.0000
  O   O16       1.0  0.685841658843515  0.12781473753068442  0.3270699859905051  1.0000
  O   O17       1.0  0.6404585679312403  0.7636420614133428  0.14157239367111174  1.0000
  O   O18       1.0  0.8595390012956587  0.2363581114499809  0.641571375563885  1.0000
  O   O19       1.0  0.14046026256162492  0.7363574311949963  0.8584280694310211  1.0000
  O   O20       1.0  0.3595387791850016  0.26364282629410246  0.3584278826978605  1.0000
  O   O21       1.0  0.535965524285807  0.03136428400596001  0.1071268545632691  1.0000
  O   O22       1.0  0.9640332292922908  0.968637214415189  0.6071293931211557  1.0000
  O   O23       1.0  0.035965888242124315  0.4686342638412314  0.892874573929767  1.0000
  O   O24       1.0  0.4640332843661526  0.5313633765178308  0.39287167866910994  1.0000
