data_image0
_chemical_formula_structural       Al2H16C28Cl4O10
_chemical_formula_sum              "Al2 H16 C28 Cl4 O10"
_cell_length_a       6.877817743834727
_cell_length_b       11.157084438977291
_cell_length_c       15.134299150251264
_cell_angle_alpha    84.38930482094634
_cell_angle_beta     79.91142917786969
_cell_angle_gamma    71.29054920771658

_space_group_name_H-M_alt    "P 1"
_space_group_IT_number       1

loop_
  _space_group_symop_operation_xyz
  'x, y, z'

loop_
  _atom_site_type_symbol
  _atom_site_label
  _atom_site_symmetry_multiplicity
  _atom_site_fract_x
  _atom_site_fract_y
  _atom_site_fract_z
  _atom_site_occupancy
  Al  Al1       1.0  0.5019729483007607  0.5013124986928686  0.5001750294893766  1.0000
  Al  Al2       1.0  0.0036059951075201437  0.49891096937486173  0.500615629107223  1.0000
  H   H1        1.0  0.3081935200944557  0.35389459136919754  0.5627654536830844  1.0000
  H   H2        1.0  0.7044643919552201  0.6488090875291875  0.44277124339113527  1.0000
  H   H3        1.0  0.8482778273901699  0.49247662350061466  0.9527711268873346  1.0000
  H   H4        1.0  0.15717357283092045  0.49730729001285584  0.048342316737638696  1.0000
  H   H5        1.0  0.6513321183608479  0.5027442404224588  0.2451257110331468  1.0000
  H   H6        1.0  0.7639162728804934  0.5025627546707624  0.08113386827263719  1.0000
  H   H7        1.0  0.34500351130785106  0.5092615876165923  0.7545099919940198  1.0000
  H   H8        1.0  0.23132672583622588  0.5092708634291228  0.9185294226962666  1.0000
  H   H9        1.0  0.19276857207204753  0.2375385115884043  0.37641773726019057  1.0000
  H   H10       1.0  0.41691411834316444  0.7667634281236747  0.3796985877856328  1.0000
  H   H11       1.0  0.03456507266520227  0.5864634055040627  0.803744889833595  1.0000
  H   H12       1.0  0.06488754412240622  0.4875548393828313  0.7146129853742379  1.0000
  H   H13       1.0  0.1203540275645664  0.41979460333809027  0.8227670200244785  1.0000
  H   H14       1.0  0.8830408531701718  0.5779294841696514  0.17960820802066726  1.0000
  H   H15       1.0  0.9393546684387957  0.5079409698155785  0.28674152384964907  1.0000
  H   H16       1.0  0.9671753858817025  0.41094737422285726  0.19634751710574957  1.0000
  C   C1        1.0  0.8611676716313568  0.2765218625544321  0.4936290217722714  1.0000
  C   C2        1.0  0.6978146401906713  0.5039571442733433  0.6603825142959605  1.0000
  C   C3        1.0  0.14078296834738757  0.724472255939567  0.5045550251581331  1.0000
  C   C4        1.0  0.3052558108231194  0.49716520919467655  0.33988554944557586  1.0000
  C   C5        1.0  0.652762852290131  0.5043081688341716  0.7605875051894415  1.0000
  C   C6        1.0  0.348173939030616  0.4983272956792605  0.23978460539253627  1.0000
  C   C7        1.0  0.7967176853656921  0.4999673351148957  0.8175983675723015  1.0000
  C   C8        1.0  0.7323163961509279  0.497465169332628  0.9106590506278919  1.0000
  C   C9        1.0  0.2061798045297251  0.4974770668713901  0.18324192333415817  1.0000
  C   C10       1.0  0.2708409905066631  0.49783842386729293  0.0901506292438015  1.0000
  C   C11       1.0  0.5466787737124791  0.5008078115495492  0.19989718001018988  1.0000
  C   C12       1.0  0.607517566212927  0.500719659482769  0.10784920158786088  1.0000
  C   C13       1.0  0.45155276385502663  0.5066909773023909  0.8000779092661572  1.0000
  C   C14       1.0  0.3903880922902515  0.5059580804248539  0.8921642005101018  1.0000
  C   C15       1.0  0.5310759781265019  0.5008031847592562  0.9507650349517859  1.0000
  C   C16       1.0  0.46955684291864924  0.4993301545206422  0.049633175815579  1.0000
  C   C17       1.0  0.9333008154133607  0.1345104798156385  0.49480715659375113  1.0000
  C   C18       1.0  0.11905953503303118  0.06912718432788982  0.43807399852569506  1.0000
  C   C19       1.0  0.821651335531193  0.06719282340951338  0.5526938944555937  1.0000
  C   C20       1.0  0.23955922563399665  0.13454580757997547  0.3792842653613278  1.0000
  C   C21       1.0  0.4209267620071556  0.06974003137944608  0.3263992448114763  1.0000
  C   C22       1.0  0.06760821402365  0.8665651714124467  0.5004260237893374  1.0000
  C   C23       1.0  0.8896525678477398  0.9322454717649364  0.5559457470688541  1.0000
  C   C24       1.0  0.18565222108306734  0.9333498208611958  0.4402392425627894  1.0000
  C   C25       1.0  0.367594699505581  0.8694209047751115  0.38213797367485813  1.0000
  C   C26       1.0  0.48562875038557946  0.9350178089565658  0.3277645567487752  1.0000
  C   C27       1.0  0.016485936373264502  0.497361083958893  0.786703844607892  1.0000
  C   C28       1.0  0.9870733457289802  0.49893061252713267  0.21454676242852597  1.0000
  Cl  Cl1       1.0  0.7549112894415654  0.8523747539464426  0.6328156747840195  1.0000
  Cl  Cl2       1.0  0.6065562078728561  0.1441025474737998  0.6267895373865355  1.0000
  Cl  Cl3       1.0  0.5664747732093004  0.1531839394210124  0.2590372940123942  1.0000
  Cl  Cl4       1.0  0.7118518836854264  0.8519443552160054  0.26248067828842636  1.0000
  O   O1        1.0  0.6777718227816718  0.3320096126281697  0.47760232659666707  1.0000
  O   O2        1.0  0.8667405689904227  0.5219225347522568  0.6206621303935406  1.0000
  O   O3        1.0  0.01478342868768564  0.6696290566469685  0.489611942195161  1.0000
  O   O4        1.0  0.4367175707078984  0.5221535877833503  0.3795923931548657  1.0000
  O   O5        1.0  0.32550371279440776  0.6716301245435333  0.5204278909533568  1.0000
  O   O6        1.0  0.1421806789592138  0.4721480012897031  0.3802175047837081  1.0000
  O   O7        1.0  0.9908414186089232  0.32856068805543254  0.5090760504379901  1.0000
  O   O8        1.0  0.5621656989379742  0.4842344322533164  0.6205102187934628  1.0000
  O   O9        1.0  0.2685121123691728  0.4418843576005855  0.5408807427933622  1.0000
  O   O10       1.0  0.7384066870856781  0.5589657229732127  0.45932608995973817  1.0000
