data_image0
_chemical_formula_structural       Mg6H39C72O18F3
_chemical_formula_sum              "Mg6 H39 C72 O18 F3"
_cell_length_a       6.840146976747187
_cell_length_b       37.58275214152743
_cell_length_c       37.578339375603896
_cell_angle_alpha    119.63373925904197
_cell_angle_beta     93.47519919995862
_cell_angle_gamma    93.46277226060414

_space_group_name_H-M_alt    "P 1"
_space_group_IT_number       1

loop_
  _space_group_symop_operation_xyz
  'x, y, z'

loop_
  _atom_site_type_symbol
  _atom_site_label
  _atom_site_symmetry_multiplicity
  _atom_site_fract_x
  _atom_site_fract_y
  _atom_site_fract_z
  _atom_site_occupancy
  Mg  Mg1       1.0  0.1500378168039731  0.6925085319685566  0.3294257507607198  1.0000
  Mg  Mg2       1.0  0.25422403697857743  0.3054882559453348  0.6670479365642591  1.0000
  Mg  Mg3       1.0  0.45757153129641653  0.6369306338039352  0.30751765603918096  1.0000
  Mg  Mg4       1.0  0.9487767267290156  0.3615134838992375  0.6944926552855362  1.0000
  Mg  Mg5       1.0  0.8204434114815842  0.6705932078787599  0.3630888851499775  1.0000
  Mg  Mg6       1.0  0.5871599617414349  0.33297780743036054  0.6384727231174522  1.0000
  H   H1        1.0  0.35298285824110576  0.4975034216463502  0.9873778704512687  1.0000
  H   H2        1.0  0.5160839185582234  0.5344753097494817  0.058178109867284854  1.0000
  H   H3        1.0  0.053369323279611074  0.48154390561541055  0.011869968350850947  1.0000
  H   H4        1.0  0.06494514583440035  0.5305394042221963  0.08245009839957611  1.0000
  H   H5        1.0  0.6687658901731766  0.5523267444331452  0.11855362409989555  1.0000
  H   H6        1.0  0.684354058199965  0.5814049921631579  0.191311465609516  1.0000
  H   H7        1.0  0.40353999330864104  0.6194768675740789  0.20775177167597983  1.0000
  H   H8        1.0  0.22851445026221745  0.5776457109796314  0.13798597290006842  1.0000
  H   H9        1.0  0.33901098253139156  0.4496690396500328  0.9181189340617092  1.0000
  H   H10       1.0  0.7323284266942383  0.43069786645359903  0.880222212112521  1.0000
  H   H11       1.0  0.7173006274736624  0.4065025049143571  0.8094379867805725  1.0000
  H   H12       1.0  0.9973336769241004  0.3686041990090628  0.7900300179556508  1.0000
  H   H13       1.0  0.16957772800375895  0.40609824380432263  0.8603374874270883  1.0000
  H   H14       1.0  0.8553316836009232  0.48992653000991043  0.5024563457936535  1.0000
  H   H15       1.0  0.9818864542645475  0.5237476815058387  0.46550557433450007  1.0000
  H   H16       1.0  0.57174482271369  0.5302651046027195  0.5184585005433248  1.0000
  H   H17       1.0  0.5343034129198118  0.5519035750409245  0.4693910275693297  1.0000
  H   H18       1.0  0.11607606072006155  0.5662006603008011  0.44772579947088775  1.0000
  H   H19       1.0  0.10230664135093548  0.609837720708363  0.4185536042130663  1.0000
  H   H20       1.0  0.7836193053418444  0.588228762762853  0.3804964853125623  1.0000
  H   H21       1.0  0.6503029331349737  0.5602939229511819  0.4223182350060666  1.0000
  H   H22       1.0  0.8891706404869172  0.46842698345402317  0.5503207899445213  1.0000
  H   H23       1.0  0.30135972521203774  0.4495195228557592  0.569370202745091  1.0000
  H   H24       1.0  0.3105976069069314  0.40300433658872953  0.5935534546447909  1.0000
  H   H25       1.0  0.6283005183517005  0.4213756997735274  0.631439389911641  1.0000
  H   H26       1.0  0.7629247511823183  0.45421498843191443  0.5939458511390397  1.0000
  H   H27       1.0  0.3653924310682371  0.012580831362910798  0.5100664647627013  1.0000
  H   H28       1.0  0.4582109982637803  0.9418339456922168  0.4762624210838451  1.0000
  H   H29       1.0  0.041583410102575324  0.988219564040954  0.4697238107870376  1.0000
  H   H30       1.0  0.9823233000217186  0.9174536303248647  0.44807323510937624  1.0000
  H   H31       1.0  0.5498342356610451  0.8815474458358566  0.4338829469519181  1.0000
  H   H32       1.0  0.49247907297104393  0.8087165706653894  0.39018871724618964  1.0000
  H   H33       1.0  0.19542942279203857  0.7922431300828592  0.4116934310675188  1.0000
  H   H34       1.0  0.09004655041689347  0.8619782605506003  0.43964370299077843  1.0000
  H   H35       1.0  0.42041065136694306  0.08190250557426282  0.5315436592183289  1.0000
  H   H36       1.0  0.8515474783138829  0.11978025829954222  0.5504550765490774  1.0000
  H   H37       1.0  0.9074928495775441  0.19050683957147643  0.5970137772012406  1.0000
  H   H38       1.0  0.2070734739118835  0.21011937874253317  0.578591855741763  1.0000
  H   H39       1.0  0.3087485751063213  0.13977577939868988  0.5457597970832495  1.0000
  C   C1        1.0  0.8051159616407519  0.46628573492125025  0.9678262245175089  1.0000
  C   C2        1.0  0.605981449232168  0.46901522968490655  0.9584698589560147  1.0000
  C   C3        1.0  0.5071697970692314  0.49403277780575666  0.9931322168852005  1.0000
  C   C4        1.0  0.5988330753674163  0.514619638321463  0.03301301239331875  1.0000
  C   C5        1.0  0.7985997569899369  0.5109953377050332  0.041241763946814496  1.0000
  C   C6        1.0  0.8996636310884797  0.4859934194438651  0.007323125719253055  1.0000
  C   C7        1.0  0.9056322526643047  0.5321002293280302  0.08205324918441186  1.0000
  C   C8        1.0  0.8288064434277518  0.5526847558201169  0.1184284877986953  1.0000
  C   C9        1.0  0.9401425719613529  0.576081021729884  0.158809633362658  1.0000
  C   C10       1.0  0.8424063339447871  0.5897368848798125  0.19418806580376463  1.0000
  C   C11       1.0  0.9388981764008477  0.6138856264665195  0.23419331347169955  1.0000
  C   C12       1.0  0.14629128807373362  0.625663628165235  0.23951260131595115  1.0000
  C   C13       1.0  0.24533272247924026  0.6108023801298613  0.20360155276350858  1.0000
  C   C14       1.0  0.14615317643886536  0.5871046771043283  0.16469594056709969  1.0000
  C   C15       1.0  0.819817173803884  0.6255120332246521  0.26902744804157647  1.0000
  C   C16       1.0  0.49850700281846383  0.44867923022715683  0.9178032269356533  1.0000
  C   C17       1.0  0.5730485571206005  0.43011083838110414  0.8809256356800855  1.0000
  C   C18       1.0  0.4598179487094712  0.4091810099584094  0.8406829209397768  1.0000
  C   C19       1.0  0.5589412970430702  0.3981112049262522  0.8058212880517671  1.0000
  C   C20       1.0  0.46369545033636694  0.3768298373851239  0.7655645404269219  1.0000
  C   C21       1.0  0.25588583192438824  0.36511454889866  0.7593156019666905  1.0000
  C   C22       1.0  0.1557300027585455  0.3772001290311593  0.7948272121484263  1.0000
  C   C23       1.0  0.2534606669658076  0.3983955130252213  0.8340947305193963  1.0000
  C   C24       1.0  0.5846390427202837  0.3684663214111056  0.7316401057086422  1.0000
  C   C25       1.0  0.3386195411824816  0.5014540118537668  0.5336398931481268  1.0000
  C   C26       1.0  0.1367615468387342  0.48939138025517087  0.5309212524688645  1.0000
  C   C27       1.0  0.013030023221745032  0.4990860342594132  0.5059262233012374  1.0000
  C   C28       1.0  0.08427452023046557  0.5183929326474016  0.4853602266821466  1.0000
  C   C29       1.0  0.2876814490879625  0.5302308344113129  0.4889929254164754  1.0000
  C   C30       1.0  0.41361562710361005  0.5212741942080683  0.5139751864780064  1.0000
  C   C31       1.0  0.3734552819573694  0.5499521045117746  0.46788423515202016  1.0000
  C   C32       1.0  0.2757558838042726  0.565719012981809  0.447314531352127  1.0000
  C   C33       1.0  0.3634776983385493  0.5826533871319626  0.4238604905540554  1.0000
  C   C34       1.0  0.2520281587436983  0.604357377044849  0.4101915225790122  1.0000
  C   C35       1.0  0.32445450753496635  0.6202088519406815  0.3860379390340896  1.0000
  C   C36       1.0  0.5201757815996474  0.6137799983029453  0.3742869146277385  1.0000
  C   C37       1.0  0.634007900570822  0.5927198526012846  0.3891396829891675  1.0000
  C   C38       1.0  0.5584736739565275  0.5775151603579475  0.4128351529365587  1.0000
  C   C39       1.0  0.19397030956689315  0.643483328608454  0.37446540299767134  1.0000
  C   C40       1.0  0.049632923580467996  0.46908810397729184  0.551293389198598  1.0000
  C   C41       1.0  0.14265144024400916  0.4508229517892703  0.5699175699291386  1.0000
  C   C42       1.0  0.05030045063889333  0.4315392948256972  0.5908757561407822  1.0000
  C   C43       1.0  0.1606005339756608  0.4077693740730838  0.6019600769010081  1.0000
  C   C44       1.0  0.08675491958185692  0.3887780736895651  0.6232329116428017  1.0000
  C   C45       1.0  0.8906050551751294  0.39420698873367144  0.6349314546626131  1.0000
  C   C46       1.0  0.778217771109752  0.417622693881107  0.6228579856156171  1.0000
  C   C47       1.0  0.8546936205532631  0.4357080578676785  0.6016610154300677  1.0000
  C   C48       1.0  0.21615171228265245  0.3632055736309354  0.6315574705853348  1.0000
  C   C49       1.0  0.8370254234745932  0.03219503165645681  0.4984583558043879  1.0000
  C   C50       1.0  0.6472001508571241  0.04154773599933749  0.5105354644037375  1.0000
  C   C51       1.0  0.513878761760495  0.0068718247636426  0.5008724414239225  1.0000
  C   C52       1.0  0.5659108096470788  0.9670130553595017  0.48159344851335806  1.0000
  C   C53       1.0  0.7574903511572304  0.9587883629334473  0.46976143830945444  1.0000
  C   C54       1.0  0.8923514279141145  0.9927128754437576  0.47868516745211986  1.0000
  C   C55       1.0  0.8234643321719235  0.9179405099776973  0.45006437207439354  1.0000
  C   C56       1.0  0.7100068293491902  0.8816142885062846  0.4343306023849677  1.0000
  C   C57       1.0  0.7807983282861601  0.8412073829953357  0.4173563404861651  1.0000
  C   C58       1.0  0.6476905086399539  0.8058414688279852  0.39565599710935095  1.0000
  C   C59       1.0  0.7042844193487242  0.7658376950592328  0.3797768379437725  1.0000
  C   C60       1.0  0.9064092817690225  0.7604976223562474  0.3861949605027559  1.0000
  C   C61       1.0  0.04130329574989134  0.796392484924937  0.4072155345758758  1.0000
  C   C62       1.0  0.9809293116935721  0.8352945499967748  0.42244197655666216  1.0000
  C   C63       1.0  0.5505310864436054  0.7310080645566186  0.3565267412450549  1.0000
  C   C64       1.0  0.5802525879582064  0.0822192692319561  0.5308671651211654  1.0000
  C   C65       1.0  0.6915884415296248  0.1190894904338649  0.5491655884652856  1.0000
  C   C66       1.0  0.6186939281120943  0.15934446456554952  0.5684609120395406  1.0000
  C   C67       1.0  0.7527890004264678  0.1941735863390335  0.592242145500279  1.0000
  C   C68       1.0  0.697992846800098  0.23444421179254962  0.6112238028047585  1.0000
  C   C69       1.0  0.49644643474351124  0.24073598576499933  0.6057787116198128  1.0000
  C   C70       1.0  0.3606827782099416  0.20526825509880103  0.5823460613577608  1.0000
  C   C71       1.0  0.41900221273539273  0.16598308041304222  0.5642688504543613  1.0000
  C   C72       1.0  0.8529358416036462  0.2683396829225159  0.6367948350661973  1.0000
  O   O1        1.0  0.6399446496044947  0.6112659687573229  0.2632450234117129  1.0000
  O   O2        1.0  0.9025153860739438  0.6509053246965311  0.30582992458887753  1.0000
  O   O3        1.0  0.2503036523849859  0.6500081010772903  0.276209742998489  1.0000
  O   O4        1.0  0.7649526936854231  0.38282474077154666  0.7387845204201112  1.0000
  O   O5        1.0  0.5032696572868218  0.3459527050261927  0.6941702791469879  1.0000
  O   O6        1.0  0.15273643505015144  0.34348294585770844  0.7221178714137435  1.0000
  O   O7        1.0  0.028336108491565353  0.6519635198394269  0.3887266167083394  1.0000
  O   O8        1.0  0.251556132637667  0.6549381509879596  0.349119290169014  1.0000
  O   O9        1.0  0.6000622225669189  0.6261977402814197  0.3500005510805904  1.0000
  O   O10       1.0  0.38211996422897004  0.3560205722198548  0.6171891677173774  1.0000
  O   O11       1.0  0.15739533947984094  0.3482030879155218  0.6540416011701209  1.0000
  O   O12       1.0  0.8091146366644113  0.37859095027006623  0.6565227253141542  1.0000
  O   O13       1.0  0.3764831585401538  0.7367955387968336  0.34802333269993085  1.0000
  O   O14       1.0  0.5965293934315028  0.6942033701192686  0.3450997341722937  1.0000
  O   O15       1.0  0.9738257914286806  0.7237937059156535  0.37379256109440434  1.0000
  O   O16       1.0  0.026123593877791486  0.2611695226445719  0.6439869229923615  1.0000
  O   O17       1.0  0.8090982024082509  0.3058190536889498  0.6517846874885789  1.0000
  O   O18       1.0  0.4305822175535284  0.2779456143952643  0.6214019289763185  1.0000
  F   F1        1.0  0.9148366178538299  0.4425196612170481  0.9366412559155533  1.0000
  F   F2        1.0  0.4719204153034228  0.49398465761062493  0.5573810682190724  1.0000
  F   F3        1.0  0.9777356256595628  0.06339777545858281  0.5058902510157068  1.0000
