data_image0
_chemical_formula_structural       Na4H64C40O18
_chemical_formula_sum              "Na4 H64 C40 O18"
_cell_length_a       4.916779919946339
_cell_length_b       14.179702198844991
_cell_length_c       16.98
_cell_angle_alpha    100.89755134468786
_cell_angle_beta     98.65505024814001
_cell_angle_gamma    89.936837114929

_space_group_name_H-M_alt    "P 1"
_space_group_IT_number       1

loop_
  _space_group_symop_operation_xyz
  'x, y, z'

loop_
  _atom_site_type_symbol
  _atom_site_label
  _atom_site_symmetry_multiplicity
  _atom_site_fract_x
  _atom_site_fract_y
  _atom_site_fract_z
  _atom_site_occupancy
  Na  Na1       1.0  0.10848298187672609  0.129314493696107  0.030453067839196987  1.0000
  Na  Na2       1.0  0.9231936933109424  0.6291732869117368  0.030588483822050695  1.0000
  Na  Na3       1.0  0.8915302394707538  0.8706825774620199  0.969548518209322  1.0000
  Na  Na4       1.0  0.0767991291762016  0.3708259396555889  0.969411375776225  1.0000
  H   H1        1.0  0.9081867698839119  0.3478040139419036  0.27330306168785506  1.0000
  H   H2        1.0  0.3639589252308467  0.848393490877875  0.2745206947178005  1.0000
  H   H3        1.0  0.0918162230447237  0.6521937756859586  0.7266952474454554  1.0000
  H   H4        1.0  0.6360256681393395  0.1516057356894578  0.7254770395124978  1.0000
  H   H5        1.0  0.9393353401253605  0.2744482540140609  0.349105212518367  1.0000
  H   H6        1.0  0.40964928192973105  0.775304283221665  0.3505680789973055  1.0000
  H   H7        1.0  0.060667942690017206  0.7255531279624705  0.6508954431742068  1.0000
  H   H8        1.0  0.5903254308856988  0.2246999726338146  0.6494323744009092  1.0000
  H   H9        1.0  0.6853947813913451  0.24685973466568353  0.2622024721182754  1.0000
  H   H10       1.0  0.5774166047537577  0.7477998248322635  0.26442142050242257  1.0000
  H   H11       1.0  0.3146143253976632  0.7531373364924434  0.7377971678540262  1.0000
  H   H12       1.0  0.42256598931454187  0.2522001202047974  0.7355816403903075  1.0000
  H   H13       1.0  0.26506901975850633  0.21788600566852515  0.3904303399183816  1.0000
  H   H14       1.0  0.12475078210302831  0.7186012148080962  0.39102317807380155  1.0000
  H   H15       1.0  0.7349484321021434  0.7821125024290723  0.6095751909007275  1.0000
  H   H16       1.0  0.8752397511954941  0.2813951378802955  0.6089749502024446  1.0000
  H   H17       1.0  0.6780702126070893  0.9535286041174513  0.21826686049502794  1.0000
  H   H18       1.0  0.5411208081182224  0.4534521145721584  0.21736607589924256  1.0000
  H   H19       1.0  0.3219393580006908  0.046474214798550385  0.7817354739014135  1.0000
  H   H20       1.0  0.4588614960633493  0.5465442381162333  0.782627571296416  1.0000
  H   H21       1.0  0.5226379867607207  0.1891752365943233  0.5075599312668897  1.0000
  H   H22       1.0  0.9844904993192712  0.689571445171623  0.5076405664052501  1.0000
  H   H23       1.0  0.47737364112629177  0.8108275823216857  0.4924395481346764  1.0000
  H   H24       1.0  0.015497976700004298  0.3104249075167687  0.49235393865620836  1.0000
  H   H25       1.0  0.861291309791959  0.15073566884055367  0.4958163985650542  1.0000
  H   H26       1.0  0.6335383700638743  0.6510133299116061  0.49456494089591974  1.0000
  H   H27       1.0  0.1387264899327718  0.8492671500754483  0.5041868833430669  1.0000
  H   H28       1.0  0.3664523951440302  0.3489858966557264  0.5054330622720258  1.0000
  H   H29       1.0  0.613012617889737  0.0683882601811092  0.5090141218270716  1.0000
  H   H30       1.0  0.8955912666443311  0.5687528560900788  0.5087313874468434  1.0000
  H   H31       1.0  0.387003008601063  0.9316131217954222  0.4909882495970946  1.0000
  H   H32       1.0  0.10439097955988788  0.43124277812857764  0.4912621437938539  1.0000
  H   H33       1.0  0.9373225300908103  0.9087880567890849  0.33179893340126637  1.0000
  H   H34       1.0  0.3943542703489982  0.4089615947115135  0.33027245299130203  1.0000
  H   H35       1.0  0.0626971529811158  0.09121260671771839  0.6682017345752485  1.0000
  H   H36       1.0  0.6056239772514331  0.5910354764466135  0.6697252533646176  1.0000
  H   H37       1.0  0.8282081630380347  0.9446792123933463  0.42811696419681056  1.0000
  H   H38       1.0  0.6007220175088008  0.4447047455503963  0.4270751365030705  1.0000
  H   H39       1.0  0.171813577313138  0.055321451113457  0.5718855602100419  1.0000
  H   H40       1.0  0.3992646911179775  0.5552951994866646  0.5729216254717641  1.0000
  H   H41       1.0  0.08304276605646521  0.0135460283808015  0.3992477460557424  1.0000
  H   H42       1.0  0.3164699355161389  0.5137195113402981  0.3975486602224619  1.0000
  H   H43       1.0  0.9169851461324183  0.9864546351260017  0.6007556362169025  1.0000
  H   H44       1.0  0.6835167731106324  0.48628043369676976  0.6024481017523726  1.0000
  H   H45       1.0  0.062351276418695485  0.9791765367120036  0.8952222603253046  1.0000
  H   H46       1.0  0.8305004025216576  0.4793112772687564  0.8949069508333025  1.0000
  H   H47       1.0  0.9376580622796952  0.0208234083250574  0.10477961025129187  1.0000
  H   H48       1.0  0.1694901887542031  0.5206857938893705  0.10509364911051478  1.0000
  H   H49       1.0  0.3897166230202842  0.9785234477230275  0.912549577876888  1.0000
  H   H50       1.0  0.5214792325963985  0.4782745254413712  0.912393703829565  1.0000
  H   H51       1.0  0.6102968882139308  0.0214772157837686  0.08745199901828468  1.0000
  H   H52       1.0  0.47851141665681496  0.5217232641864911  0.08760465635660347  1.0000
  H   H53       1.0  0.5233186736342716  0.2912511057029192  0.036939240468797166  1.0000
  H   H54       1.0  0.5150623453268253  0.791086907887042  0.03729212322609496  1.0000
  H   H55       1.0  0.4766886077848794  0.7087488393341488  0.963061951533767  1.0000
  H   H56       1.0  0.4849409954658911  0.2089151925592319  0.9627092373495856  1.0000
  H   H57       1.0  0.7095566423376951  0.0811612151272172  0.8931509860585292  1.0000
  H   H58       1.0  0.182045778196823  0.5807505821922803  0.893454480543042  1.0000
  H   H59       1.0  0.2904525804060043  0.9188372929703803  0.10684947475183992  1.0000
  H   H60       1.0  0.817951274803491  0.4192500813145159  0.10654520132877109  1.0000
  H   H61       1.0  0.7904942611205924  0.1882390705298178  0.8810651173683581  1.0000
  H   H62       1.0  0.08882900696207939  0.6879872194062813  0.8815569684051565  1.0000
  H   H63       1.0  0.2095047332042625  0.8117601560375147  0.11893442223941252  1.0000
  H   H64       1.0  0.9111784483891158  0.3120148810399854  0.11844339360599318  1.0000
  C   C1        1.0  0.8981487110700143  0.2740416001441375  0.28403311379201307  1.0000
  C   C2        1.0  0.385753353737158  0.7747101087509448  0.28549190199300506  1.0000
  C   C3        1.0  0.10185857034913678  0.7259583448929304  0.7159686671386962  1.0000
  C   C4        1.0  0.6142232424254601  0.2252919916953218  0.7145088821143587  1.0000
  C   C5        1.0  0.0778582284770408  0.2105382156902493  0.2329459342441993  1.0000
  C   C6        1.0  0.1555765717340165  0.7108194691099712  0.23373975035495675  1.0000
  C   C7        1.0  0.922150936289313  0.7894595739376129  0.7670561773956663  1.0000
  C   C8        1.0  0.8444144833606232  0.2891833498060308  0.7662611883003975  1.0000
  C   C9        1.0  0.265117317065517  0.1435567192499718  0.2671246615895129  1.0000
  C   C10       1.0  0.002088245647762201  0.644013279284998  0.26752447969911225  1.0000
  C   C11       1.0  0.7348962521460437  0.8564446627265667  0.7328811537576738  1.0000
  C   C12       1.0  0.997890465771448  0.3559895396310111  0.7324706207275823  1.0000
  C   C13       1.0  0.35258162363233236  0.1590713547042455  0.35196303187255035  1.0000
  C   C14       1.0  0.9991556790833371  0.6596011986522257  0.35223060829648023  1.0000
  C   C15       1.0  0.6474300042546871  0.8409314642117565  0.6480423368105261  1.0000
  C   C16       1.0  0.0008247417510319027  0.3403973094453647  0.647763297118189  1.0000
  C   C17       1.0  0.5528754790903037  0.1063392685151783  0.38928564441565777  1.0000
  C   C18       1.0  0.8364922141051352  0.6067189522885812  0.38902696948822063  1.0000
  C   C19       1.0  0.4471403793098858  0.8936649873402942  0.6107160129720484  1.0000
  C   C20       1.0  0.1634819769141771  0.39327883733928093  0.6109689067464429  1.0000
  C   C21       1.0  0.6731171636795706  0.0305687318085219  0.3396500400841731  1.0000
  C   C22       1.0  0.6669171717323223  0.5307752643758192  0.33892844195431576  1.0000
  C   C23       1.0  0.3269006360451598  0.9694340871074871  0.6603514750394979  1.0000
  C   C24       1.0  0.33306736366052553  0.46922324372177826  0.6610662316802588  1.0000
  C   C25       1.0  0.5872122563368194  0.0121220213663307  0.2564815005572214  1.0000
  C   C26       1.0  0.6699507313713795  0.5122294051102259  0.2559053705135312  1.0000
  C   C27       1.0  0.4128012548973956  0.9878786421404655  0.7435224320505538  1.0000
  C   C28       1.0  0.3300316307875306  0.4877676660479011  0.7440895704933934  1.0000
  C   C29       1.0  0.3832611021872054  0.0654727099971026  0.21667845544054387  1.0000
  C   C30       1.0  0.8342981706670614  0.5656354159105774  0.21669735116500277  1.0000
  C   C31       1.0  0.6167504677224683  0.934529390449164  0.7833273862157171  1.0000
  C   C32       1.0  0.16568436542389253  0.4343638106567553  0.7832979377068128  1.0000
  C   C33       1.0  0.6413290132585558  0.1297786251448159  0.479610817223353  1.0000
  C   C34       1.0  0.8378660724416065  0.6301432210537854  0.47918659696274785  1.0000
  C   C35       1.0  0.3586950742585842  0.8702256307106566  0.5203917876760329  1.0000
  C   C36       1.0  0.16211628971730357  0.3698538501043416  0.5208089329723292  1.0000
  C   C37       1.0  0.8907470912215345  0.970909105473126  0.3764236657289856  1.0000
  C   C38       1.0  0.486045728176805  0.471047438378548  0.3751262616914132  1.0000
  C   C39       1.0  0.1092769383182528  0.0290944319126112  0.6235805899998894  1.0000
  C   C40       1.0  0.5139451529857908  0.528953225128248  0.6248678508893946  1.0000
  O   O1        1.0  0.05746798806854509  0.217924803034208  0.15984019732717059  1.0000
  O   O2        1.0  0.1039205667456926  0.7177311479591992  0.1604592943178033  1.0000
  O   O3        1.0  0.9425412346751543  0.7820737050633895  0.8401620302676562  1.0000
  O   O4        1.0  0.8960701984622118  0.2822680786081335  0.8395357642093868  1.0000
  O   O5        1.0  0.3080009570672146  0.0404024270693668  0.1380853066687351  1.0000
  O   O6        1.0  0.8318162144170743  0.5404106619898457  0.13828351372948328  1.0000
  O   O7        1.0  0.6920043250500498  0.9595982364374365  0.8619200341399631  1.0000
  O   O8        1.0  0.16817255148893648  0.4595892830472152  0.8617121600349333  1.0000
  O   O9        1.0  0.2229691253578565  0.9905456017962209  0.9387180748820965  1.0000
  O   O10       1.0  0.71544549135902  0.4904583352048988  0.9384913259517161  1.0000
  O   O11       1.0  0.7770422706197735  0.0094543432408472  0.06128329641222758  1.0000
  O   O12       1.0  0.2845431585922995  0.5095401728926916  0.06150882732798378  1.0000
  O   O13       1.0  0.3742911855143163  0.2499728640267733  0.999903234807725  1.0000
  O   O14       1.0  0.6257141545802938  0.7500285179497581  9.809945887440944e-05  1.0000
  O   O15       1.0  0.745348867320736  0.14968598455794788  0.9206862411586201  1.0000
  O   O16       1.0  0.17400592786041358  0.6492027861797921  0.9211849057370571  1.0000
  O   O17       1.0  0.2546644699814422  0.8503125235396496  0.07931439894351656  1.0000
  O   O18       1.0  0.8260014695134288  0.3507985957967392  0.07881592924728406  1.0000
