data_image0
_chemical_formula_structural       Zn2H20C30S2N6O8
_chemical_formula_sum              "Zn2 H20 C30 S2 N6 O8"
_cell_length_a       8.43993876775327
_cell_length_b       9.468058173699607
_cell_length_c       10.139036618540224
_cell_angle_alpha    63.05189462949124
_cell_angle_beta     72.19022436166505
_cell_angle_gamma    67.11804861160749

_space_group_name_H-M_alt    "P 1"
_space_group_IT_number       1

loop_
  _space_group_symop_operation_xyz
  'x, y, z'

loop_
  _atom_site_type_symbol
  _atom_site_label
  _atom_site_symmetry_multiplicity
  _atom_site_fract_x
  _atom_site_fract_y
  _atom_site_fract_z
  _atom_site_occupancy
  Zn  Zn1       1.0  0.9016420590034927  0.6352301685882581  0.641300720356618  1.0000
  Zn  Zn2       1.0  0.09835891010169462  0.36476932297815523  0.35869931190398313  1.0000
  H   H1        1.0  0.6956758831160528  0.5730665859335674  0.4737330593968281  1.0000
  H   H2        1.0  0.3043247016694083  0.42693414558338116  0.5262665477886159  1.0000
  H   H3        1.0  0.39342687036003826  0.7010913468636206  0.3990216676583386  1.0000
  H   H4        1.0  0.60657371385868  0.2989093869341347  0.6009769524208578  1.0000
  H   H5        1.0  0.17475754684195974  0.9058256882197927  0.5041312581343077  1.0000
  H   H6        1.0  0.8252434216964846  0.09417380562742751  0.49586778702004586  1.0000
  H   H7        1.0  0.25488287261723025  0.977133474398862  0.6792496347623211  1.0000
  H   H8        1.0  0.7451164677906803  0.02286725678180801  0.3207502892755514  1.0000
  H   H9        1.0  0.3372185950341945  0.9808613898625042  0.8570954507987947  1.0000
  H   H10       1.0  0.662782374070993  0.019138101703902108  0.14290458146180632  1.0000
  H   H11       1.0  0.8018246242373839  0.9042355416487878  0.012211183091672255  1.0000
  H   H12       1.0  0.19817634486779667  0.09576394991762534  0.9877888491689218  1.0000
  H   H13       1.0  0.0662486407844227  0.7835001434979817  0.006734976950284035  1.0000
  H   H14       1.0  0.9337519440010382  0.2165005880189669  0.9932646302351598  1.0000
  H   H15       1.0  0.3620407379985622  0.5889743467441947  0.023790593487198832  1.0000
  H   H16       1.0  0.6379586024093482  0.4110263844364753  0.9762093305506738  1.0000
  H   H17       1.0  0.47923290711646177  0.400861172678333  0.8749408483982605  1.0000
  H   H18       1.0  0.5207676776690063  0.5991395588386158  0.12505875878718337  1.0000
  H   H19       1.0  0.2794533506086125  0.4142796370142179  0.7306331634957317  1.0000
  H   H20       1.0  0.7205472336101054  0.5857210967835371  0.26936545658346484  1.0000
  C   C1        1.0  0.5937487059469788  0.6646971329490728  0.5138104017429368  1.0000
  C   C2        1.0  0.4062518782717389  0.33530360084868976  0.4861882183362595  1.0000
  C   C3        1.0  0.4278828035640673  0.7344644603449668  0.4742433763083792  1.0000
  C   C4        1.0  0.5721177806546508  0.2655362734527886  0.525755243770817  1.0000
  C   C5        1.0  0.30534784164278517  0.8494857699473146  0.5331971109810566  1.0000
  C   C6        1.0  0.6946527425759328  0.15051496385044066  0.46680150909813983  1.0000
  C   C7        1.0  0.3505944203346658  0.8897290847321316  0.6301802964262889  1.0000
  C   C8        1.0  0.649405304392964  0.11027040649798894  0.369820052686741  1.0000
  C   C9        1.0  0.5201145017632314  0.8146438592062141  0.6636794549000982  1.0000
  C   C10       1.0  0.4798852229644055  0.1853556320239137  0.3363208942129319  1.0000
  C   C11       1.0  0.5833308134666592  0.8478558228021105  0.7650124093248889  1.0000
  C   C12       1.0  0.4166701556385278  0.15214366876430327  0.23498762293571218  1.0000
  C   C13       1.0  0.4771909719261985  0.9336543690774664  0.8574702025602434  1.0000
  C   C14       1.0  0.5228087528014386  0.06634512215266142  0.14253014655278656  1.0000
  C   C15       1.0  0.5538525509933764  0.9563359501754933  0.9489914052920907  1.0000
  C   C16       1.0  0.44614717373426055  0.04366354105463442  0.05100894382093911  1.0000
  C   C17       1.0  0.7351078116914777  0.8908501783547822  0.9440354975832005  1.0000
  C   C18       1.0  0.26489315741370945  0.10914931321162412  0.05596453467740048  1.0000
  C   C19       1.0  0.8313074953303572  0.7996457217719242  0.8543752609114105  1.0000
  C   C20       1.0  0.16869347377482313  0.2003537697944893  0.1456247713491905  1.0000
  C   C21       1.0  0.016414532940778832  0.701146062707032  0.8594164962001187  1.0000
  C   C22       1.0  0.9835851917868507  0.2988534285230884  0.14058385291290423  1.0000
  C   C23       1.0  0.11696941179040721  0.7007026624614455  0.9463334257120619  1.0000
  C   C24       1.0  0.88303155731478  0.29929682910496075  0.053666606548539206  1.0000
  C   C25       1.0  0.28487167046764467  0.591226357338286  0.9540883644775062  1.0000
  C   C26       1.0  0.7151289148845593  0.40877437189785587  0.04591222981419211  1.0000
  C   C27       1.0  0.3483118295831958  0.48728266319157143  0.8749148326528837  1.0000
  C   C28       1.0  0.6516883708825458  0.5127193082759193  0.12508434945740993  1.0000
  C   C29       1.0  0.2391837829183174  0.4961155921488898  0.7907597623889085  1.0000
  C   C30       1.0  0.7608168018671436  0.503885139368059  0.20923984479654217  1.0000
  S   S1        1.0  0.9457168361063285  0.25535768480193616  0.7023090050192876  1.0000
  S   S2        1.0  0.054284132432108674  0.7446418090452842  0.297690040135059  1.0000
  N   N1        1.0  0.6395240724233419  0.7052447296921829  0.6044916418101848  1.0000
  N   N2        1.0  0.360475651737545  0.29475476381875154  0.39550772019659053  1.0000
  N   N3        1.0  0.7552827526436374  0.782940987656659  0.7662372018517798  1.0000
  N   N4        1.0  0.24471697208399226  0.21705850357346898  0.23376314726124994  1.0000
  N   N5        1.0  0.07792888703965421  0.6004470224181447  0.7826028160185031  1.0000
  N   N6        1.0  0.922072082065526  0.39955246914826154  0.2173972162420982  1.0000
  O   O1        1.0  0.7582933132877798  0.2908304966904184  0.7604162115480476  1.0000
  O   O2        1.0  0.2417064108731068  0.7091689968205162  0.23958315045873482  1.0000
  O   O3        1.0  0.00986276134853628  0.39918428729772887  0.6690882522482154  1.0000
  O   O4        1.0  0.9901365784926311  0.6008164461637479  0.3309106846834099  1.0000
  O   O5        1.0  0.05161840621003931  0.10519030411827401  0.8069006695483835  1.0000
  O   O6        1.0  0.9483809336311282  0.8948104293432025  0.1930982673832417  1.0000
  O   O7        1.0  0.021367256960573327  0.7647912208687944  0.4455693081492029  1.0000
  O   O8        1.0  0.9786324677670635  0.23520827036133343  0.5544310409638271  1.0000
