data_image0
_chemical_formula_structural       Zn2H26C20N10O8
_chemical_formula_sum              "Zn2 H26 C20 N10 O8"
_cell_length_a       9.048600568014297
_cell_length_b       9.661977667822176
_cell_length_c       11.633695321382833
_cell_angle_alpha    112.29340016455501
_cell_angle_beta     89.99979860141443
_cell_angle_gamma    90.00005051156256

_space_group_name_H-M_alt    "P 1"
_space_group_IT_number       1

loop_
  _space_group_symop_operation_xyz
  'x, y, z'

loop_
  _atom_site_type_symbol
  _atom_site_label
  _atom_site_symmetry_multiplicity
  _atom_site_fract_x
  _atom_site_fract_y
  _atom_site_fract_z
  _atom_site_occupancy
  Zn  Zn1       1.0  0.5709039913423766  0.8611733721075371  0.07458056515981344  1.0000
  Zn  Zn2       1.0  0.07090396994072988  0.13882675890521773  0.9254188149114384  1.0000
  H   H1        1.0  0.570568055810675  0.346114012237969  0.9332614554410698  1.0000
  H   H2        1.0  0.07056576807497092  0.6538872304283743  0.06673999765263973  1.0000
  H   H3        1.0  0.5730297727877698  0.22585964859477767  0.16866670661677569  1.0000
  H   H4        1.0  0.073031884930046  0.774143833559947  0.8313345911891263  1.0000
  H   H5        1.0  0.2453222082684974  0.4087305869437899  0.9347338097200365  1.0000
  H   H6        1.0  0.7453209100393466  0.5912694523126447  0.06526592346327925  1.0000
  H   H7        1.0  0.24996724345613336  0.9037201151972742  0.986671788308705  1.0000
  H   H8        1.0  0.74996460401416  0.09628327392803021  0.013329855315319605  1.0000
  H   H9        1.0  0.6902733887090307  0.8195918927304505  0.261894367068841  1.0000
  H   H10       1.0  0.19027314698373493  0.18040817791744257  0.7381046671564706  1.0000
  H   H11       1.0  0.729045186122896  0.9874915199379973  0.27236931138715914  1.0000
  H   H12       1.0  0.22904483210002272  0.012502948812070301  0.7276252594135569  1.0000
  H   H13       1.0  0.4388323503994656  0.46919362431080464  0.16468879875530723  1.0000
  H   H14       1.0  0.9388352556941868  0.5308074356771686  0.83531072891887  1.0000
  H   H15       1.0  0.24295567709381774  0.4586186665126847  0.15155558249372086  1.0000
  H   H16       1.0  0.7429585331747788  0.5413836182274566  0.8484431509427426  1.0000
  H   H17       1.0  0.6566680858016484  0.292740714536265  0.6878881727749119  1.0000
  H   H18       1.0  0.1566658466331319  0.7072582509622765  0.31211146211584423  1.0000
  H   H19       1.0  0.6386993556335412  0.15294456892372219  0.74964464646947  1.0000
  H   H20       1.0  0.1386953177329744  0.8470544021084127  0.25035589893246885  1.0000
  H   H21       1.0  0.461287510875593  0.8930053331619378  0.36278604650581064  1.0000
  H   H22       1.0  0.9612886970435424  0.10699459332693102  0.6372139194106978  1.0000
  H   H23       1.0  0.46583484103860684  0.0606314307279447  0.33567610415669696  1.0000
  H   H24       1.0  0.9658278548208443  0.9393729571640536  0.6643278445393649  1.0000
  H   H25       1.0  0.4171262423256152  0.08576557689241333  0.5689159398550245  1.0000
  H   H26       1.0  0.9171213899264358  0.9142433348677911  0.4310835614210689  1.0000
  C   C1        1.0  0.3710112141149721  0.6097190135565713  0.016604627417137918  1.0000
  C   C2        1.0  0.8710066867237316  0.39028095858632383  0.9833956000631191  1.0000
  C   C3        1.0  0.3583625258323551  0.24847839075295047  0.08393302291110422  1.0000
  C   C4        1.0  0.8583619610374528  0.7515238249661211  0.9160679515091987  1.0000
  C   C5        1.0  0.4723015792613268  0.1777768244975988  0.11882593047948121  1.0000
  C   C6        1.0  0.9723034494105676  0.8222264486388084  0.8811759274219427  1.0000
  C   C7        1.0  0.3516269516307061  0.4407041081466617  0.9825526728245821  1.0000
  C   C8        1.0  0.8516258388080403  0.5592958773515804  0.017446752364136755  1.0000
  C   C9        1.0  0.3075325899162493  0.010218019039797403  0.023320900468633  1.0000
  C   C10       1.0  0.8075297677574725  0.9897853445284713  0.9766797179247038  1.0000
  C   C11       1.0  0.4460342127191552  0.2961686738539556  0.7759694036027158  1.0000
  C   C12       1.0  0.9460300947203137  0.703827901025058  0.22403039951414178  1.0000
  C   C13       1.0  0.34672429345964423  0.41008588984124134  0.10406186072830795  1.0000
  C   C14       1.0  0.8467258761936023  0.589917453906729  0.8959386441094069  1.0000
  C   C15       1.0  0.5782901549454565  0.211832306533296  0.6997291801006257  1.0000
  C   C16       1.0  0.078285835825298  0.7881633463838682  0.3002687579790333  1.0000
  C   C17       1.0  0.6152056817113588  0.061026758234667994  0.47908335319506534  1.0000
  C   C18       1.0  0.1151994050504115  0.9389666210659802  0.5209180598747667  1.0000
  C   C19       1.0  0.5357388596567461  0.9790993833013321  0.3556025686265799  1.0000
  C   C20       1.0  0.035735573778112  0.020900758387952603  0.6443986302289062  1.0000
  N   N1        1.0  0.2541288150474514  0.14014223728091224  0.0226491695497373  1.0000
  N   N2        1.0  0.7541280766608055  0.8598600347026563  0.9773512484166177  1.0000
  N   N3        1.0  0.46618072353798107  0.3537186716376014  0.8993090974889739  1.0000
  N   N4        1.0  0.9661782125911742  0.6462801408945751  0.10068878221002112  1.0000
  N   N5        1.0  0.4394965222343857  0.027102983639906607  0.0801204255045747  1.0000
  N   N6        1.0  0.9394972557783207  0.9728991910495002  0.9198803138461501  1.0000
  N   N7        1.0  0.6424295877421925  0.9133863686296311  0.2544456770009235  1.0000
  N   N8        1.0  0.14243032840414574  0.08661037399503613  0.7455515719430111  1.0000
  N   N9        1.0  0.5272438123093294  0.11178991106413598  0.578986136333029  1.0000
  N   N10       1.0  0.027236833102186605  0.8882080048485079  0.42101265994492826  1.0000
  O   O1        1.0  0.5057116256752536  0.6523325279477988  0.014776929476553858  1.0000
  O   O2        1.0  0.0057104277390039  0.3476665174425548  0.9852222843272572  1.0000
  O   O3        1.0  0.2606217396776671  0.6940294846642986  0.04714925140812201  1.0000
  O   O4        1.0  0.760621690569856  0.3059716654452487  0.9528507925959178  1.0000
  O   O5        1.0  0.32799508908058783  0.3061851001214606  0.723281583190989  1.0000
  O   O6        1.0  0.8279951443693605  0.6938126565927051  0.27671805861324833  1.0000
  O   O7        1.0  0.7515792584988148  0.08297355912558403  0.4825114825528587  1.0000
  O   O8        1.0  0.2515641352976914  0.9170141440470161  0.5174911934628595  1.0000
