data_image0
_chemical_formula_structural       Sm2H38C60N10O14
_chemical_formula_sum              "Sm2 H38 C60 N10 O14"
_cell_length_a       10.545615267672607
_cell_length_b       11.158078686717142
_cell_length_c       13.592
_cell_angle_alpha    110.22009532245185
_cell_angle_beta     101.26301565482636
_cell_angle_gamma    107.84807435207362

_space_group_name_H-M_alt    "P 1"
_space_group_IT_number       1

loop_
  _space_group_symop_operation_xyz
  'x, y, z'

loop_
  _atom_site_type_symbol
  _atom_site_label
  _atom_site_symmetry_multiplicity
  _atom_site_fract_x
  _atom_site_fract_y
  _atom_site_fract_z
  _atom_site_occupancy
  Sm  Sm1       1.0  0.4995965787204143  0.9173455641409092  0.6216189438122441  1.0000
  Sm  Sm2       1.0  0.5004024580161115  0.08265223857976878  0.3783805810612222  1.0000
  H   H1        1.0  0.4217564407492063  0.5718790253523379  0.9992122643126109  1.0000
  H   H2        1.0  0.5782429192339081  0.4281219132029647  0.0007867278395607952  1.0000
  H   H3        1.0  0.26949189120344397  0.3275306099921521  0.9599128572618698  1.0000
  H   H4        1.0  0.7305078988227578  0.6724713738413612  0.040085025186989816  1.0000
  H   H5        1.0  0.9602010521306994  0.4495218939855903  0.38287971181106434  1.0000
  H   H6        1.0  0.03979884469199394  0.550477999291509  0.6171190651095699  1.0000
  H   H7        1.0  0.02976794366495741  0.30736196694029866  0.47309562552684536  1.0000
  H   H8        1.0  0.9702301261889023  0.6926358357803792  0.5269030171007856  1.0000
  H   H9        1.0  0.23423405648986775  0.2443086947882236  0.4427270971396808  1.0000
  H   H10       1.0  0.7657649802466511  0.7556891079324544  0.5572724277337856  1.0000
  H   H11       1.0  0.06028683124998935  0.6783907843416301  0.29326307870347523  1.0000
  H   H12       1.0  0.9397133888192998  0.32161224477009387  0.7067373726765638  1.0000
  H   H13       1.0  0.7953373056242514  0.5551357589929395  0.21777777052395927  1.0000
  H   H14       1.0  0.20466291444503784  0.4448672701187845  0.7822234165829727  1.0000
  H   H15       1.0  0.6546039362939879  0.678770220331664  0.3024903055459234  1.0000
  H   H16       1.0  0.34539682061487303  0.3212317635018493  0.6975114020563637  1.0000
  H   H17       1.0  0.8485919668431736  0.0784773974111133  0.7747677542017826  1.0000
  H   H18       1.0  0.15140696309685356  0.9215224958659789  0.22523234765370853  1.0000
  H   H19       1.0  0.028994207142105214  0.2316117003777052  0.9687167726315096  1.0000
  H   H20       1.0  0.9710065497667629  0.7683902834558083  0.03128272779007807  1.0000
  H   H21       1.0  0.9453303185753443  0.3180290310680078  0.1273885187291484  1.0000
  H   H22       1.0  0.05466904140777735  0.681971907487295  0.8726104734230306  1.0000
  H   H23       1.0  0.7388259767686735  0.31480121195714617  0.1964140795637164  1.0000
  H   H24       1.0  0.26117392005401996  0.6851986813199529  0.8035854330838106  1.0000
  H   H25       1.0  0.48213763556326233  0.24473098718485178  0.15544081435268  1.0000
  H   H26       1.0  0.5178621544629395  0.7552709966486617  0.8445600110037716  1.0000
  H   H27       1.0  0.2358888248804193  0.11484994326628588  0.016092007106685503  1.0000
  H   H28       1.0  0.7641115019853615  0.8851509952890168  0.9839078672913217  1.0000
  H   H29       1.0  0.07757425640231479  0.9624158699771428  0.8156762709787414  1.0000
  H   H30       1.0  0.9224251035807995  0.0375850685781671  0.18432345690033  1.0000
  H   H31       1.0  0.18938145660666814  0.8969898162895545  0.6699303143887788  1.0000
  H   H32       1.0  0.8106188702591126  0.1030111222657482  0.3300695600092283  1.0000
  H   H33       1.0  0.49779556970079863  0.7608998198066955  0.19462230355384946  1.0000
  H   H34       1.0  0.5022057240476414  0.23910111874860718  0.8053799245437857  1.0000
  H   H35       1.0  0.3711653483639169  0.647121286705122  0.635555130973735  1.0000
  H   H36       1.0  0.6288345484587766  0.35287860657196995  0.36444438167379195  1.0000
  H   H37       1.0  0.2601593807524268  0.6439530484521967  0.5373659692228047  1.0000
  H   H38       1.0  0.7398399792306877  0.3560478901031061  0.4626344943831739  1.0000
  C   C1        1.0  0.426952313437866  0.7376246099162671  0.3651728222030357  1.0000
  C   C2        1.0  0.5730457564159934  0.2623731928044037  0.6348258204245951  1.0000
  C   C3        1.0  0.37948882235423304  0.6220419266251439  0.25077469794862134  1.0000
  C   C4        1.0  0.6205106444253731  0.37795692137374454  0.7492244529484182  1.0000
  C   C5        1.0  0.387193933408625  0.5492487521171583  0.06371323703675812  1.0000
  C   C6        1.0  0.6128054265744893  0.4507521864381445  0.9362850193885209  1.0000
  C   C7        1.0  0.30214615297504116  0.41367198723515486  0.04219473583579971  1.0000
  C   C8        1.0  0.6978532070080734  0.586328951320148  0.9578042563163791  1.0000
  C   C9        1.0  0.2925170737843246  0.48228927529627436  0.2205372994559767  1.0000
  C   C10       1.0  0.7074823929952814  0.517709572702614  0.77946111571417  1.0000
  C   C11       1.0  0.22836704291631096  0.43790153613083044  0.2978274271364755  1.0000
  C   C12       1.0  0.771631993820208  0.5620962665898404  0.702171362010084  1.0000
  C   C13       1.0  0.05014593424170505  0.4229394238403756  0.3737998062918564  1.0000
  C   C14       1.0  0.9498525656552347  0.5770594241585059  0.6261984623593548  1.0000
  C   C15       1.0  0.08831552306662623  0.3428700677162269  0.42356638612815806  1.0000
  C   C16       1.0  0.9116829768303206  0.6571287802826546  0.5764333539768529  1.0000
  C   C17       1.0  0.2016105982172292  0.308761594462787  0.40754762047829013  1.0000
  C   C18       1.0  0.7983888685623768  0.6912372535361014  0.5924515304187494  1.0000
  C   C19       1.0  0.274737760839578  0.358285830749594  0.34457247679881675  1.0000
  C   C20       1.0  0.7252608458538532  0.6417109266928662  0.6554266863241622  1.0000
  C   C21       1.0  0.3987533105752379  0.32418362916541094  0.32895800163350236  1.0000
  C   C22       1.0  0.601245726161281  0.675814173555267  0.6710437304206565  1.0000
  C   C23       1.0  0.21861073949298782  0.9319773685171668  0.4545318635337381  1.0000
  C   C24       1.0  0.7813914143416271  0.0680256605945573  0.5454681451572654  1.0000
  C   C25       1.0  0.059179574027787424  0.8670572294829738  0.41117939064927356  1.0000
  C   C26       1.0  0.9408225798068274  0.13294579962875017  0.5888220894955297  1.0000
  C   C27       1.0  0.9949960628478041  0.7311574736342337  0.32477606353416644  1.0000
  C   C28       1.0  0.005004157221485191  0.2688455554774904  0.6752258592996725  1.0000
  C   C29       1.0  0.8481812493574453  0.6617614533070579  0.2834582036941029  1.0000
  C   C30       1.0  0.15181993759450313  0.33824157580466613  0.7165423942048718  1.0000
  C   C31       1.0  0.7695959519693006  0.7311752433638005  0.3302942063713772  1.0000
  C   C32       1.0  0.23040383805690115  0.26882674046972  0.6697066189850744  1.0000
  C   C33       1.0  0.9710657600695785  0.9290370009139082  0.45324726318507663  1.0000
  C   C34       1.0  0.028935426882370108  0.0709660281978159  0.5467548061676908  1.0000
  C   C35       1.0  0.8167220303085686  0.1178080805991044  0.8470145039280368  1.0000
  C   C36       1.0  0.18327840335369674  0.8821907673997771  0.1529855292148383  1.0000
  C   C37       1.0  0.9164536676091474  0.2028822287902301  0.9547078937452584  1.0000
  C   C38       1.0  0.08354622921354603  0.797117664486862  0.04529161890226867  1.0000
  C   C39       1.0  0.8700849202342198  0.2500754946699075  0.04308465994257199  1.0000
  C   C40       1.0  0.12991357966271985  0.749923353328974  0.956914344435539  1.0000
  C   C41       1.0  0.7234499523950076  0.20970371438527738  0.02360048779888052  1.0000
  C   C42       1.0  0.2765504812672575  0.790295133613604  0.9763995453439948  1.0000
  C   C43       1.0  0.6303754487307885  0.1229895246834829  0.9119214297512314  1.0000
  C   C44       1.0  0.3696245548883965  0.8770082780371949  0.08807824164116339  1.0000
  C   C45       1.0  0.6664827264066633  0.2517866150988226  0.11073770374963493  1.0000
  C   C46       1.0  0.3335181372986966  0.7482132781782694  0.8892626911437276  1.0000
  C   C47       1.0  0.5239262192960156  0.21155385681605304  0.08826033978878199  1.0000
  C   C48       1.0  0.47607410756976537  0.7884470817392497  0.9117402703361251  1.0000
  C   C49       1.0  0.42717117657740294  0.1250403605304768  0.9766749534845546  1.0000
  C   C50       1.0  0.572830117171037  0.8749605780248259  0.023325067432381216  1.0000
  C   C51       1.0  0.47966510592574  0.07955089813224699  0.888080176700278  1.0000
  C   C52       1.0  0.5203353277365325  0.9204479498666345  0.11191985644259726  1.0000
  C   C53       1.0  0.2789984135789396  0.08141253862332577  0.9496521970952118  1.0000
  C   C54       1.0  0.7210019132868413  0.9185883999319769  0.050347677302795525  1.0000
  C   C55       1.0  0.19231844703472234  0.9989661131279204  0.839836485096093  1.0000
  C   C56       1.0  0.8076818798310584  0.0010348254273822  0.1601641250288139  1.0000
  C   C57       1.0  0.2538407932173002  0.9605145089141018  0.7575231653127829  1.0000
  C   C58       1.0  0.7461591036053933  0.0394853843629974  0.24247708306164384  1.0000
  C   C59       1.0  0.4273597891934671  0.6537514863878329  0.17038835136713712  1.0000
  C   C60       1.0  0.5726391407465599  0.3462484068892593  0.8296110147614613  1.0000
  N   N1        1.0  0.2559027536894831  0.37977988657107176  0.11824509406144298  1.0000
  N   N2        1.0  0.7440971431332103  0.6202200067060204  0.8817529471322914  1.0000
  N   N3        1.0  0.11760159792792284  0.46934559522831876  0.3113185927186848  1.0000
  N   N4        1.0  0.8823984056912623  0.5306522074923591  0.6886803429468104  1.0000
  N   N5        1.0  0.8291181170651356  0.8610249289360822  0.4118118448152614  1.0000
  N   N6        1.0  0.1708822098006451  0.13897600961922757  0.5881895010365383  1.0000
  N   N7        1.0  0.6779199552850343  0.0801393897641844  0.825637891401101  1.0000
  N   N8        1.0  0.32208004833415066  0.9198584129564934  0.17436251571819375  1.0000
  N   N9        1.0  0.3929976623582264  0.9990737767834971  0.7802803922941095  1.0000
  N   N10       1.0  0.6070013743782923  0.0009240259371807998  0.2197198683062496  1.0000
  O   O1        1.0  0.46325393432304923  0.8618224762099089  0.3739128167818251  1.0000
  O   O2        1.0  0.5367464993392161  0.1381763717889726  0.6260894235417496  1.0000
  O   O3        1.0  0.4314330022242388  0.7091271900913014  0.4479507435752907  1.0000
  O   O4        1.0  0.5685642075434459  0.2908685220729552  0.5520479112782724  1.0000
  O   O5        1.0  0.5087752852029297  0.4153371154228509  0.33332812549353713  1.0000
  O   O6        1.0  0.49122375153358894  0.584660687297827  0.6666728708337217  1.0000
  O   O7        1.0  0.38175492453948584  0.1991453591913483  0.3120976249932994  1.0000
  O   O8        1.0  0.6182450790796992  0.8008524435293224  0.6879042535797879  1.0000
  O   O9        1.0  0.27446794872203384  0.8929613140702273  0.5226213329796465  1.0000
  O   O10       1.0  0.7255337750695007  0.10704066976328619  0.47738125686846894  1.0000
  O   O11       1.0  0.2811991128512616  0.0041894750635834  0.41053868707590613  1.0000
  O   O12       1.0  0.7188032545763362  0.995809372935298  0.5894623748317329  1.0000
  O   O13       1.0  0.31377367341792  0.6991500095818423  0.6167022200059263  1.0000
  O   O14       1.0  0.6862276203305272  0.30085092897346033  0.38329780091100935  1.0000
