data_image0
_chemical_formula_structural       Cu4H16C24S4O20
_chemical_formula_sum              "Cu4 H16 C24 S4 O20"
_cell_length_a       6.035322325411469
_cell_length_b       10.434811614399763
_cell_length_c       17.600052498287155
_cell_angle_alpha    89.99361106365764
_cell_angle_beta     89.95489645561247
_cell_angle_gamma    94.22488964628911

_space_group_name_H-M_alt    "P 1"
_space_group_IT_number       1

loop_
  _space_group_symop_operation_xyz
  'x, y, z'

loop_
  _atom_site_type_symbol
  _atom_site_label
  _atom_site_symmetry_multiplicity
  _atom_site_fract_x
  _atom_site_fract_y
  _atom_site_fract_z
  _atom_site_occupancy
  Cu  Cu1       1.0  8.074997403225726e-06  0.5000054048337007  0.5000031766488817  1.0000
  Cu  Cu2       1.0  0.5000073956196687  8.662903326199755e-06  2.8375506175999925e-06  1.0000
  Cu  Cu3       1.0  0.4999974806116682  0.4999920293332919  0.5000031763704628  1.0000
  Cu  Cu4       1.0  7.8301104622e-06  8.6202554925e-06  2.2714199872e-06  1.0000
  H   H1        1.0  0.713652593225163  0.30783411333425187  0.5529050826922274  1.0000
  H   H2        1.0  0.785385881243549  0.19202118635971743  0.053050749129433  1.0000
  H   H3        1.0  0.28636211972217746  0.692148902877925  0.4470899040150656  1.0000
  H   H4        1.0  0.2145902929681469  0.8080062182585339  0.9469493543592621  1.0000
  H   H5        1.0  0.6946281164498556  0.3064324764780224  0.46046743944291535  1.0000
  H   H6        1.0  0.8046841955190303  0.1933602007583701  0.9605007775501664  1.0000
  H   H7        1.0  0.3053568776389071  0.693563163033595  0.5395286868682874  1.0000
  H   H8        1.0  0.1953387065495278  0.8066458563875825  0.0394964799937014  1.0000
  H   H9        1.0  0.10992789013364054  0.8113752680287905  0.686792040999137  1.0000
  H   H10       1.0  0.3910295455485127  0.6889893381366293  0.18716234851032004  1.0000
  H   H11       1.0  0.8900257759380351  0.1886214640848252  0.31320295282703375  1.0000
  H   H12       1.0  0.6089765613116781  0.3110033273238173  0.8128434343357611  1.0000
  H   H13       1.0  0.9861706562544014  0.9104219933175415  0.8181057012721311  1.0000
  H   H14       1.0  0.5143848367327948  0.5897411967481717  0.3184167328880037  1.0000
  H   H15       1.0  0.0138046294247545  0.08958714779858919  0.1818881530277494  1.0000
  H   H16       1.0  0.48563976105202034  0.41025331508736673  0.6815839339561054  1.0000
  C   C1        1.0  0.7899931632406803  0.631404627495584  0.6131514637999019  1.0000
  C   C2        1.0  0.7110329249668651  0.868644908784965  0.1133402827248773  1.0000
  C   C3        1.0  0.20998955096942498  0.36861025127843305  0.3868435257174596  1.0000
  C   C4        1.0  0.2889702871193762  0.13135065480712885  0.8866541367713126  1.0000
  C   C5        1.0  0.7853351918003568  0.7051903699782188  0.6837485183185663  1.0000
  C   C6        1.0  0.7157739906487635  0.7949784172268224  0.18396837335868102  1.0000
  C   C7        1.0  0.2146307335923581  0.29481111780108904  0.3162498828785942  1.0000
  C   C8        1.0  0.2842230808882675  0.2050325545768459  0.8160340008521487  1.0000
  C   C9        1.0  0.9501159488019365  0.7897303823716227  0.7143133109197278  1.0000
  C   C10       1.0  0.550799124712391  0.7105729215285094  0.2146483093439429  1.0000
  C   C11       1.0  0.04984983799688789  0.2102701440301189  0.2856884994117195  1.0000
  C   C12       1.0  0.44922355054833213  0.289419675625922  0.7853506532714647  1.0000
  C   C13       1.0  0.8851580018103107  0.8420648994606452  0.783831207400361  1.0000
  C   C14       1.0  0.6156081842995248  0.6581127989799711  0.28412946622911056  1.0000
  C   C15       1.0  0.1148333411726838  0.15792878983525332  0.2161700318116146  1.0000
  C   C16       1.0  0.3844211163331153  0.3418797706371492  0.7158683591987796  1.0000
  C   C17       1.0  0.672292682812113  0.796528699907199  0.8051844552836869  1.0000
  C   C18       1.0  0.8284594007188915  0.7035796203163542  0.3053914404361606  1.0000
  C   C19       1.0  0.3276889503410558  0.20347849083970707  0.1948156482775047  1.0000
  C   C20       1.0  0.17157392825491508  0.296406202190127  0.6946058165599638  1.0000
  C   C21       1.0  0.5440265915601471  0.8307177473659808  0.872795607790053  1.0000
  C   C22       1.0  0.9564480323196917  0.6693429566882045  0.372977092717683  1.0000
  C   C23       1.0  0.4559550437233425  0.16928944361119141  0.1272027912303315  1.0000
  C   C24       1.0  0.0435792086151778  0.33064673702374864  0.6270213012552475  1.0000
  S   S1        1.0  0.5519193786448823  0.6894957618078693  0.7404906183850741  1.0000
  S   S2        1.0  0.9491884203580058  0.8104879039762449  0.24059186180415545  1.0000
  S   S3        1.0  0.4480766551141002  0.31049598396475636  0.2595174384752355  1.0000
  S   S4        1.0  0.05081917197907159  0.18951533241593668  0.7594076704795327  1.0000
  O   O1        1.0  0.9613010725348372  0.6458098963064316  0.5703625898485498  1.0000
  O   O2        1.0  0.5398918189444474  0.8541701779730108  0.07061120377702682  1.0000
  O   O3        1.0  0.0386895562131642  0.3541905264849561  0.4296375128408983  1.0000
  O   O4        1.0  0.4600987651044619  0.1458417826687892  0.9293894666673098  1.0000
  O   O5        1.0  0.6192172060873631  0.5536512637563575  0.5998035946876784  1.0000
  O   O6        1.0  0.8820090495210309  0.9463492817685549  0.0998495698539017  1.0000
  O   O7        1.0  0.3808108869662874  0.4463326577609195  0.40019309485376914  1.0000
  O   O8        1.0  0.11798913641029429  0.05365783898371031  0.9001562134425002  1.0000
  O   O9        1.0  0.6418685272935675  0.9163866260919065  0.9167238008795805  1.0000
  O   O10       1.0  0.858419711174676  0.5834452514944104  0.4167901551431897  1.0000
  O   O11       1.0  0.35812956758339  0.083607995739392  0.08328255107515051  1.0000
  O   O12       1.0  0.14160130596780363  0.41654735235246687  0.5832105122197646  1.0000
  O   O13       1.0  0.3507841340169548  0.7773748437787661  0.881534798913961  1.0000
  O   O14       1.0  0.14947914307143154  0.7228505467152148  0.3817060573966273  1.0000
  O   O15       1.0  0.6492024167200298  0.22264386343638182  0.11847041722401032  1.0000
  O   O16       1.0  0.8505691458545073  0.27712367686457634  0.6182815390996127  1.0000
  O   O17       1.0  0.6129736146217509  0.32780455735178277  0.506232966184271  1.0000
  O   O18       1.0  0.8861105784094789  0.17199347614335642  0.0062702912616786  1.0000
  O   O19       1.0  0.38702148874602227  0.6721804630761526  0.49376713652102916  1.0000
  O   O20       1.0  0.11387552178823773  0.8280338858640662  0.993737765510282  1.0000
