data_image0
_chemical_formula_structural       Al2H10C20N2O16
_chemical_formula_sum              "Al2 H10 C20 N2 O16"
_cell_length_a       6.80737566472051
_cell_length_b       11.157117571932867
_cell_length_c       11.2061229378613
_cell_angle_alpha    76.014297898474
_cell_angle_beta     71.04535099061616
_cell_angle_gamma    70.90252373278562

_space_group_name_H-M_alt    "P 1"
_space_group_IT_number       1

loop_
  _space_group_symop_operation_xyz
  'x, y, z'

loop_
  _atom_site_type_symbol
  _atom_site_label
  _atom_site_symmetry_multiplicity
  _atom_site_fract_x
  _atom_site_fract_y
  _atom_site_fract_z
  _atom_site_occupancy
  Al  Al1       1.0  0.49286281024276923  0.49367250380426947  0.5169124228041895  1.0000
  Al  Al2       1.0  0.9943654547005845  0.4918019170087363  0.5176522019934706  1.0000
  H   H1        1.0  0.2158269318612795  0.3961321726292723  0.6695826721782012  1.0000
  H   H2        1.0  0.7334343503972958  0.630751969499819  0.3956625233062071  1.0000
  H   H3        1.0  0.7684611962777126  0.4509939792584915  0.13294820507310592  1.0000
  H   H4        1.0  0.21329854779109064  0.543534389730631  0.9006337669013929  1.0000
  H   H5        1.0  0.2730857753384086  0.24370395833815187  0.3459660449421945  1.0000
  H   H6        1.0  0.6323198854851171  0.14046528338144523  0.21846105176926042  1.0000
  H   H7        1.0  0.46898829669068215  0.782549725614615  0.3154851865234676  1.0000
  H   H8        1.0  0.7295113782707002  0.9069508430517671  0.20072552834637497  1.0000
  H   H9        1.0  0.7554304129426794  0.7810844795296105  0.5661582787053662  1.0000
  H   H10       1.0  0.5568903797936926  0.2093045059547478  0.5692371318076183  1.0000
  C   C1        1.0  0.8774434905058257  0.2672362026110519  0.5050058541145575  1.0000
  C   C2        1.0  0.6136494057367655  0.4976334876737809  0.7418384937053232  1.0000
  C   C3        1.0  0.12619098185482616  0.7246142883621259  0.49393481394872646  1.0000
  C   C4        1.0  0.370953256795964  0.4901976662140727  0.2926253961187512  1.0000
  C   C5        1.0  0.5498078287389134  0.5021606603055914  0.8823778653954902  1.0000
  C   C6        1.0  0.4322437972944612  0.48956867246792496  0.1516074760090973  1.0000
  C   C7        1.0  0.7018344483444707  0.4796904664941478  0.9499950630975034  1.0000
  C   C8        1.0  0.2795480488937017  0.5146757211127023  0.08379545832761438  1.0000
  C   C9        1.0  0.6477055291735352  0.4711166368706967  0.08144323186554912  1.0000
  C   C10       1.0  0.3341415735421763  0.5220998042248082  0.9522956845046338  1.0000
  C   C11       1.0  0.9435109353549578  0.13473178064732846  0.47841222368543856  1.0000
  C   C12       1.0  0.1619941826978959  0.0728263673850194  0.410537662927531  1.0000
  C   C13       1.0  0.7867256932784625  0.0662533269388135  0.5227144814016426  1.0000
  C   C14       1.0  0.3164547001196851  0.14199568997151596  0.3424342829717162  1.0000
  C   C15       1.0  0.5182802579675254  0.08375266215586659  0.27015111847545364  1.0000
  C   C16       1.0  0.0647497244137371  0.8655580557014485  0.4711950688552307  1.0000
  C   C17       1.0  0.8487229017906659  0.9301269050687746  0.5210300079327936  1.0000
  C   C18       1.0  0.22113121149983084  0.9382610982970403  0.40454117294617464  1.0000
  C   C19       1.0  0.42704407449209464  0.8825471391510007  0.3267226178675244  1.0000
  C   C20       1.0  0.5736287117262009  0.9530139657732802  0.26094987975209694  1.0000
  N   N1        1.0  0.9266938464000205  0.47676439692492767  0.8803236320680625  1.0000
  N   N2        1.0  0.052176991939354975  0.5229652766302236  0.1518949173351203  1.0000
  O   O1        1.0  0.6707162778091914  0.32245330445819315  0.5395766054354212  1.0000
  O   O2        1.0  0.8152389607698678  0.47475391332996225  0.6878882861187706  1.0000
  O   O3        1.0  0.9735535768098488  0.6675147047601439  0.5250193270199474  1.0000
  O   O4        1.0  0.5204063470669452  0.4702528927417476  0.3447814724207347  1.0000
  O   O5        1.0  0.3231710848089193  0.6635763912675756  0.4852296015247432  1.0000
  O   O6        1.0  0.1697563209702935  0.5149618852631476  0.34732219594378927  1.0000
  O   O7        1.0  0.016846261290126636  0.32259897423575257  0.4997036745256123  1.0000
  O   O8        1.0  0.4653504652649189  0.5126111495096878  0.6902032981347046  1.0000
  O   O9        1.0  0.24409601047890564  0.43159828538881556  0.5791413913878358  1.0000
  O   O10       1.0  0.7421500145383321  0.5536570726923955  0.45866332604396115  1.0000
  O   O11       1.0  0.9595853854987975  0.5833922339900963  0.8351347424151713  1.0000
  O   O12       1.0  0.06567037393728009  0.3722449328971179  0.8765166957832731  1.0000
  O   O13       1.0  0.9187915889873395  0.62926425162793  0.1512224014724309  1.0000
  O   O14       1.0  0.012512640234724901  0.41823296128132625  0.19857541161423595  1.0000
  O   O15       1.0  0.6884893554648313  0.8737579757193145  0.5759001202628935  1.0000
  O   O16       1.0  0.5770046200228833  0.11508161698590405  0.5754861016714798  1.0000
