data_image0
_chemical_formula_structural       NiH34C20N6O4
_chemical_formula_sum              "Ni1 H34 C20 N6 O4"
_cell_length_a       7.497345518759975
_cell_length_b       8.151988250019844
_cell_length_c       9.910634943330844
_cell_angle_alpha    105.37303666616326
_cell_angle_beta     98.58958043279236
_cell_angle_gamma    105.11608068334412

_space_group_name_H-M_alt    "P 1"
_space_group_IT_number       1

loop_
  _space_group_symop_operation_xyz
  'x, y, z'

loop_
  _atom_site_type_symbol
  _atom_site_label
  _atom_site_symmetry_multiplicity
  _atom_site_fract_x
  _atom_site_fract_y
  _atom_site_fract_z
  _atom_site_occupancy
  Ni  Ni1       1.0  0.49999832955154494  0.49999950511520547  0.49999968653497706  1.0000
  H   H1        1.0  0.2078210017949473  0.4975875947115611  0.5534204966459626  1.0000
  H   H2        1.0  0.7921742693581706  0.5024074063411916  0.44657581388632644  1.0000
  H   H3        1.0  0.5258088253569397  0.21305759526854465  0.4900113319253662  1.0000
  H   H4        1.0  0.4741950313574749  0.786942710869944  0.5099901030095708  1.0000
  H   H5        1.0  0.509290289204465  0.4311489430658426  0.17703886657791656  1.0000
  H   H6        1.0  0.49069652219440474  0.5688487623447783  0.8229621980818818  1.0000
  H   H7        1.0  0.75158104358529  0.4390388107615165  0.18411890100416167  1.0000
  H   H8        1.0  0.24841066471324064  0.5609615828264365  0.815878238885922  1.0000
  H   H9        1.0  0.38230498088686454  0.0100531690525045  0.251295724302139  1.0000
  H   H10       1.0  0.6176998098271369  0.9899417234912345  0.7487106524052363  1.0000
  H   H11       1.0  0.2942943240076588  0.17859204283232094  0.20627831280686587  1.0000
  H   H12       1.0  0.7057027718586966  0.8213961964918894  0.7937227321584146  1.0000
  H   H13       1.0  0.20997922651593368  0.024761173217967794  0.44701790675633646  1.0000
  H   H14       1.0  0.7900278216237877  0.975236392517466  0.5529893074738579  1.0000
  H   H15       1.0  0.12419520731373979  0.18187834952922086  0.38116769408441087  1.0000
  H   H16       1.0  0.8758041884541184  0.8181125386910182  0.6188382237544728  1.0000
  H   H17       1.0  0.35119420422056896  0.2572524246953307  0.6868009592815765  1.0000
  H   H18       1.0  0.6488110298248628  0.7427518966947346  0.3132025293533189  1.0000
  H   H19       1.0  0.10855522983547423  0.2481432938408545  0.637562909333738  1.0000
  H   H20       1.0  0.8914473230703877  0.7518569956939414  0.36244242000401516  1.0000
  H   H21       1.0  0.7381389315901785  0.1255538919193171  0.3676093737827556  1.0000
  H   H22       1.0  0.2618734673995888  0.8744557847658497  0.632392036442944  1.0000
  H   H23       1.0  0.8738917913406679  0.26079712037770253  0.28414293393639406  1.0000
  H   H24       1.0  0.12610838652090448  0.7392046039437613  0.7158493469027716  1.0000
  H   H25       1.0  0.5965796626167189  0.8786378541036581  0.12322294736417662  1.0000
  H   H26       1.0  0.40342154481495385  0.12135840195782067  0.8767833547867026  1.0000
  H   H27       1.0  0.8476119301627205  0.9341133461391562  0.17696105189843078  1.0000
  H   H28       1.0  0.1523901769812355  0.06588963804517789  0.8230438242284916  1.0000
  H   H29       1.0  0.7434433911391738  0.016447521586506798  0.0456974126019389  1.0000
  H   H30       1.0  0.2565528238223251  0.9835461009628758  0.954303734779387  1.0000
  H   H31       1.0  0.9309272048059614  0.7097669207588739  0.8740655720532898  1.0000
  H   H32       1.0  0.06907661762114259  0.2902455270972267  0.12592949508525916  1.0000
  H   H33       1.0  0.9045476680024435  0.17488638492084618  0.8651183892968813  1.0000
  H   H34       1.0  0.09544802443406301  0.8251220982913521  0.1348719017264344  1.0000
  C   C1        1.0  0.3682809114595714  0.5941588653767697  0.7654983062504712  1.0000
  C   C2        1.0  0.6317103314594873  0.4058361526779777  0.23449859027559938  1.0000
  C   C3        1.0  0.5864787464079911  0.8450867541049402  0.730667535935737  1.0000
  C   C4        1.0  0.4135215384532031  0.15491086831207918  0.26933594704150465  1.0000
  C   C5        1.0  0.23634360691986703  0.1675155618981421  0.45814992930799286  1.0000
  C   C6        1.0  0.7636629431733796  0.8324806876911168  0.5418529012839883  1.0000
  C   C7        1.0  0.2468882220973967  0.279406826872993  0.6088286269141888  1.0000
  C   C8        1.0  0.7531142785238885  0.7205894518660897  0.39117277199618167  1.0000
  C   C9        1.0  0.739936920564574  0.15302340457704125  0.2644586304196039  1.0000
  C   C10       1.0  0.26006467791395954  0.8469782695350502  0.7355408532314127  1.0000
  C   C11       1.0  0.7317465486744368  0.9859658354738341  0.14602974420593276  1.0000
  C   C12       1.0  0.26825466856602986  0.014034455679016799  0.8539764530215376  1.0000
  C   C13       1.0  0.8180071888968996  0.3693011662877764  0.6931100140808582  1.0000
  C   C14       1.0  0.1819804290742084  0.6306911984150716  0.30688388629902613  1.0000
  C   C15       1.0  0.9066564419454722  0.4350936705532645  0.8527470262094211  1.0000
  C   C16       1.0  0.09335185528775715  0.5649120244860126  0.14724902190727815  1.0000
  C   C17       1.0  0.9608805404986426  0.6182389564804041  0.9302664843347584  1.0000
  C   C18       1.0  0.039122285835510716  0.38177085908336034  0.0697198155273639  1.0000
  C   C19       1.0  0.9465051730251943  0.3174679507401735  0.9245942942262245  1.0000
  C   C20       1.0  0.0535072864376147  0.6825578541626597  0.07540871398124692  1.0000
  N   N1        1.0  0.31454112366503034  0.46923591117716507  0.6145039601442261  1.0000
  N   N2        1.0  0.6854532886312797  0.5307604197876471  0.3854955842406013  1.0000
  N   N3        1.0  0.41681147033772703  0.7783533036928602  0.7743713842093526  1.0000
  N   N4        1.0  0.5831865881444286  0.22164566847600745  0.22563317399705335  1.0000
  N   N5        1.0  0.5787068031551642  0.7584874790372635  0.575209864529178  1.0000
  N   N6        1.0  0.421293046563072  0.24151283195538298  0.4247941740749254  1.0000
  O   O1        1.0  0.8786341895682527  0.47419207321033235  0.6237888249346069  1.0000
  O   O2        1.0  0.12136277806059327  0.5258002801661446  0.37619900021721253  1.0000
  O   O3        1.0  0.693058148702768  0.21467764561594285  0.6406736929292478  1.0000
  O   O4        1.0  0.3069394942540029  0.7853320853113033  0.359331211057217  1.0000
