data_image0
_chemical_formula_structural       Zn8H72C88N8O40
_chemical_formula_sum              "Zn8 H72 C88 N8 O40"
_cell_length_a       8.964060516246505
_cell_length_b       8.946687287655488
_cell_length_c       53.48987236900868
_cell_angle_alpha    89.99994366978672
_cell_angle_beta     90.00003529260029
_cell_angle_gamma    90.46239359765234

_space_group_name_H-M_alt    "P 1"
_space_group_IT_number       1

loop_
  _space_group_symop_operation_xyz
  'x, y, z'

loop_
  _atom_site_type_symbol
  _atom_site_label
  _atom_site_symmetry_multiplicity
  _atom_site_fract_x
  _atom_site_fract_y
  _atom_site_fract_z
  _atom_site_occupancy
  Zn  Zn1       1.0  0.2683526115491405  0.8259250461351186  0.2523970700723339  1.0000
  Zn  Zn2       1.0  0.7316451270932447  0.17407673873762516  0.7523972200171372  1.0000
  Zn  Zn3       1.0  0.2326355883890941  0.791135421129752  0.1990746406419888  1.0000
  Zn  Zn4       1.0  0.7673619524621174  0.20886443548268122  0.6990747885168034  1.0000
  Zn  Zn5       1.0  0.5725206759348966  0.6613433459181836  0.4527535321583684  1.0000
  Zn  Zn6       1.0  0.4274822425705551  0.33865730685204193  0.9527532489267188  1.0000
  Zn  Zn7       1.0  0.3955316800955871  0.3675219380254404  0.0048524973898054  1.0000
  Zn  Zn8       1.0  0.6044729744254482  0.6324790768581893  0.5048527444908828  1.0000
  H   H1        1.0  0.1195773649642575  0.06160690887567453  0.2924086255358276  1.0000
  H   H2        1.0  0.8804138165317995  0.9383923763879809  0.7924075417879806  1.0000
  H   H3        1.0  0.28342340566481283  0.10780282323612769  0.2765172107642471  1.0000
  H   H4        1.0  0.7165677189261217  0.892196553592136  0.7765172392977818  1.0000
  H   H5        1.0  0.3695560643585125  0.2735411428162209  0.31021890832648313  1.0000
  H   H6        1.0  0.6304429866749929  0.7264569612105375  0.8102189555099456  1.0000
  H   H7        1.0  0.178730658493528  0.3154844772264553  0.3053217061210916  1.0000
  H   H8        1.0  0.8212661540740953  0.6845169970987044  0.8053214063574217  1.0000
  H   H9        1.0  0.11163460685651933  0.13852429313521947  0.3404550971514766  1.0000
  H   H10       1.0  0.8883645627172285  0.8614769899330811  0.8404545879237872  1.0000
  H   H11       1.0  0.30673656132960053  0.036614484602012005  0.3669892976956959  1.0000
  H   H12       1.0  0.6932626998414905  0.9633855278187651  0.8669889380095555  1.0000
  H   H13       1.0  0.46804899611669276  0.5783768190238804  0.32945580064704677  1.0000
  H   H14       1.0  0.5319501374918474  0.4216256451756876  0.8294560753497393  1.0000
  H   H15       1.0  0.3890642848755165  0.6150306592325946  0.2849443767258677  1.0000
  H   H16       1.0  0.6109302235270845  0.3849709213241397  0.7849441049513501  1.0000
  H   H17       1.0  0.39062484354258237  0.5223508546651771  0.4131785660070904  1.0000
  H   H18       1.0  0.6093757054732691  0.4776511327093119  0.9131784655551982  1.0000
  H   H19       1.0  0.31649945353035486  0.5753558438104208  0.3686293768175731  1.0000
  H   H20       1.0  0.6835031671485582  0.42464641144553633  0.868629106011646  1.0000
  H   H21       1.0  0.5995971128473414  0.968287048027463  0.3716903121109425  1.0000
  H   H22       1.0  0.40040550852731377  0.0317118363273252  0.8716900772682834  1.0000
  H   H23       1.0  0.661520253992478  0.8974142179645243  0.41608040661564866  1.0000
  H   H24       1.0  0.3384803019930729  0.1025866349346316  0.9160803404212956  1.0000
  H   H25       1.0  0.18060828741150914  0.3045499374262732  0.36931213837413424  1.0000
  H   H26       1.0  0.8193898733248305  0.6954522915262872  0.869312023540715  1.0000
  H   H27       1.0  0.4613799021650209  0.24852023714300486  0.3571126520841048  1.0000
  H   H28       1.0  0.5386193236385283  0.7514798321867886  0.8571126854891205  1.0000
  H   H29       1.0  0.9901055819413358  0.9151284440363626  0.1551472889644927  1.0000
  H   H30       1.0  0.009895144976397301  0.0848705647096253  0.6551481261190873  1.0000
  H   H31       1.0  0.9523288088311971  0.7639226385699017  0.1748536468689963  1.0000
  H   H32       1.0  0.04767199891843181  0.23607960989318133  0.6748533410342503  1.0000
  H   H33       1.0  0.7903065232402328  0.6426151059547108  0.1439272333533879  1.0000
  H   H34       1.0  0.20969527224939102  0.35738173752920227  0.6439267372693251  1.0000
  H   H35       1.0  0.7401002842999206  0.8340699301275335  0.1440844407786059  1.0000
  H   H36       1.0  0.259899273714801  0.16592466575744422  0.6440837949425174  1.0000
  H   H37       1.0  0.910875185582718  0.8769966058824681  0.1072400882565319  1.0000
  H   H38       1.0  0.0891253663552547  0.12300156115847469  0.6072396186750311  1.0000
  H   H39       1.0  0.021841474468210702  0.6662997336146788  0.0856772858940502  1.0000
  H   H40       1.0  0.9781590036756996  0.33369967542698475  0.5856770610797923  1.0000
  H   H41       1.0  0.4906617539573688  0.571558555220342  0.12475256578444062  1.0000
  H   H42       1.0  0.509336622655816  0.42843726421748574  0.6247524630824586  1.0000
  H   H43       1.0  0.45106955928977743  0.6793110446650841  0.1675346721348703  1.0000
  H   H44       1.0  0.5489312085636514  0.3206867749517243  0.6675345915543645  1.0000
  H   H45       1.0  0.5144791748772806  0.5959565700445636  0.03825862146626241  1.0000
  H   H46       1.0  0.4855189227978585  0.40404980757045195  0.5382585203439021  1.0000
  H   H47       1.0  0.4626631351581736  0.7013798950872568  0.0811050386114687  1.0000
  H   H48       1.0  0.5373328676461427  0.2986206356865253  0.5811045865981583  1.0000
  H   H49       1.0  0.1193497426463779  0.3638056636825553  0.08943914984791229  1.0000
  H   H50       1.0  0.8806507352819608  0.6361892526637618  0.5894392382611144  1.0000
  H   H51       1.0  0.1889555919469288  0.2702960584518763  0.046588058856947605  1.0000
  H   H52       1.0  0.8110480827444136  0.7297002393376459  0.5465881243865809  1.0000
  H   H53       1.0  0.7504961968245922  0.766269976485546  0.0805810238158813  1.0000
  H   H54       1.0  0.24950315089406425  0.23373057408431916  0.5805805525293907  1.0000
  H   H55       1.0  0.8202718621910634  0.5091857617822768  0.10002846865840098  1.0000
  H   H56       1.0  0.1797264361509576  0.49081355338137195  0.6000285080282736  1.0000
  H   H57       1.0  0.7472803445593853  0.7870903734312834  0.19944800959259368  1.0000
  H   H58       1.0  0.2527172078939516  0.21291283429413713  0.699447916019011  1.0000
  H   H59       1.0  0.7587306070904347  0.8285832487880996  0.2566332245009804  1.0000
  H   H60       1.0  0.24126711934646042  0.1714095696397422  0.756633136654834  1.0000
  H   H61       1.0  0.23999982198002814  0.30219800042970496  0.1949991439615957  1.0000
  H   H62       1.0  0.759998823294815  0.6978030030141936  0.6949988355733439  1.0000
  H   H63       1.0  0.2614778714854893  0.3104772763602028  0.2525184440993655  1.0000
  H   H64       1.0  0.7385209831883444  0.6895245134056224  0.7525185087490202  1.0000
  H   H65       1.0  0.0839096059845943  0.6542610476134242  0.45067909581887733  1.0000
  H   H66       1.0  0.9160989172962392  0.3457508226152797  0.9506792364065149  1.0000
  H   H67       1.0  0.0921341707008523  0.6365379083747484  0.5082193359763068  1.0000
  H   H68       1.0  0.9078682509951009  0.3634586049069242  0.008219330084749302  1.0000
  H   H69       1.0  0.6228048243523433  0.14693306589254723  0.5057209876967335  1.0000
  H   H70       1.0  0.37720205762627773  0.8530657196664038  0.0057197228980357005  1.0000
  H   H71       1.0  0.5504440693324569  0.14776536401318913  0.44937031657689636  1.0000
  H   H72       1.0  0.44954991570108405  0.852236381272924  0.949368454341098  1.0000
  C   C1        1.0  0.31025599486127936  0.9512410544013576  0.3060597435989578  1.0000
  C   C2        1.0  0.6897397013306305  0.0487592923241351  0.8060595361707571  1.0000
  C   C3        1.0  0.2386835295038452  0.08862614362712411  0.2953953631270352  1.0000
  C   C4        1.0  0.761309897304784  0.9113742533635049  0.7953950192369065  1.0000
  C   C5        1.0  0.25538823839774955  0.22819004853018754  0.3116436618302671  1.0000
  C   C6        1.0  0.7446108280029904  0.7718114005512078  0.8116435264340467  1.0000
  C   C7        1.0  0.2243097557549447  0.18823825918843073  0.3387121521304479  1.0000
  C   C8        1.0  0.7756882885591949  0.8117619105750505  0.8387120133176253  1.0000
  C   C9        1.0  0.3406561968533453  0.07612221970266118  0.3481836801666347  1.0000
  C   C10       1.0  0.6593418779564147  0.9238767777305272  0.8481835104772274  1.0000
  C   C11       1.0  0.3562457700066943  0.9421149369856182  0.331184502919605  1.0000
  C   C12       1.0  0.643753362947436  0.0578852817458397  0.8311841022077857  1.0000
  C   C13       1.0  0.4117465068818619  0.8049371292349434  0.34012116225882494  1.0000
  C   C14       1.0  0.5882537736713261  0.19506304359493495  0.8401207328515383  1.0000
  C   C15       1.0  0.4240592772237051  0.6854591184279997  0.3233376218880863  1.0000
  C   C16       1.0  0.5759398310535175  0.3145422632710009  0.8233377321091738  1.0000
  C   C17       1.0  0.3807583461808549  0.704520867864403  0.2987049176427732  1.0000
  C   C18       1.0  0.6192373202515071  0.2954784034858592  0.7987046616706195  1.0000
  C   C19       1.0  0.433779756771699  0.6192313749503743  0.40301813212300897  1.0000
  C   C20       1.0  0.5662207592811866  0.38077178872454454  0.9030178563732818  1.0000
  C   C21       1.0  0.39367707229069276  0.6495502412343797  0.378468059570551  1.0000
  C   C22       1.0  0.6063255767771807  0.35044972182051026  0.8784679800258388  1.0000
  C   C23       1.0  0.4525871718893201  0.7769937955863142  0.3665564513391217  1.0000
  C   C24       1.0  0.5474165501200972  0.2230062416965239  0.8665563869004559  1.0000
  C   C25       1.0  0.5513344468106213  0.8682870316941803  0.3801364027688692  1.0000
  C   C26       1.0  0.4486659804595519  0.1317140283176528  0.880136343237254  1.0000
  C   C27       1.0  0.5863233665594265  0.8296042105096147  0.4046356250041542  1.0000
  C   C28       1.0  0.4136793727926147  0.1703944840107354  0.9046355553585954  1.0000
  C   C29       1.0  0.1096361186563684  0.72043910981683  0.1459415912881639  1.0000
  C   C30       1.0  0.8903645650280155  0.27955659871316396  0.6459411793757185  1.0000
  C   C31       1.0  0.9691903308100934  0.7932986446682833  0.155086912773065  1.0000
  C   C32       1.0  0.030812630505472807  0.206701493367305  0.6550867970285522  1.0000
  C   C33       1.0  0.8303635914597792  0.7562942044675721  0.1396015472924077  1.0000
  C   C34       1.0  0.16963707294197408  0.24370265835018057  0.6396006920864821  1.0000
  C   C35       1.0  0.8673916951968152  0.7646192606011509  0.111955567444376  1.0000
  C   C36       1.0  0.1326077580302965  0.23537887367659496  0.6119550836576408  1.0000
  C   C37       1.0  0.9851087253150438  0.6472612435306431  0.10521262469647752  1.0000
  C   C38       1.0  0.014890703766226901  0.35273692959957975  0.6052124829175297  1.0000
  C   C39       1.0  0.12011056304205434  0.6549464452776731  0.1220791361750884  1.0000
  C   C40       1.0  0.8798878039973418  0.3450493895650908  0.6220788991894324  1.0000
  C   C41       1.0  0.2594606312658172  0.6012670701037094  0.1140335127400931  1.0000
  C   C42       1.0  0.7405377035400065  0.39872769334473895  0.6140330652723236  1.0000
  C   C43       1.0  0.3811096143874195  0.611285931724815  0.130368199230098  1.0000
  C   C44       1.0  0.6188899013538248  0.38871097870246274  0.6303679276632438  1.0000
  C   C45       1.0  0.36060358588551367  0.671582248283194  0.1539502273351658  1.0000
  C   C46       1.0  0.6393960177251117  0.328415644016225  0.6539501549258517  1.0000
  C   C47       1.0  0.4297601924858583  0.5476077508678399  0.050540385279227  1.0000
  C   C48       1.0  0.570236816464096  0.452392961613505  0.5505402849491432  1.0000
  C   C49       1.0  0.3997342793782437  0.6055079805185528  0.0740749274618011  1.0000
  C   C50       1.0  0.6002628104266989  0.39449147860051437  0.5740746529826453  1.0000
  C   C51       1.0  0.2865432171369022  0.5403129635605524  0.0886776913080425  1.0000
  C   C52       1.0  0.7134572683295205  0.4596853104380756  0.5886774177874727  1.0000
  C   C53       1.0  0.2085924452090566  0.4172695659407566  0.0788169523396078  1.0000
  C   C54       1.0  0.7914091205430225  0.5827287704686129  0.5788166664386409  1.0000
  C   C55       1.0  0.24649022451023947  0.365309332141642  0.0551347185634086  1.0000
  C   C56       1.0  0.7535101442603463  0.6346902528898893  0.5551342330768847  1.0000
  C   C57       1.0  0.5406773068348586  0.8024205722467384  0.2215637728449664  1.0000
  C   C58       1.0  0.4593191886866776  0.19757579592650396  0.7215635164854746  1.0000
  C   C59       1.0  0.7056206800950663  0.7989195209785863  0.21849123750791216  1.0000
  C   C60       1.0  0.2943746956720973  0.2010790948131671  0.7184918980704681  1.0000
  C   C61       1.0  0.8007668137971039  0.813303297638832  0.2376817899707717  1.0000
  C   C62       1.0  0.1992308516174219  0.18669186549968939  0.7376811343246173  1.0000
  C   C63       1.0  0.9656293155906609  0.8132668272992732  0.2344853056430978  1.0000
  C   C64       1.0  0.0343672467348313  0.1867361729447552  0.734485567505125  1.0000
  C   C65       1.0  0.25073838144395205  0.09337570690890118  0.2168618052508577  1.0000
  C   C66       1.0  0.7492625801599005  0.9066274172517834  0.716862208697883  1.0000
  C   C67       1.0  0.24961255345751707  0.25875049833795327  0.21397806793041244  1.0000
  C   C68       1.0  0.7503884046603916  0.7412548779529758  0.7139768165300212  1.0000
  C   C69       1.0  0.2554554116620196  0.3529412831246789  0.23344548390750217  1.0000
  C   C70       1.0  0.7445400245009068  0.6470594820068953  0.7334466779806519  1.0000
  C   C71       1.0  0.25182288515792106  0.5183191575431182  0.2305249170539554  1.0000
  C   C72       1.0  0.7481714317908938  0.4816838543376391  0.7305248304448497  1.0000
  C   C73       1.0  0.8769156919180929  0.6413325776587229  0.4730128988890456  1.0000
  C   C74       1.0  0.1230884250005246  0.35867131722790185  0.9730137021918139  1.0000
  C   C75       1.0  0.04164753343257391  0.6475070264175998  0.4697658849009869  1.0000
  C   C76       1.0  0.958357697719123  0.35250024603747226  0.9697656548790121  1.0000
  C   C77       1.0  0.13569139294315852  0.6451013319682631  0.4892340613549067  1.0000
  C   C78       1.0  0.8643127752188562  0.35490023394278575  0.989234381950581  1.0000
  C   C79       1.0  0.3005888920100547  0.6499372532428183  0.4864427000419767  1.0000
  C   C80       1.0  0.6994130315406579  0.3500631998128512  0.986443191150812  1.0000
  C   C81       1.0  0.6035426200337142  0.9360553046744046  0.4845142895781862  1.0000
  C   C82       1.0  0.39645818101042357  0.0639451539071629  0.9845125533338575  1.0000
  C   C83       1.0  0.602183278378682  0.10137583976504771  0.4871133558166179  1.0000
  C   C84       1.0  0.3978175319741339  0.8986246038381652  0.9871124151856209  1.0000
  C   C85       1.0  0.5728035579791282  0.19291550377791114  0.4679472885722546  1.0000
  C   C86       1.0  0.4271982924910064  0.8070828203487681  0.9679450576305584  1.0000
  C   C87       1.0  0.5706487935259119  0.35816552326653545  0.4706834935766864  1.0000
  C   C88       1.0  0.4293497267954294  0.6418350038263085  0.9706812904356923  1.0000
  N   N1        1.0  0.3230804459525416  0.8334634484817444  0.2903687463817946  1.0000
  N   N2        1.0  0.6769151940499044  0.1665369886567873  0.7903685179585268  1.0000
  N   N3        1.0  0.5287675273559813  0.7076097102398008  0.4158239183571339  1.0000
  N   N4        1.0  0.47123414672985586  0.2923922674840825  0.9158238343729082  1.0000
  N   N5        1.0  0.22871135740039963  0.7264167466526318  0.1614630399214221  1.0000
  N   N6        1.0  0.771289388710592  0.2735811079493971  0.6614629904559167  1.0000
  N   N7        1.0  0.35479065510683944  0.429069246775839  0.04130275470041771  1.0000
  N   N8        1.0  0.6452107865718091  0.5709326590586202  0.5413020815761485  1.0000
  O   O1        1.0  0.23449969911735738  0.3224088420595024  0.3537749928891571  1.0000
  O   O2        1.0  0.7654995181556146  0.6775923642571868  0.8537748754000489  1.0000
  O   O3        1.0  0.4834669434060431  0.1503930340415494  0.3499157850281236  1.0000
  O   O4        1.0  0.5165300254312584  0.8496070655734512  0.8499156127971191  1.0000
  O   O5        1.0  0.7333087145970012  0.7339113382994  0.09774240513328182  1.0000
  O   O6        1.0  0.26668845653891543  0.2660868666914809  0.5977419302445739  1.0000
  O   O7        1.0  0.9203059298213818  0.5000791154889088  0.1072378767829534  1.0000
  O   O8        1.0  0.07969238749381452  0.49991792262437684  0.607237904171747  1.0000
  O   O9        1.0  0.4880148898712308  0.788444122977822  0.24353578105939283  1.0000
  O   O10       1.0  0.5119816774893523  0.21154988307991832  0.7435360887291083  1.0000
  O   O11       1.0  0.46500202776714167  0.819220913181745  0.2015324989011447  1.0000
  O   O12       1.0  0.5349966374825712  0.1807789348605411  0.7015326271617113  1.0000
  O   O13       1.0  0.04207363013834  0.8542353206327178  0.2534798776802774  1.0000
  O   O14       1.0  0.9579252348229375  0.1457686991009481  0.7534804299160953  1.0000
  O   O15       1.0  0.018254092132096403  0.7723725453483041  0.21344651049447796  1.0000
  O   O16       1.0  0.9817435070284618  0.2276294639611436  0.71344667765824  1.0000
  O   O17       1.0  0.291734507012869  0.0396916759231161  0.2378169936746701  1.0000
  O   O18       1.0  0.7082698730007949  0.9603102265133715  0.7378175708274597  1.0000
  O   O19       1.0  0.21028807341324557  0.017791666744813  0.19772211150201  1.0000
  O   O20       1.0  0.789709466016177  0.9822093154159434  0.6977221326638771  1.0000
  O   O21       1.0  0.23565688883412858  0.5940620159523602  0.2505866515322168  1.0000
  O   O22       1.0  0.764337493112386  0.4059386448211199  0.7505867662046626  1.0000
  O   O23       1.0  0.2659230322741664  0.5712801177457792  0.20857103784433662  1.0000
  O   O24       1.0  0.7340734338309433  0.4287219140634805  0.7085715194524056  1.0000
  O   O25       1.0  0.7999425578985466  0.6332109283254682  0.4529595667059496  1.0000
  O   O26       1.0  0.2000659803942  0.3668031642690579  0.9529607506052643  1.0000
  O   O27       1.0  0.8257737720072598  0.6455638677536797  0.49522065122535963  1.0000
  O   O28       1.0  0.17422929515296204  0.35443542255934796  0.9952214605829965  1.0000
  O   O29       1.0  0.354474141334002  0.6781765715748094  0.4649193737686801  1.0000
  O   O30       1.0  0.6455276880328569  0.3218184167269412  0.9649200509062723  1.0000
  O   O31       1.0  0.3752309450590801  0.624690580489002  0.5063460999623501  1.0000
  O   O32       1.0  0.6247726197441209  0.3753171267243188  0.0063460624865002  1.0000
  O   O33       1.0  0.6078028173613605  0.8817055051446162  0.4625207851367179  1.0000
  O   O34       1.0  0.3921923303614748  0.11829616995859743  0.96251922632824  1.0000
  O   O35       1.0  0.5993635844055164  0.862044551935902  0.5049204014322441  1.0000
  O   O36       1.0  0.40064441030237674  0.13795424382956872  0.0049186975638591  1.0000
  O   O37       1.0  0.5424469098312701  0.43250799697879216  0.4508533768892917  1.0000
  O   O38       1.0  0.4575660456614303  0.5674938348291079  0.9508515630066015  1.0000
  O   O39       1.0  0.5985115935869915  0.4128395383361081  0.49216475316907093  1.0000
  O   O40       1.0  0.40148922458642033  0.5871575229014995  0.9921621823356332  1.0000
