data_image0
_chemical_formula_structural       Zn4H60C60N12O28
_chemical_formula_sum              "Zn4 H60 C60 N12 O28"
_cell_length_a       7.126965241377848
_cell_length_b       13.54959640506646
_cell_length_c       22.051417342638604
_cell_angle_alpha    89.99970853046796
_cell_angle_beta     92.80160129715115
_cell_angle_gamma    89.9998099329335

_space_group_name_H-M_alt    "P 1"
_space_group_IT_number       1

loop_
  _space_group_symop_operation_xyz
  'x, y, z'

loop_
  _atom_site_type_symbol
  _atom_site_label
  _atom_site_symmetry_multiplicity
  _atom_site_fract_x
  _atom_site_fract_y
  _atom_site_fract_z
  _atom_site_occupancy
  Zn  Zn1       1.0  0.40174594119861945  0.4102487313959173  0.18962516381274241  1.0000
  Zn  Zn2       1.0  0.5982614415175933  0.91024893495198  0.3103687326509927  1.0000
  Zn  Zn3       1.0  0.5982699895618993  0.5897443256538465  0.8103746736833131  1.0000
  Zn  Zn4       1.0  0.4017473608418739  0.08974116999990402  0.6896278421885782  1.0000
  H   H1        1.0  0.6118705190483097  0.6592880756954427  0.2783479584100093  1.0000
  H   H2        1.0  0.38811624577476067  0.15929943800300347  0.22164964673874013  1.0000
  H   H3        1.0  0.3881271353485118  0.34071014757815016  0.7216511997357316  1.0000
  H   H4        1.0  0.6118995502116888  0.840700261328081  0.7783461074794147  1.0000
  H   H5        1.0  0.8374436066967019  0.5472508093326454  0.2277299191301125  1.0000
  H   H6        1.0  0.1625413857746594  0.0472569672519185  0.2722757260053896  1.0000
  H   H7        1.0  0.1625483838707069  0.45275553227465787  0.7722678084840312  1.0000
  H   H8        1.0  0.8374689709929442  0.9527434700908302  0.7277254031383791  1.0000
  H   H9        1.0  0.2914017253968666  0.7014458682835778  0.3246017212724226  1.0000
  H   H10       1.0  0.7085902440948786  0.20145116770635954  0.17539218758456343  1.0000
  H   H11       1.0  0.7086055524475512  0.29854866486089543  0.6753912066318222  1.0000
  H   H12       1.0  0.29140222557902007  0.7985573879284047  0.824620058309307  1.0000
  H   H13       1.0  0.04807150681115498  0.8050489554482709  0.3739341536529324  1.0000
  H   H14       1.0  0.9519169296237705  0.30504908610263476  0.1260593858831172  1.0000
  H   H15       1.0  0.9519373105128962  0.19494336358980746  0.6260628748794232  1.0000
  H   H16       1.0  0.04807527056899372  0.6949535653313319  0.8739446934859317  1.0000
  H   H17       1.0  0.20993569859683697  0.5774367047500205  0.058610419135853  1.0000
  H   H18       1.0  0.7900629206425618  0.07744039766145511  0.44138895033461983  1.0000
  H   H19       1.0  0.7900688446877452  0.42255192415260007  0.941384742544983  1.0000
  H   H20       1.0  0.20993757312806588  0.9225615157526406  0.5586111499125792  1.0000
  H   H21       1.0  0.9903690434883146  0.4899239347905535  0.1255959116820051  1.0000
  H   H22       1.0  0.009635152919131005  0.9899327216856547  0.3744031370764844  1.0000
  H   H23       1.0  0.009642493454180098  0.5100654321389156  0.874398429391711  1.0000
  H   H24       1.0  0.9903836920535979  0.010070667759407596  0.6255999109920651  1.0000
  H   H25       1.0  0.7662128674953051  0.7009195884487837  0.955087157766414  1.0000
  H   H26       1.0  0.2338079055772724  0.20091644149037785  0.544914597410191  1.0000
  H   H27       1.0  0.23380463264825121  0.29908306296059806  0.04491768773138461  1.0000
  H   H28       1.0  0.7662150936744113  0.7990854718997511  0.4550866879474  1.0000
  H   H29       1.0  0.5283402909596261  0.6143410288675072  0.016829404886458104  1.0000
  H   H30       1.0  0.471676257036826  0.114341961927984  0.4831678025596986  1.0000
  H   H31       1.0  0.47166863113715607  0.38566088453902125  0.9831707995048761  1.0000
  H   H32       1.0  0.5283552753678791  0.8856540472064223  0.5168367628260242  1.0000
  H   H33       1.0  0.7734116137898751  0.386502039374747  0.2577945157152044  1.0000
  H   H34       1.0  0.22656969424720327  0.8865056515363676  0.24221273854031722  1.0000
  H   H35       1.0  0.2265791817359926  0.6134851134438648  0.7422095463215186  1.0000
  H   H36       1.0  0.7734239107026752  0.11348666748526169  0.7577913582027733  1.0000
  H   H37       1.0  0.0130103482720472  0.35660486578746026  0.3174802774561769  1.0000
  H   H38       1.0  0.9869542071361295  0.8566062101245391  0.18252368920138912  1.0000
  H   H39       1.0  0.9869804621977919  0.6433904053522423  0.6825242382637882  1.0000
  H   H40       1.0  0.013022601035245891  0.14339053708081198  0.8174820140316966  1.0000
  H   H41       1.0  0.006264907760751701  0.2367539283952524  0.3514245261486764  1.0000
  H   H42       1.0  0.9937047138875953  0.7367592330526875  0.148580333362375  1.0000
  H   H43       1.0  0.9937231082419302  0.763240604715719  0.6485804085541248  1.0000
  H   H44       1.0  0.006280462702619601  0.26324268035821774  0.8514236592210906  1.0000
  H   H45       1.0  0.9692640049284406  0.34369854715120607  0.39655419202758685  1.0000
  H   H46       1.0  0.030687923246645692  0.8437080701429592  0.1034473916033107  1.0000
  H   H47       1.0  0.030716942570187207  0.6562908197662125  0.6034492948077244  1.0000
  H   H48       1.0  0.9692648399511512  0.15629458133957289  0.896553025885325  1.0000
  H   H49       1.0  0.4786970450907617  0.2707832652513957  0.36570779526997643  1.0000
  H   H50       1.0  0.521280527603828  0.7707998204030561  0.1342897993183243  1.0000
  H   H51       1.0  0.5212924504765013  0.7292164340543791  0.634299425263599  1.0000
  H   H52       1.0  0.4787054846870901  0.2292227579007431  0.8656969701277148  1.0000
  H   H53       1.0  0.6670987200310987  0.26545724766845774  0.42315101234682834  1.0000
  H   H54       1.0  0.33286775691723136  0.7654694320142851  0.0768496364659867  1.0000
  H   H55       1.0  0.3328949298280008  0.7345372854355787  0.576854445481743  1.0000
  H   H56       1.0  0.6670988288441747  0.23455093218876039  0.9231441491223009  1.0000
  H   H57       1.0  0.6396768485761655  0.17033068473585902  0.36709618838145275  1.0000
  H   H58       1.0  0.3602957769523556  0.6703371914513878  0.1329007538400901  1.0000
  H   H59       1.0  0.36030279898189826  0.8296660624631897  0.6329104569590456  1.0000
  H   H60       1.0  0.6396902353823818  0.32967284035323974  0.8670860156262066  1.0000
  C   C1        1.0  0.7633403231828026  0.6646533869044828  0.2865642017374199  1.0000
  C   C2        1.0  0.23664803347006108  0.16466507369845118  0.2134402088847054  1.0000
  C   C3        1.0  0.236658705992987  0.3353440983422756  0.7134340663741625  1.0000
  C   C4        1.0  0.7633567343580835  0.835335363645555  0.786561758222355  1.0000
  C   C5        1.0  0.8902482912337462  0.6035873661234277  0.2595285610320985  1.0000
  C   C6        1.0  0.1097375028452419  0.10359609132449782  0.24047056775332007  1.0000
  C   C7        1.0  0.10975342759780199  0.3964123332240561  0.7404661122197922  1.0000
  C   C8        1.0  0.8902589264726116  0.8964095122212469  0.7595340173793801  1.0000
  C   C9        1.0  0.08316659757335292  0.6147160001976603  0.2729398367486624  1.0000
  C   C10       1.0  0.9168203737754936  0.11472420875994518  0.2270547364884408  1.0000
  C   C11       1.0  0.9168378708083934  0.3852844371842393  0.7270530564313376  1.0000
  C   C12       1.0  0.0831705564084615  0.8852895130986694  0.7729534087725513  1.0000
  C   C13       1.0  0.14258765976644128  0.6894907032954618  0.313336240661279  1.0000
  C   C14       1.0  0.8574171105801723  0.18949565737977278  0.1866601315067058  1.0000
  C   C15       1.0  0.857422607187864  0.31050382982375163  0.6866621663139156  1.0000
  C   C16       1.0  0.142570785607866  0.8105092081574341  0.8133411736085847  1.0000
  C   C17       1.0  0.012197611378653102  0.7486858232693476  0.34020777065003227  1.0000
  C   C18       1.0  0.9877870045487639  0.24869225568548356  0.15978589884395686  1.0000
  C   C19       1.0  0.9877985634638904  0.25130428169197927  0.6597891016696948  1.0000
  C   C20       1.0  0.012215073597836598  0.7513133478514292  0.8402196631108723  1.0000
  C   C21       1.0  0.22300547681599167  0.5482232417353359  0.2451410890459229  1.0000
  C   C22       1.0  0.7769803895433328  0.0482321944025372  0.254848690929343  1.0000
  C   C23       1.0  0.7769962420232942  0.45177424352404927  0.754853584209549  1.0000
  C   C24       1.0  0.2230102112830963  0.951771933116049  0.7451494730273822  1.0000
  C   C25       1.0  0.058335960187378105  0.5849898485862114  0.0530533010587249  1.0000
  C   C26       1.0  0.9416738290721726  0.084999143048428  0.44694572917024544  1.0000
  C   C27       1.0  0.9416784460890284  0.4149987803037972  0.9469428895163078  1.0000
  C   C28       1.0  0.0583336134239403  0.9150079365743693  0.5530521893736164  1.0000
  C   C29       1.0  0.9344061780163389  0.5362598330460244  0.08860937018698681  1.0000
  C   C30       1.0  0.06559123424124638  0.03627311928966039  0.4113873927245137  1.0000
  C   C31       1.0  0.06560265427487622  0.46373396204887735  0.9113881120393331  1.0000
  C   C32       1.0  0.934424786314537  0.9637310081891853  0.5886151669317741  1.0000
  C   C33       1.0  0.7400813529711529  0.546104617815132  0.0773610917113601  1.0000
  C   C34       1.0  0.2599216094198126  0.04611452973710329  0.42263570883859103  1.0000
  C   C35       1.0  0.2599301989307818  0.45388843925925926  0.9226337030527462  1.0000
  C   C36       1.0  0.7400973253945722  0.9538866456085059  0.5773700614116564  1.0000
  C   C37       1.0  0.8049582293507811  0.6557209979303309  0.9945040145096797  1.0000
  C   C38       1.0  0.19505718064146996  0.15571898158560055  0.5054960024315065  1.0000
  C   C39       1.0  0.19505359202197778  0.3442809154623063  0.005498946774480399  1.0000
  C   C40       1.0  0.8049615145926055  0.8442888360545809  0.4945025086663648  1.0000
  C   C41       1.0  0.6777679552535644  0.606330282349546  0.0287306119929198  1.0000
  C   C42       1.0  0.3222430597313775  0.10633820930521407  0.4712674592781241  1.0000
  C   C43       1.0  0.3222366628591118  0.39366794092531876  0.9712668181541844  1.0000
  C   C44       1.0  0.6777800892331953  0.89366665618342  0.5287383630382223  1.0000
  C   C45       1.0  0.6065718294804511  0.493737699286612  0.1154703575923719  1.0000
  C   C46       1.0  0.3934280363256234  0.9937368962868902  0.3845259046138167  1.0000
  C   C47       1.0  0.39343567291783177  0.5062656901817917  0.884529375742865  1.0000
  C   C48       1.0  0.6065739969400993  0.0062583748446271995  0.615478296268634  1.0000
  C   C49       1.0  0.6719825519124853  0.3470469624136569  0.2850517197266385  1.0000
  C   C50       1.0  0.32798619458579736  0.8470476769523713  0.21494960769576468  1.0000
  C   C51       1.0  0.3280040144522117  0.6529475707042564  0.7149518365297496  1.0000
  C   C52       1.0  0.6720058109796979  0.1529512843594104  0.7850485736266535  1.0000
  C   C53       1.0  0.9446521908851864  0.31116420772248427  0.3511964973065105  1.0000
  C   C54       1.0  0.055315416482137905  0.8111681465573923  0.1488053823428785  1.0000
  C   C55       1.0  0.055335765223062994  0.688831801454789  0.6488066226084968  1.0000
  C   C56       1.0  0.9446682505808113  0.18883376686804348  0.8511954170087606  1.0000
  C   C57       1.0  0.6253959092723987  0.2498201144482834  0.37550638570051126  1.0000
  C   C58       1.0  0.3745790453500319  0.7498274047830477  0.124492602983338  1.0000
  C   C59       1.0  0.3745865327605599  0.7501751566914124  0.6244998406607324  1.0000
  C   C60       1.0  0.6254057119817205  0.2501841030626224  0.8754986860867504  1.0000
  N   N1        1.0  0.8255810524439439  0.7348257372009285  0.3267940949004497  1.0000
  N   N2        1.0  0.17441358318625083  0.23482826872258034  0.1732024630443973  1.0000
  N   N3        1.0  0.1744207262871882  0.2651710100215253  0.6732023931416222  1.0000
  N   N4        1.0  0.8255841909710853  0.7651751207413894  0.8268003246638215  1.0000
  N   N5        1.0  0.9949455573456943  0.6462582309993365  0.0069125136685031  1.0000
  N   N6        1.0  0.005065238651688698  0.14626429966639173  0.4930872434326972  1.0000
  N   N7        1.0  0.005068968691226398  0.3537355640810559  0.9930873064690005  1.0000
  N   N8        1.0  0.9949561761956716  0.8537420419239083  0.5069085802041542  1.0000
  N   N9        1.0  0.7437960844082311  0.3061451033236651  0.3359292462382371  1.0000
  N   N10       1.0  0.2561729178189793  0.8061493135980771  0.1640713058895855  1.0000
  N   N11       1.0  0.256187657547251  0.69384795373994  0.6640738216094704  1.0000
  N   N12       1.0  0.7438162333720442  0.19385407589808776  0.8359254796219132  1.0000
  O   O1        1.0  0.15986823244584508  0.46661505812662796  0.2215689457236891  1.0000
  O   O2        1.0  0.8401190904353728  0.9666269258077517  0.2784245256677309  1.0000
  O   O3        1.0  0.8401364006649175  0.5333757848527155  0.7784289381316825  1.0000
  O   O4        1.0  0.15987859386226688  0.03338384396121799  0.7215755398504555  1.0000
  O   O5        1.0  0.39280239286767943  0.5732806698658237  0.24540785674994234  1.0000
  O   O6        1.0  0.607184763096086  0.07328622196354219  0.2545836744437437  1.0000
  O   O7        1.0  0.607199325956138  0.42672124356973734  0.7545868164983744  1.0000
  O   O8        1.0  0.39281165124429407  0.9267208576428203  0.7454204569902175  1.0000
  O   O9        1.0  0.43034954953788673  0.5025521774191332  0.1047831762455971  1.0000
  O   O10       1.0  0.5696466934945618  0.0025485081034518  0.3952136782040511  1.0000
  O   O11       1.0  0.5696620472474904  0.49745047403128945  0.8952129795920741  1.0000
  O   O12       1.0  0.43035796955569333  0.9974438109308253  0.6047851130416504  1.0000
  O   O13       1.0  0.6715182365138831  0.44058384625925123  0.16015153118774353  1.0000
  O   O14       1.0  0.3284735722210356  0.940584999913497  0.3398447985460963  1.0000
  O   O15       1.0  0.3284822422895814  0.5594165910980136  0.8398481153654842  1.0000
  O   O16       1.0  0.671531150703025  0.05941174728938139  0.6601558074778637  1.0000
  O   O17       1.0  0.7009340856212418  0.7890871200119846  0.3551152712022798  1.0000
  O   O18       1.0  0.29904464422100563  0.28908893751948034  0.1448786520790364  1.0000
  O   O19       1.0  0.299064883667846  0.2109096272129847  0.6448811821250828  1.0000
  O   O20       1.0  0.7009445518998663  0.7109107618241881  0.8551194945274858  1.0000
  O   O21       1.0  0.11406927664885562  0.6932740729349902  0.9751394420955677  1.0000
  O   O22       1.0  0.8859515797498007  0.19327663086878738  0.5248632451578104  1.0000
  O   O23       1.0  0.8859481935706838  0.30672267424328237  0.024864496019056  1.0000
  O   O24       1.0  0.114071299692398  0.8067341388888566  0.47513441061465045  1.0000
  O   O25       1.0  0.5004372610681287  0.34160347207347996  0.26839926752276  1.0000
  O   O26       1.0  0.49953823260809577  0.8416126145193202  0.23159263663064417  1.0000
  O   O27       1.0  0.49954779580023256  0.6583822047066049  0.7316010955161047  1.0000
  O   O28       1.0  0.5004606318464013  0.15839225104190294  0.7684006408091407  1.0000
