data_image0
_chemical_formula_structural       Hg2H22C22N6Cl4
_chemical_formula_sum              "Hg2 H22 C22 N6 Cl4"
_cell_length_a       7.83989026003106
_cell_length_b       8.20251575910722
_cell_length_c       11.239618081874502
_cell_angle_alpha    103.77202437550999
_cell_angle_beta     95.166596515459
_cell_angle_gamma    113.97615321090227

_space_group_name_H-M_alt    "P 1"
_space_group_IT_number       1

loop_
  _space_group_symop_operation_xyz
  'x, y, z'

loop_
  _atom_site_type_symbol
  _atom_site_label
  _atom_site_symmetry_multiplicity
  _atom_site_fract_x
  _atom_site_fract_y
  _atom_site_fract_z
  _atom_site_occupancy
  Hg  Hg1       1.0  0.9402648383674472  0.5545698709346425  0.7123185127045772  1.0000
  Hg  Hg2       1.0  0.059731989820093576  0.4454311281241202  0.2876807888364823  1.0000
  H   H1        1.0  0.8472536871848887  0.844221363744957  0.6698631076237546  1.0000
  H   H2        1.0  0.15274890226339718  0.15578105750274324  0.330137687541928  1.0000
  H   H3        1.0  0.48932762890664355  0.8068251555656122  0.6567168010961595  1.0000
  H   H4        1.0  0.5106768728911177  0.19317867292890162  0.34328524581330555  1.0000
  H   H5        1.0  0.1824279523697995  0.8144176831496565  0.5855266648612413  1.0000
  H   H6        1.0  0.8175752906698435  0.1855833408126486  0.4144730398145455  1.0000
  H   H7        1.0  0.18724389351463339  0.1252028426574583  0.5880861376208131  1.0000
  H   H8        1.0  0.812754834924668  0.8747995499137037  0.41190996397875074  1.0000
  H   H9        1.0  0.49904250326029836  0.40872121437252673  0.6515573403550973  1.0000
  H   H10       1.0  0.5009607397793372  0.5912798095897712  0.3484423643206823  1.0000
  H   H11       1.0  0.9320279807110408  0.14614921086293003  0.6572303020063258  1.0000
  H   H12       1.0  0.06797777984484554  0.8538574221637917  0.3427740871368172  1.0000
  H   H13       1.0  0.9302874509364754  0.22885120578195034  0.8153199347499154  1.0000
  H   H14       1.0  0.06971452123047324  0.7711498269340566  0.18468414098420283  1.0000
  H   H15       1.0  0.7444197139009956  0.11714281066761599  0.9439783909640056  1.0000
  H   H16       1.0  0.2555778090270238  0.8828540107824241  0.056023790839823666  1.0000
  H   H17       1.0  0.6614368878480333  0.9978231930062763  0.12127562201784775  1.0000
  H   H18       1.0  0.33855869125957117  0.0021750125078056994  0.8787248986377562  1.0000
  H   H19       1.0  0.6660272843957312  0.69020085443141  0.1245253144953438  1.0000
  H   H20       1.0  0.33396575298333175  0.309794541569751  0.8754727832996423  1.0000
  H   H21       1.0  0.758271082206903  0.52410242023781  0.9463161276370824  1.0000
  H   H22       1.0  0.2417270289510682  0.4758985838016585  0.05368325453092381  1.0000
  C   C1        1.0  0.6561744619691365  0.10393667736654072  0.6903694487528893  1.0000
  C   C2        1.0  0.34382618849782176  0.8960671334389618  0.3096314659386863  1.0000
  C   C3        1.0  0.48717869161125543  0.9381504399467387  0.6549568799635566  1.0000
  C   C4        1.0  0.5128303151086654  0.06185200895138371  0.34504520867390187  1.0000
  C   C5        1.0  0.315764249979452  0.9430177367328839  0.6166313876132321  1.0000
  C   C6        1.0  0.6842300146868042  0.0569832551113407  0.3833686430110035  1.0000
  C   C7        1.0  0.31709922230293586  0.1134850568204726  0.6167720841333946  1.0000
  C   C8        1.0  0.6829091259865336  0.8865187838692848  0.3832293143198484  1.0000
  C   C9        1.0  0.4909012542951032  0.27312723638677744  0.6524693493822795  1.0000
  C   C10       1.0  0.5090930418420854  0.7268709641465919  0.3475310906463847  1.0000
  C   C11       1.0  0.8498251900629511  0.1108733173244971  0.7294761836765672  1.0000
  C   C12       1.0  0.1501786823557509  0.8891291089039087  0.2705246921160551  1.0000
  C   C13       1.0  0.7975203816318909  0.8832249117338336  0.8474164766774946  1.0000
  C   C14       1.0  0.20247650465842779  0.11677049920945141  0.1525818629983178  1.0000
  C   C15       1.0  0.7473860311468242  0.9862766356928674  0.9457681300076145  1.0000
  C   C16       1.0  0.2526108042993584  0.0137243716065427  0.0542338425446189  1.0000
  C   C17       1.0  0.700289712175625  0.9180977280502562  0.04565199803367661  1.0000
  C   C18       1.0  0.2997072055856266  0.08189489158216653  0.9543467510465716  1.0000
  C   C19       1.0  0.7021083545562803  0.7489965548514876  0.04805981635693264  1.0000
  C   C20       1.0  0.29789230074977263  0.2510072614477821  0.9519428790087545  1.0000
  C   C21       1.0  0.7531540985872027  0.6557430530976234  0.9484974795994319  1.0000
  C   C22       1.0  0.2468466390339188  0.34425237553466564  0.05150199229427701  1.0000
  N   N1        1.0  0.6563323395228053  0.2676357120414324  0.6879625886170543  1.0000
  N   N2        1.0  0.3436721864872537  0.7323653169015785  0.3120371966856722  1.0000
  N   N3        1.0  0.8467203858502258  0.9414603225502914  0.7460167546800348  1.0000
  N   N4        1.0  0.1532834623561783  0.058544903229616814  0.2539863827193258  1.0000
  N   N5        1.0  0.8006863905499273  0.7203220784748298  0.850923811213711  1.0000
  N   N6        1.0  0.1993110645971399  0.27968032010315375  0.1490757711071353  1.0000
  Cl  Cl1       1.0  0.23458063617903946  0.6028337218462879  0.833450171572835  1.0000
  Cl  Cl2       1.0  0.7654258796733087  0.39715749416245666  0.16653469635027554  1.0000
  Cl  Cl3       1.0  0.8197599692736264  0.5957719156843242  0.5136477137960398  1.0000
  Cl  Cl4       1.0  0.1802361956443832  0.40423046967230664  0.48634911688669297  1.0000
