data_image0
_chemical_formula_structural       Zn2H20C45N4O30
_chemical_formula_sum              "Zn2 H20 C45 N4 O30"
_cell_length_a       10.18055140749576
_cell_length_b       11.112857956971146
_cell_length_c       23.455360439045233
_cell_angle_alpha    87.01865580618828
_cell_angle_beta     90.67055235135349
_cell_angle_gamma    91.64301464235547

_space_group_name_H-M_alt    "P 1"
_space_group_IT_number       1

loop_
  _space_group_symop_operation_xyz
  'x, y, z'

loop_
  _atom_site_type_symbol
  _atom_site_label
  _atom_site_symmetry_multiplicity
  _atom_site_fract_x
  _atom_site_fract_y
  _atom_site_fract_z
  _atom_site_occupancy
  Zn  Zn1       1.0  0.6280797099122921  0.46350026290300406  0.5080671910780908  1.0000
  Zn  Zn2       1.0  0.34408950876569827  0.4810917345906347  0.49939371403397104  1.0000
  H   H1        1.0  0.6385251166452264  0.39467592953562297  0.21571284679735922  1.0000
  H   H2        1.0  0.6421671764414469  0.8193309517155711  0.5073889460665129  1.0000
  H   H3        1.0  0.8993907156539223  0.31364199213485483  0.6260126927512248  1.0000
  H   H4        1.0  0.805004546298498  0.5291040470784838  0.4300947873289118  1.0000
  H   H5        1.0  0.22564078265321547  0.29120940778646087  0.5648996819672973  1.0000
  H   H6        1.0  0.7982234670907928  0.8424936893029981  0.0763605578283943  1.0000
  H   H7        1.0  0.16852552748652272  0.6533576597927818  0.4998067748148785  1.0000
  H   H8        1.0  0.23685391570682407  0.29753910862788757  0.10165966227216224  1.0000
  H   H9        1.0  0.2127118788754743  0.388838645678412  0.9127824816413724  1.0000
  H   H10       1.0  0.6336591676201735  0.3254288342468854  0.3733270139156062  1.0000
  H   H11       1.0  0.43651445112980264  0.7327237942499849  0.38133942054827236  1.0000
  H   H12       1.0  0.43925229661275716  0.7325177397286993  0.22091084766275773  1.0000
  H   H13       1.0  0.3192005167673742  0.6897806591603696  0.8097993577100057  1.0000
  H   H14       1.0  0.7572302103266749  0.7538036948262954  0.8897194235636975  1.0000
  H   H15       1.0  0.2990050292178879  0.572022683278476  0.6259982793026994  1.0000
  H   H16       1.0  0.6198058465328842  0.2835307225115642  0.6595045071134109  1.0000
  H   H17       1.0  0.6423886156335995  0.4229271223245377  0.8488005944939445  1.0000
  H   H18       1.0  0.32395561463346206  0.023603349586203092  0.3610265854453659  1.0000
  H   H19       1.0  0.5856762566853319  0.09704493330973209  0.5596758133559518  1.0000
  H   H20       1.0  0.18724316744316383  0.9366485278578123  0.4478996992034964  1.0000
  C   C1        1.0  0.4512020960579549  0.7120339822658792  0.5004462905547414  1.0000
  C   C2        1.0  0.4167571093884916  0.5097786962033766  0.12711373438671103  1.0000
  C   C3        1.0  0.5953469903380366  0.4652502728937192  0.23951885224978756  1.0000
  C   C4        1.0  0.5311221255544182  0.5255372774691195  0.3945693945478582  1.0000
  C   C5        1.0  0.5966709183483232  0.45324434895906746  0.29921407912792836  1.0000
  C   C6        1.0  0.539265404923185  0.5421649476943815  0.3307013543180801  1.0000
  C   C7        1.0  0.4843993507620041  0.643986811350416  0.3021698496389646  1.0000
  C   C8        1.0  0.48364919279735114  0.6540506440207493  0.24239411444255418  1.0000
  C   C9        1.0  0.53720663497527  0.5639954393794894  0.21183058782595054  1.0000
  C   C10       1.0  0.3950210451544932  0.5936492553582581  0.7538181339069965  1.0000
  C   C11       1.0  0.39033021797026624  0.5618522558233677  0.6960328404558211  1.0000
  C   C12       1.0  0.6950704191811639  0.7023269501397635  0.9624984343413987  1.0000
  C   C13       1.0  0.4846794037703503  0.48352598434600946  0.6770859746211997  1.0000
  C   C14       1.0  0.5787429573247634  0.42973155980571687  0.7151048489473979  1.0000
  C   C15       1.0  0.5788249335005561  0.45855520617014633  0.7725792769628229  1.0000
  C   C16       1.0  0.4504144188547841  0.2530794201596294  0.48176776246004493  1.0000
  C   C17       1.0  0.48730606480989275  0.5409881064555505  0.7910200562691756  1.0000
  C   C18       1.0  0.39347178163693297  0.0435856797779834  0.4501246795873968  1.0000
  C   C19       1.0  0.4394358620719104  0.1190448816301029  0.48964841275238785  1.0000
  C   C20       1.0  0.3705074640417791  0.9142465983433042  0.4639235806569744  1.0000
  C   C21       1.0  0.46639725181163527  0.8413425103462587  0.4854962511177092  1.0000
  C   C22       1.0  0.9136906385229865  0.39924902852853006  0.5372867682710734  1.0000
  C   C23       1.0  0.7067028632140762  0.7004394874465588  0.023306779792960704  1.0000
  C   C24       1.0  0.0571938815252224  0.4016044613981577  0.5342103192130878  1.0000
  C   C25       1.0  0.49080371137979023  0.4672904367920694  0.6146652146189242  1.0000
  C   C26       1.0  0.38416511163788414  0.5000564835519369  0.8836546302936129  1.0000
  C   C27       1.0  0.5831691370652549  0.6363221643163827  0.8748189979288981  1.0000
  C   C28       1.0  0.5899651164764349  0.6379503807485208  0.9365811684593767  1.0000
  C   C29       1.0  0.4949757757704417  0.5735924451764659  0.9704989044392678  1.0000
  C   C30       1.0  0.39085430487323686  0.5079366399624733  0.9449949216512152  1.0000
  C   C31       1.0  0.6627491782787658  0.33431028426942794  0.6952094224800193  1.0000
  C   C32       1.0  0.3663848398591512  0.090355556301752  0.39038021382352645  1.0000
  C   C33       1.0  0.48066126275709564  0.0770481167034731  0.549344787569119  1.0000
  C   C34       1.0  0.6118451083434165  0.6370690615270364  0.0560278507107697  1.0000
  C   C35       1.0  0.8509865832984146  0.3160833647987573  0.5834980842209561  1.0000
  C   C36       1.0  0.11884530114153338  0.28839797576026877  0.5567808027940799  1.0000
  C   C37       1.0  0.8225147122098591  0.7668108306348032  0.049505926012798816  1.0000
  C   C38       1.0  0.2010328576934768  0.37597808624654755  0.07510313399757251  1.0000
  C   C39       1.0  0.653353570238707  0.3421938839661323  0.3270731246828404  1.0000
  C   C40       1.0  0.4291279205358762  0.7427064655331319  0.334007040047986  1.0000
  C   C41       1.0  0.504849782683145  0.5738863130247865  0.0307642956900978  1.0000
  C   C42       1.0  0.4084321912510518  0.5091293887695726  0.06414254007368923  1.0000
  C   C43       1.0  0.3040706689724715  0.44575608282111284  0.03981423890120791  1.0000
  C   C44       1.0  0.2949833748052555  0.44439363848905344  0.979103581340631  1.0000
  C   C45       1.0  0.6267470996067387  0.6321470241566516  0.11910212545401323  1.0000
  N   N1        1.0  0.4831418559714962  0.5626207434140228  0.850980924667802  1.0000
  N   N2        1.0  0.5269363927876752  0.5696930025156988  0.15029660700992054  1.0000
  N   N3        1.0  0.833018220504627  0.450294856378278  0.5008379761027869  1.0000
  N   N4        1.0  0.1377155621191406  0.4907342219654254  0.5187418733128837  1.0000
  O   O1        1.0  0.5561964837168887  0.6572294468148383  0.5138421093815424  1.0000
  O   O2        1.0  0.6024651553066036  0.4572780797479011  0.5918477407111596  1.0000
  O   O3        1.0  0.3814476535692108  0.4692847738236666  0.5865978562321246  1.0000
  O   O4        1.0  0.2972119380153657  0.44039023919765435  0.8588098792784538  1.0000
  O   O5        1.0  0.7831245480400425  0.765478712362942  0.9311232972538833  1.0000
  O   O6        1.0  0.29628458338140723  0.6130869568750299  0.6625119298079696  1.0000
  O   O7        1.0  0.7706762794205559  0.308026996710936  0.7152461197575093  1.0000
  O   O8        1.0  0.6626022402707433  0.40222183974709935  0.8100638076644701  1.0000
  O   O9        1.0  0.3941018544237949  0.1942048257850644  0.3736696922945769  1.0000
  O   O10       1.0  0.4034755478521745  0.0308153407797107  0.583791528740484  1.0000
  O   O11       1.0  0.2467613173102166  0.8694530244170052  0.4519677755731664  1.0000
  O   O12       1.0  0.6624582973723534  0.693172813254286  0.8426415848397755  1.0000
  O   O13       1.0  0.5907689946796424  0.8890485658904267  0.49370270452232756  1.0000
  O   O14       1.0  0.748807474609066  0.2602437862972451  0.5742716577671702  1.0000
  O   O15       1.0  0.8852158251735247  0.506430883693227  0.4531202853729894  1.0000
  O   O16       1.0  0.0497471752085801  0.1982916995733603  0.5680235024271668  1.0000
  O   O17       1.0  0.9352996391285088  0.7422735410593901  0.0391467425176728  1.0000
  O   O18       1.0  0.0876032480574835  0.6003861910002471  0.5072262480114347  1.0000
  O   O19       1.0  0.08527508371178531  0.4002445713989005  0.0717312132645418  1.0000
  O   O20       1.0  0.19857533367046898  0.3801520147568951  0.955699760189326  1.0000
  O   O21       1.0  0.7170384560245253  0.2718819692508703  0.3008642159765316  1.0000
  O   O22       1.0  0.3790686601426572  0.8318952258556889  0.3108749770321424  1.0000
  O   O23       1.0  0.7204638647403101  0.6794189346768533  0.1437721382902737  1.0000
  O   O24       1.0  0.30628910227134304  0.6735322374192806  0.7696376731969111  1.0000
  O   O25       1.0  0.33330966076163543  0.46016351698917657  0.15845576940482434  1.0000
  O   O26       1.0  0.33608960300860263  0.6605673772330435  0.4986802864421947  1.0000
  O   O27       1.0  0.6393974889920101  0.5262298418552832  0.42323007152617725  1.0000
  O   O28       1.0  0.41792705995832335  0.5110829806802711  0.41524421337454953  1.0000
  O   O29       1.0  0.5644581062058337  0.3010751483329912  0.4801769122859057  1.0000
  O   O30       1.0  0.342060581907063  0.3062802511080207  0.48681642511765943  1.0000
