data_image0
_chemical_formula_structural       Ba2V2H20C8O22
_chemical_formula_sum              "Ba2 V2 H20 C8 O22"
_cell_length_a       7.750208582437115
_cell_length_b       8.447437352535383
_cell_length_c       8.987725512358299
_cell_angle_alpha    78.4629290695553
_cell_angle_beta     68.49926083269014
_cell_angle_gamma    83.1476671378697

_space_group_name_H-M_alt    "P 1"
_space_group_IT_number       1

loop_
  _space_group_symop_operation_xyz
  'x, y, z'

loop_
  _atom_site_type_symbol
  _atom_site_label
  _atom_site_symmetry_multiplicity
  _atom_site_fract_x
  _atom_site_fract_y
  _atom_site_fract_z
  _atom_site_occupancy
  Ba  Ba1       1.0  0.4041759688718969  0.8537999158186907  0.2778260545142786  1.0000
  Ba  Ba2       1.0  0.5958245009730164  0.146200284127687  0.7221733355958548  1.0000
  V   V1        1.0  0.9647038316715778  0.3082018024588322  0.8823845597782385  1.0000
  V   V2        1.0  0.03529664055052711  0.6917983955898991  0.117615942562999  1.0000
  H   H1        1.0  0.7818658193741683  0.6983040055010151  0.7106665832799948  1.0000
  H   H2        1.0  0.21813333020339343  0.30169498774895226  0.2893345636457384  1.0000
  H   H3        1.0  0.9863706615307563  0.8745251711343727  0.7293156915387018  1.0000
  H   H4        1.0  0.013629872732671798  0.12547381907986482  0.2706839038784423  1.0000
  H   H5        1.0  0.24260181407475298  0.0242341401935278  0.5881861706671999  1.0000
  H   H6        1.0  0.7573986605245508  0.9757660559575568  0.4118154439051409  1.0000
  H   H7        1.0  0.0862821982415412  0.1341336540910945  0.5327438436409508  1.0000
  H   H8        1.0  0.9137169513360133  0.8658653391588729  0.46725730328477505  1.0000
  H   H9        1.0  0.5076100792442801  0.5908579399026124  0.6271168301483173  1.0000
  H   H10       1.0  0.49239038822343417  0.40914226194141184  0.3728814477307196  1.0000
  H   H11       1.0  0.6692201901999583  0.6363670036790696  0.46156341704713094  1.0000
  H   H12       1.0  0.3307802772677633  0.3636331981649478  0.5384348608318987  1.0000
  H   H13       1.0  0.7245330370592811  0.15596668293072471  0.21562893780094342  1.0000
  H   H14       1.0  0.2754674948269482  0.8440323091811525  0.7843695453850968  1.0000
  H   H15       1.0  0.5400948725176562  0.16523341513796913  0.3648669973635776  1.0000
  H   H16       1.0  0.45990704880883737  0.8347655701428852  0.6351321587760878  1.0000
  H   H17       1.0  0.3944120289227441  0.5194971217188639  0.15136190826857637  1.0000
  H   H18       1.0  0.6055884385449702  0.4805030801251533  0.8486363696104603  1.0000
  H   H19       1.0  0.6142882749243767  0.5251696648230109  0.09010098318383805  1.0000
  H   H20       1.0  0.3857108054802795  0.4748305419543897  0.9098977339726773  1.0000
  C   C1        1.0  0.05354142864524652  0.5814575640140376  0.63146863480997  1.0000
  C   C2        1.0  0.9464590435768655  0.4185426340346936  0.3685318675312673  1.0000
  C   C3        1.0  0.8849792407462829  0.6382874758550374  0.7643640167513157  1.0000
  C   C4        1.0  0.11501984203557207  0.361712729024717  0.23563581263629624  1.0000
  C   C5        1.0  0.9469061422992339  0.7706641901974862  0.8294929415345678  1.0000
  C   C6        1.0  0.0530943275456792  0.22933600974889154  0.1705064485755656  1.0000
  C   C7        1.0  0.7771440349231966  0.8191480809037301  0.9650816093247914  1.0000
  C   C8        1.0  0.22285498581733526  0.18085333181051771  0.03491912698691376  1.0000
  O   O1        1.0  0.12339427436371862  0.6711068788360492  0.4991138971992086  1.0000
  O   O2        1.0  0.8766075205029439  0.3288945240114388  0.5008859605575324  1.0000
  O   O3        1.0  0.6295153345978761  0.8729733033162574  0.9436122878282589  1.0000
  O   O4        1.0  0.3704863982274631  0.1270293073657314  0.056388476852575316  1.0000
  O   O5        1.0  0.1180123255197358  0.43541893806644083  0.6703768664544825  1.0000
  O   O6        1.0  0.8819880154881546  0.5645836813442173  0.3296221130416228  1.0000
  O   O7        1.0  0.791940329652469  0.7893312239189999  0.10804893011348325  1.0000
  O   O8        1.0  0.2080601425696429  0.21066897412973157  0.8919515722277538  1.0000
  O   O9        1.0  0.8075105558620663  0.5069091696987442  0.8886412110594366  1.0000
  O   O10       1.0  0.19248852691978877  0.4930910351810097  0.1113586183281754  1.0000
  O   O11       1.0  0.09373259925868639  0.7156932078361465  0.8869164746818683  1.0000
  O   O12       1.0  0.9062678705862267  0.2843069921102313  0.11308291542826507  1.0000
  O   O13       1.0  0.1353151110396666  0.8294536735612398  0.1580919333740383  1.0000
  O   O14       1.0  0.8646839717421883  0.17054653131851447  0.8419078960135807  1.0000
  O   O15       1.0  0.1896667283507512  0.05466844180291731  0.5003009464884514  1.0000
  O   O16       1.0  0.8103338082898687  0.9453305465136739  0.49969976115979625  1.0000
  O   O17       1.0  0.5412743187018806  0.672454338097431  0.5258822298712927  1.0000
  O   O18       1.0  0.45872621318434875  0.3275446540144459  0.47411625331475465  1.0000
  O   O19       1.0  0.6247169029730343  0.08685431144020583  0.2984237880435145  1.0000
  O   O20       1.0  0.3752850851491586  0.9131434622108685  0.7015766856342652  1.0000
  O   O21       1.0  0.4993351803880585  0.5370806453929264  0.1843417027125156  1.0000
  O   O22       1.0  0.5006652870796557  0.46291955645109073  0.8156565751665142  1.0000
