data_image0
_chemical_formula_structural       Sm4H24C28O36
_chemical_formula_sum              "Sm4 H24 C28 O36"
_cell_length_a       9.952810735369049
_cell_length_b       9.949544985365543
_cell_length_c       13.151147533074758
_cell_angle_alpha    94.88493436666094
_cell_angle_beta     109.32340976332662
_cell_angle_gamma    116.74713247680262

_space_group_name_H-M_alt    "P 1"
_space_group_IT_number       1

loop_
  _space_group_symop_operation_xyz
  'x, y, z'

loop_
  _atom_site_type_symbol
  _atom_site_label
  _atom_site_symmetry_multiplicity
  _atom_site_fract_x
  _atom_site_fract_y
  _atom_site_fract_z
  _atom_site_occupancy
  Sm  Sm1       1.0  0.4621402999547258  0.737343046333308  0.006229026716141577  1.0000
  Sm  Sm2       1.0  0.23122914145073992  0.4561223724304782  0.4939040565215009  1.0000
  Sm  Sm3       1.0  0.5378433646196967  0.2626541706577257  0.9937694090882374  1.0000
  Sm  Sm4       1.0  0.7687750325913923  0.5438773403097555  0.5060943912611506  1.0000
  H   H1        1.0  0.6967680666752398  0.946304967300257  0.2399926173994729  1.0000
  H   H2        1.0  0.20682883434034247  0.4571540077683168  0.2601697221590129  1.0000
  H   H3        1.0  0.3032255186197191  0.053688802386119505  0.7600020400469276  1.0000
  H   H4        1.0  0.7931799561589301  0.5428504065021613  0.7398294111740853  1.0000
  H   H5        1.0  0.631667848312091  0.0508821934938766  0.18558939501531313  1.0000
  H   H6        1.0  0.36543953402588875  0.44593994643611273  0.314482776190019  1.0000
  H   H7        1.0  0.3683303536421718  0.9491163056913053  0.8144089913211232  1.0000
  H   H8        1.0  0.6345657105956093  0.554059763521785  0.6855144213716572  1.0000
  H   H9        1.0  0.7856656465304042  0.8446610457190359  0.856162304841476  1.0000
  H   H10       1.0  0.4890286169470031  0.9296154819052518  0.6440823629688097  1.0000
  H   H11       1.0  0.21432725126153684  0.15534561628533083  0.1438420670731801  1.0000
  H   H12       1.0  0.5109753903032654  0.07038191296194898  0.3559174261885972  1.0000
  H   H13       1.0  0.04766054229188652  0.9775564381007554  0.7999512519639538  1.0000
  H   H14       1.0  0.6784053982573964  0.2479361470189758  0.7004962801735815  1.0000
  H   H15       1.0  0.9523323067149861  0.022442068003982702  0.2000526246424813  1.0000
  H   H16       1.0  0.3215966339689729  0.7520634803881093  0.29949477719736  1.0000
  H   H17       1.0  0.22485321901714878  0.515004472409025  0.0743891091187479  1.0000
  H   H18       1.0  0.940667199159776  0.15034951430848756  0.42570150320103284  1.0000
  H   H19       1.0  0.7751412705707281  0.48498704654338104  0.9256132478304054  1.0000
  H   H20       1.0  0.05933759351742655  0.8496513489849493  0.5742948879488594  1.0000
  H   H21       1.0  0.3819711524201209  0.5048686926598832  0.1372487556736317  1.0000
  H   H22       1.0  0.867818522058016  0.24469267720093765  0.36276082266731186  1.0000
  H   H23       1.0  0.6180241229484694  0.495126343663742  0.8627555291122847  1.0000
  H   H24       1.0  0.13219195775678116  0.7553128988246839  0.6372365254818462  1.0000
  C   C1        1.0  0.7479178808543381  0.0930981748294144  0.9704370062383633  1.0000
  C   C2        1.0  0.6227130709715637  0.7774145359577743  0.5295134666994628  1.0000
  C   C3        1.0  0.25208098872222  0.9069096587771525  0.029562862113124304  1.0000
  C   C4        1.0  0.37729904967693534  0.22258408787621417  0.47048616596690357  1.0000
  C   C5        1.0  0.07407378583162232  0.19797261958715504  0.8793320684359288  1.0000
  C   C6        1.0  0.8191104167467812  0.1948308269111365  0.6208796586295334  1.0000
  C   C7        1.0  0.9259165880790123  0.8020212073912206  0.12067166551768344  1.0000
  C   C8        1.0  0.1808926865643555  0.805168867635018  0.3791177568694053  1.0000
  C   C9        1.0  0.8682989161879819  0.9683596458899334  0.8705649750781249  1.0000
  C   C10       1.0  0.5983144551717813  0.9978314002351709  0.6296677155034304  1.0000
  C   C11       1.0  0.13168767583128732  0.0316411528290317  0.129440496470032  1.0000
  C   C12       1.0  0.4016933827043729  0.0021671717989165  0.3703300705327664  1.0000
  C   C13       1.0  0.22701615885809193  0.3328816975580153  0.8869493466466808  1.0000
  C   C14       1.0  0.9462617282344467  0.3401929598320238  0.6131861204142268  1.0000
  C   C15       1.0  0.7729809726178872  0.6671168183937867  0.11305181158053303  1.0000
  C   C16       1.0  0.05374475431422341  0.6598091421301006  0.386816854735585  1.0000
  C   C17       1.0  0.005248819507869504  0.037907364635081806  0.8423798992380115  1.0000
  C   C18       1.0  0.6961756512329346  0.16303385957964886  0.6579450006545713  1.0000
  C   C19       1.0  0.9947322033300665  0.9620828763329713  0.15762201779300258  1.0000
  C   C20       1.0  0.30383235343508386  0.8369670303274648  0.34205144400687004  1.0000
  C   C21       1.0  0.34165443540182133  0.6845716131427934  0.7360413941213153  1.0000
  C   C22       1.0  0.4484776419840344  0.6059088294110779  0.7641302597534222  1.0000
  C   C23       1.0  0.6583517132093489  0.31542580412828863  0.2639589379337295  1.0000
  C   C24       1.0  0.5515173968150223  0.39409780605218003  0.23586932921458742  1.0000
  C   C25       1.0  0.8609012896578676  0.08933852632007698  0.922935984689822  1.0000
  C   C26       1.0  0.6667135053413703  0.9379990035035564  0.5771447007934896  1.0000
  C   C27       1.0  0.1390958910074929  0.9106682014684678  0.07707175552479131  1.0000
  C   C28       1.0  0.3332958552100749  0.06199843338906422  0.4228549239382105  1.0000
  O   O1        1.0  0.652728941375564  0.9668629156999913  0.9858994426317056  1.0000
  O   O2        1.0  0.48099385665133804  0.6669080543048693  0.5140975653371882  1.0000
  O   O3        1.0  0.34726490883732464  0.0331495605722054  0.014103233240263127  1.0000
  O   O4        1.0  0.5190165744794798  0.333089379805415  0.48590080917352924  1.0000
  O   O5        1.0  0.7507393847731549  0.2216836214303584  0.9917110167189377  1.0000
  O   O6        1.0  0.7298064151173945  0.7587942991841599  0.5081063818908761  1.0000
  O   O7        1.0  0.24925210819867508  0.7783183167124575  0.008287397312542969  1.0000
  O   O8        1.0  0.2702062060583046  0.24121129924534296  0.49189150915591284  1.0000
  O   O9        1.0  0.33904728383487287  0.7586916442308932  0.817916820707069  1.0000
  O   O10       1.0  0.4409038962938041  0.5216358745645167  0.6822321694429477  1.0000
  O   O11       1.0  0.6609346418808569  0.24129615022326326  0.1820714924495661  1.0000
  O   O12       1.0  0.5591038240809566  0.47836860541756476  0.31777506162521263  1.0000
  O   O13       1.0  0.33438201755393493  0.3030876133192848  0.8754317239087258  1.0000
  O   O14       1.0  0.9277883507717489  0.4590061898937421  0.6244998206671823  1.0000
  O   O15       1.0  0.6656098785771222  0.6969050155883635  0.12456700122631766  1.0000
  O   O16       1.0  0.07222224750470481  0.5409936110345585  0.3755025383130644  1.0000
  O   O17       1.0  0.9848343576801  0.23043473380972296  0.9271431437325787  1.0000
  O   O18       1.0  0.8036009097718092  0.05774747862657391  0.5729527559408396  1.0000
  O   O19       1.0  0.015160347939563137  0.7695673218446045  0.07286521466411948  1.0000
  O   O20       1.0  0.1964072622440086  0.9422558060671236  0.42705071652972043  1.0000
  O   O21       1.0  0.24545611977406884  0.4684628055080394  0.9083195098018706  1.0000
  O   O22       1.0  0.06048702672462265  0.3373382091418619  0.5918782514621697  1.0000
  O   O23       1.0  0.7545326133533976  0.5315379806541073  0.09168270046943414  1.0000
  O   O24       1.0  0.9395110082356269  0.662657944201726  0.40811843290943284  1.0000
  O   O25       1.0  0.26958881432788223  0.6747541801279838  0.6339319956883999  1.0000
  O   O26       1.0  0.5406264772361453  0.6357650073528732  0.8662291292067082  1.0000
  O   O27       1.0  0.7304146228702137  0.32525019211707473  0.36606730207041244  1.0000
  O   O28       1.0  0.45936879772812494  0.3642299730336306  0.13376906890002974  1.0000
  O   O29       1.0  0.5967688359453973  0.9414507970474304  0.18926769702701315  1.0000
  O   O30       1.0  0.25245673023841425  0.40770446362642326  0.31088954981630224  1.0000
  O   O31       1.0  0.40322615406859796  0.058547682516206095  0.810731396632768  1.0000
  O   O32       1.0  0.7475478956469318  0.5922940817939806  0.6891081827083454  1.0000
  O   O33       1.0  0.33835656386578716  0.5776211438489723  0.13193848171710698  1.0000
  O   O34       1.0  0.9458385514279329  0.20633490066622778  0.36815904928155163  1.0000
  O   O35       1.0  0.6616393301378808  0.4223750430278557  0.8680637464360431  1.0000
  O   O36       1.0  0.05416962018356481  0.7936683280903408  0.6318383365098299  1.0000
