data_image0
_chemical_formula_structural       Zn4H24C44N8O16
_chemical_formula_sum              "Zn4 H24 C44 N8 O16"
_cell_length_a       11.0096135824356
_cell_length_b       11.009614794088026
_cell_length_c       17.43715682962893
_cell_angle_alpha    71.88362818323095
_cell_angle_beta     71.88346773938385
_cell_angle_gamma    87.53408462687597

_space_group_name_H-M_alt    "P 1"
_space_group_IT_number       1

loop_
  _space_group_symop_operation_xyz
  'x, y, z'

loop_
  _atom_site_type_symbol
  _atom_site_label
  _atom_site_symmetry_multiplicity
  _atom_site_fract_x
  _atom_site_fract_y
  _atom_site_fract_z
  _atom_site_occupancy
  Zn  Zn1       1.0  0.9942081580682611  0.09216335085042  0.657187405419954  1.0000
  Zn  Zn2       1.0  0.9078374415508677  0.005792227612204198  0.8428131660231202  1.0000
  Zn  Zn3       1.0  0.005792294099009594  0.9078372607213081  0.34281336175654087  1.0000
  Zn  Zn4       1.0  0.09216206198347271  0.9942083872143784  0.15718663774035949  1.0000
  H   H1        1.0  0.9318786003740056  0.2968420698166554  0.4964009585556681  1.0000
  H   H2        1.0  0.7031582198088415  0.06812082162834092  0.003600119065588107  1.0000
  H   H3        1.0  0.06812084303405191  0.7031575803999388  0.5036001911873029  1.0000
  H   H4        1.0  0.2968422323584292  0.9318797899433946  0.9964006481109138  1.0000
  H   H5        1.0  0.2089358557623058  0.0208290723681088  0.5072253409754452  1.0000
  H   H6        1.0  0.9791721412283891  0.7910648904273713  0.9927745227900289  1.0000
  H   H7        1.0  0.7910646000370534  0.9791715428344576  0.492774851294925  1.0000
  H   H8        1.0  0.020828321835161003  0.20893573203687046  0.007224519668085319  1.0000
  H   H9        1.0  0.24162584324579944  0.1579746386046281  0.33751072747954675  1.0000
  H   H10       1.0  0.8420261937186808  0.7583738750149818  0.1624894967601238  1.0000
  H   H11       1.0  0.7583746125535669  0.842025976597938  0.6624894647908235  1.0000
  H   H12       1.0  0.1579751651157082  0.2416257868461145  0.8375107052782268  1.0000
  H   H13       1.0  0.07421998694875502  0.5006158099775249  0.377797616967392  1.0000
  H   H14       1.0  0.49938544718884265  0.9257781455300532  0.12220210801311993  1.0000
  H   H15       1.0  0.9257786135505626  0.4993857581905273  0.6222021770281074  1.0000
  H   H16       1.0  0.5006157074613568  0.0742176941995041  0.8777977288818875  1.0000
  H   H17       1.0  0.053765543123958516  0.6272645827944245  0.12361904060467313  1.0000
  H   H18       1.0  0.3727350199035442  0.9462337780423766  0.37638089661959373  1.0000
  H   H19       1.0  0.9462349163075033  0.3727360360389795  0.8763805767595655  1.0000
  H   H20       1.0  0.6272653902979144  0.0537658870735669  0.6236183420057415  1.0000
  H   H21       1.0  0.05476443103873408  0.3988857578125645  0.12376721718754881  1.0000
  H   H22       1.0  0.6011126499848132  0.94523483379497  0.3762327730931645  1.0000
  H   H23       1.0  0.9452360283927276  0.6011148610208393  0.8762324001766971  1.0000
  H   H24       1.0  0.3988868079516195  0.054764830944982607  0.6237660770252873  1.0000
  C   C1        1.0  0.012172195122154495  0.24037117423827675  0.47761148202639  1.0000
  C   C2        1.0  0.7596295600809313  0.9878276647833032  0.02238899193721988  1.0000
  C   C3        1.0  0.9878282041830174  0.7596284799851459  0.5223894813173331  1.0000
  C   C4        1.0  0.240369943453409  0.0121729500432721  0.97761081182626  1.0000
  C   C5        1.0  0.15729205046036301  0.09929121533397728  0.4794081811704487  1.0000
  C   C6        1.0  0.9007106525679376  0.8427079820696902  0.02059122869044935  1.0000
  C   C7        1.0  0.8427065464068588  0.9007103492032371  0.5205921877311824  1.0000
  C   C8        1.0  0.0992907627606385  0.15729264077054952  0.9794082022745484  1.0000
  C   C9        1.0  0.17478263946978964  0.16625400618307395  0.3957989401406651  1.0000
  C   C10       1.0  0.8337470310187597  0.8252174742680722  0.10420122971726908  1.0000
  C   C11       1.0  0.8252178163295767  0.8337466090194919  0.6042012521297054  1.0000
  C   C12       1.0  0.16625433144772472  0.17478219122386207  0.895798397414957  1.0000
  C   C13       1.0  0.06754873741385842  0.3516195935105557  0.3225680759990155  1.0000
  C   C14       1.0  0.6483804867240933  0.9324499027312423  0.17743223460041704  1.0000
  C   C15       1.0  0.9324507624883864  0.6483810176851819  0.677432302670603  1.0000
  C   C16       1.0  0.35161981775316775  0.0675478476880897  0.822567396359375  1.0000
  C   C17       1.0  0.0664444434207283  0.4780799474372798  0.3228471960073166  1.0000
  C   C18       1.0  0.5219196677428853  0.9335538075198925  0.1771528125984504  1.0000
  C   C19       1.0  0.933555060113612  0.5219206673892958  0.677152607756163  1.0000
  C   C20       1.0  0.4780806895964744  0.0664449002477454  0.8228466221941134  1.0000
  C   C21       1.0  0.0588305155017821  0.5775300714312833  0.2518463915336824  1.0000
  C   C22       1.0  0.42247011130623946  0.9411670365276947  0.24815373122279277  1.0000
  C   C23       1.0  0.9411680321354369  0.4224705393884634  0.7481535986290453  1.0000
  C   C24       1.0  0.5775293958601964  0.058833581929725716  0.7518454976345623  1.0000
  C   C25       1.0  0.0561667236129466  0.5488276721046859  0.17951224724222933  1.0000
  C   C26       1.0  0.45117186224833733  0.9438317948501265  0.320487218699995  1.0000
  C   C27       1.0  0.9438337394506038  0.45117295035955607  0.820486795215885  1.0000
  C   C28       1.0  0.5488285515852169  0.056167873896654896  0.6795114450192159  1.0000
  C   C29       1.0  0.0571897576787492  0.422402244603262  0.179569017141624  1.0000
  C   C30       1.0  0.5775979826393112  0.9428082899068498  0.3204308736628008  1.0000
  C   C31       1.0  0.9428097987176896  0.5775993275716189  0.8204305904546346  1.0000
  C   C32       1.0  0.42240237470004877  0.057190417860788  0.6795685611297628  1.0000
  C   C33       1.0  0.0601004809742562  0.3211900517387604  0.2514307162023286  1.0000
  C   C34       1.0  0.6788091186543569  0.9398984888242694  0.24856968803389629  1.0000
  C   C35       1.0  0.9398990189279884  0.6788105594569772  0.7485696624672827  1.0000
  C   C36       1.0  0.3211902827878887  0.0601002149365399  0.7514299331579154  1.0000
  C   C37       1.0  0.05062729973381861  0.18562021663584719  0.2502993688155044  1.0000
  C   C38       1.0  0.8143834810855283  0.9493776756940163  0.24969487120714726  1.0000
  C   C39       1.0  0.9493731633297315  0.8143804058284021  0.7496996736426027  1.0000
  C   C40       1.0  0.1856200227840503  0.0506258453589794  0.7503007239270332  1.0000
  C   C41       1.0  0.055803516635947396  0.7135452404908307  0.2531892235094446  1.0000
  C   C42       1.0  0.2864556001213643  0.944196619229828  0.24680866438995966  1.0000
  C   C43       1.0  0.9441960433925871  0.28645633531489517  0.746809809180675  1.0000
  C   C44       1.0  0.7135448665742814  0.05580400686525879  0.753189803162016  1.0000
  N   N1        1.0  0.0557863940685905  0.14655350438773243  0.5295832340759077  1.0000
  N   N2        1.0  0.853445603692265  0.9442133744765967  0.9704174592886047  1.0000
  N   N3        1.0  0.9442140088686771  0.8534461534665352  0.4704171543616908  1.0000
  N   N4        1.0  0.14655385061207937  0.055786286632518084  0.029581965735978613  1.0000
  N   N5        1.0  0.0822031817300442  0.2554305907640995  0.39546019881537126  1.0000
  N   N6        1.0  0.7445697866317005  0.9177954299756191  0.10454054132451779  1.0000
  N   N7        1.0  0.9177963181722006  0.7445700204316381  0.6045401798542401  1.0000
  N   N8        1.0  0.25542955831635084  0.0822023128060465  0.8954598509406465  1.0000
  O   O1        1.0  0.9851023537405437  0.10357579948983898  0.3188679019539721  1.0000
  O   O2        1.0  0.8964216061342541  0.014895831316977099  0.1811343453063969  1.0000
  O   O3        1.0  0.014897992702536597  0.8964228973852783  0.6811332575569794  1.0000
  O   O4        1.0  0.1035778409058992  0.985103822530462  0.8188662295304424  1.0000
  O   O5        1.0  0.10802918869079291  0.1660432904206246  0.1801387344408099  1.0000
  O   O6        1.0  0.8339564408505211  0.891970088242047  0.3198642005817903  1.0000
  O   O7        1.0  0.8919702547172648  0.8339563597959695  0.8198624153021614  1.0000
  O   O8        1.0  0.1660440076846541  0.10803051969884343  0.6801371415008433  1.0000
  O   O9        1.0  0.05797499274437001  0.7995819097119607  0.1841299524832465  1.0000
  O   O10       1.0  0.2004183670022925  0.9420250226648649  0.3158698582316646  1.0000
  O   O11       1.0  0.9420245107899703  0.2004187051146218  0.8158698512802404  1.0000
  O   O12       1.0  0.7995829990962876  0.05797464645790738  0.6841291939944298  1.0000
  O   O13       1.0  0.049665359238304084  0.7316092187572282  0.32283222845141785  1.0000
  O   O14       1.0  0.26839062273484166  0.950334536077115  0.1771682141949995  1.0000
  O   O15       1.0  0.950333188398922  0.2683913920625188  0.6771677617113028  1.0000
  O   O16       1.0  0.7316088807994988  0.049666078749460496  0.8228315895684873  1.0000
