data_image0
_chemical_formula_structural       Na4Zr4P4H120C100O12
_chemical_formula_sum              "Na4 Zr4 P4 H120 C100 O12"
_cell_length_a       10.356765672559847
_cell_length_b       16.29674914043965
_cell_length_c       16.798276914568323
_cell_angle_alpha    93.52644282914072
_cell_angle_beta     100.41701296967857
_cell_angle_gamma    99.10572642013827

_space_group_name_H-M_alt    "P 1"
_space_group_IT_number       1

loop_
  _space_group_symop_operation_xyz
  'x, y, z'

loop_
  _atom_site_type_symbol
  _atom_site_label
  _atom_site_symmetry_multiplicity
  _atom_site_fract_x
  _atom_site_fract_y
  _atom_site_fract_z
  _atom_site_occupancy
  Na  Na1       1.0  0.9738154050515605  0.4606866551964971  0.9018705680219483  1.0000
  Na  Na2       1.0  0.02618781629718117  0.5393136090876142  0.09813049291317813  1.0000
  Na  Na3       1.0  0.5000550164779228  0.8972374134444011  0.4674557272873088  1.0000
  Na  Na4       1.0  0.49994295538523664  0.10276158994050631  0.5325434847060464  1.0000
  Zr  Zr1       1.0  0.5609403570396054  0.38120593902885963  0.05740204696775213  1.0000
  Zr  Zr2       1.0  0.43906269589627567  0.6187937011153154  0.9425989585749193  1.0000
  Zr  Zr3       1.0  0.04487746691474831  0.0595256542296596  0.3821895621647898  1.0000
  Zr  Zr4       1.0  0.9551200278369407  0.9404752193139033  0.6178097065300534  1.0000
  P   P1        1.0  0.3840445564298777  0.4754722518951979  0.011302131605965812  1.0000
  P   P2        1.0  0.6159591393013456  0.5245261382894668  0.9886953002955039  1.0000
  P   P3        1.0  0.8799397219962374  0.002606025559558101  0.47511990685864464  1.0000
  P   P4        1.0  0.12005858669262902  0.9973942261052215  0.5248794159196281  1.0000
  H   H1        1.0  0.6674817845072242  0.2758377730870479  0.20324398011285894  1.0000
  H   H2        1.0  0.33252079131719375  0.7241637372157897  0.7967570821313006  1.0000
  H   H3        1.0  0.4403530059596649  0.35163391307236935  0.8667635777319589  1.0000
  H   H4        1.0  0.5596531352217582  0.6483626167303241  0.13323877952937124  1.0000
  H   H5        1.0  0.3629653597477401  0.2244904352130561  0.9526574377523148  1.0000
  H   H6        1.0  0.6370380032512415  0.775506712602926  0.047345241862494426  1.0000
  H   H7        1.0  0.4889472629108981  0.369937028305479  0.2363517109016087  1.0000
  H   H8        1.0  0.511054498521503  0.6300651032193444  0.7636487018704161  1.0000
  H   H9        1.0  0.5815321246112077  0.1867887610264845  0.045044467035673094  1.0000
  H   H10       1.0  0.4184674792197924  0.8132090045120252  0.9549602116228044  1.0000
  H   H11       1.0  0.5671065688050589  0.525875626908345  0.1978207183007186  1.0000
  H   H12       1.0  0.4328950237596559  0.4741258798197451  0.8021790436901527  1.0000
  H   H13       1.0  0.8585791090201482  0.3739192117610203  0.1459171837855635  1.0000
  H   H14       1.0  0.14142346680426954  0.6260822985418101  0.8540838784585957  1.0000
  H   H15       1.0  0.7960092857925148  0.5295429482295904  0.14409994393089684  1.0000
  H   H16       1.0  0.20399312070938447  0.4704579366197166  0.855899872143411  1.0000
  H   H17       1.0  0.7076336277566853  0.39179715912569435  0.9053371359685445  1.0000
  H   H18       1.0  0.2923721779635074  0.6081981243675187  0.09466689667395661  1.0000
  H   H19       1.0  0.7963693039026865  0.2896233411667879  0.01591321924611581  1.0000
  H   H20       1.0  0.20363372454472997  0.7103725616533083  0.9840923265272536  1.0000
  H   H21       1.0  0.42999807239017673  0.21267885647964846  0.1340049030412089  1.0000
  H   H22       1.0  0.5700063010859537  0.7873220361759438  0.865998108928359  1.0000
  H   H23       1.0  0.021125930201201053  0.33783670680499267  0.07316746020045882  1.0000
  H   H24       1.0  0.9788782725879204  0.6621635584266772  0.9268325194331766  1.0000
  H   H25       1.0  0.22064527564261743  0.13827398861450046  0.16218339892730432  1.0000
  H   H26       1.0  0.7793579452512988  0.8617262750128134  0.837817066619131  1.0000
  H   H27       1.0  0.011286043303222531  0.19960364863020172  0.13247115579815025  1.0000
  H   H28       1.0  0.9887152110712809  0.800396607847624  0.8675267092417158  1.0000
  H   H29       1.0  0.21123474720292282  0.34119020720598314  0.8967850792701597  1.0000
  H   H30       1.0  0.7887637294439713  0.6588106679419283  0.10321370351187652  1.0000
  H   H31       1.0  0.17686891268017751  0.28967051335980193  0.7956066993551689  1.0000
  H   H32       1.0  0.8231275997214741  0.710330357922615  0.2043924598637759  1.0000
  H   H33       1.0  0.9238000341178892  0.26630402454319585  0.728168636131919  1.0000
  H   H34       1.0  0.07619844252900533  0.7336968506047159  0.2718301466501174  1.0000
  H   H35       1.0  0.8239088717631589  0.31242720474860164  0.7890253992247622  1.0000
  H   H36       1.0  0.17608747313528997  0.6875730437074807  0.2109748953791097  1.0000
  H   H37       1.0  0.6817643767436293  0.518556294289283  0.8146435897441933  1.0000
  H   H38       1.0  0.3182366833650648  0.48143959875413606  0.18535697396782783  1.0000
  H   H39       1.0  0.6411951182074845  0.4530803277972666  0.7205555606059804  1.0000
  H   H40       1.0  0.35880726107696864  0.5469168157871707  0.27944522336684946  1.0000
  H   H41       1.0  0.858388463690723  0.44228786983363483  0.6586145390958863  1.0000
  H   H42       1.0  0.14161180924340047  0.5577123856966396  0.3413844072454779  1.0000
  H   H43       1.0  0.010008470707923359  0.4876583052181829  0.7274376413280024  1.0000
  H   H44       1.0  0.9899927841214123  0.51234195191644  0.272560819100562  1.0000
  H   H45       1.0  0.09028587911341653  0.22373878353470641  0.94615491770044  1.0000
  H   H46       1.0  0.9097106332882277  0.7762620877477105  0.053844241518504546  1.0000
  H   H47       1.0  0.1139779847956248  0.16698952580048138  0.8577651987640067  1.0000
  H   H48       1.0  0.8860216439786656  0.8330119777189041  0.14223553505246403  1.0000
  H   H49       1.0  0.8814313461732368  0.15111084358269272  0.807617454334377  1.0000
  H   H50       1.0  0.11856777599798833  0.8488887855464996  0.19238132713863373  1.0000
  H   H51       1.0  0.8643209810952825  0.21699486421143627  0.8919356938272713  1.0000
  H   H52       1.0  0.1356771591807303  0.7830047633134073  0.10806357355853892  1.0000
  H   H53       1.0  0.6601039055235418  0.5762252496430162  0.6541419087797778  1.0000
  H   H54       1.0  0.3398937313332199  0.42377250808921463  0.3458595739834394  1.0000
  H   H55       1.0  0.7403368247388045  0.6388846431377146  0.7451757022950503  1.0000
  H   H56       1.0  0.2596608125727826  0.36111311525131384  0.2548263758568581  1.0000
  H   H57       1.0  0.8780041225697844  0.5861727351815845  0.622194930979589  1.0000
  H   H58       1.0  0.12199337309156287  0.4138281396755731  0.3778055284926367  1.0000
  H   H59       1.0  0.9528104734109135  0.6262081490335659  0.7233285164765206  1.0000
  H   H60       1.0  0.04718766822959712  0.3737914804616692  0.2766725370753775  1.0000
  H   H61       1.0  0.12542535513039613  0.20826231909341433  0.2750087908161021  1.0000
  H   H62       1.0  0.874571325229276  0.7917391756721416  0.7249898284066065  1.0000
  H   H63       1.0  0.8805917423605153  0.11670875437358323  0.21017657360365402  1.0000
  H   H64       1.0  0.11940737981070988  0.883290874755609  0.7898222078693494  1.0000
  H   H65       1.0  0.032565956694554615  0.20484565037766336  0.5181894563686029  1.0000
  H   H66       1.0  0.9674335023023843  0.7951552270314011  0.4818094358893319  1.0000
  H   H67       1.0  0.8528288324867079  0.940704354338159  0.2343114747028494  1.0000
  H   H68       1.0  0.14717129925200112  0.05929901831704141  0.7656864483475303  1.0000
  H   H69       1.0  0.6872434717175013  0.7856091023706356  0.29695118193707515  1.0000
  H   H70       1.0  0.3127545010553163  0.2143899023278664  0.7030492208336625  1.0000
  H   H71       1.0  0.7271755423839039  0.8902935019560445  0.34589352655695654  1.0000
  H   H72       1.0  0.27282456213736583  0.10970612943429359  0.6541053643919525  1.0000
  H   H73       1.0  0.3317719540692892  0.1632417368020285  0.374334944291256  1.0000
  H   H74       1.0  0.6682276724308454  0.8367597634333707  0.6256628125817445  1.0000
  H   H75       1.0  0.9420018708821232  0.23572224163975622  0.3637905648131935  1.0000
  H   H76       1.0  0.05799742061162059  0.7642780129429666  0.6362094628296688  1.0000
  H   H77       1.0  0.22413108384265007  0.9178343309698818  0.3956000466745239  1.0000
  H   H78       1.0  0.7758687124348356  0.08216779537585242  0.6043995517570268  1.0000
  H   H79       1.0  0.2817685817582997  0.030219684629187796  0.2910252965554747  1.0000
  H   H80       1.0  0.718232197778889  0.9697824452912869  0.7089756021293497  1.0000
  H   H81       1.0  0.5037508223211091  0.0694952368194564  0.35621985077705903  1.0000
  H   H82       1.0  0.4962455207580164  0.9305050090094227  0.643778062272034  1.0000
  H   H83       1.0  0.17721604263495302  0.7124319111757061  0.4569454487302026  1.0000
  H   H84       1.0  0.822781593766976  0.28756584589972084  0.5430554386443164  1.0000
  H   H85       1.0  0.21724667468103592  0.810608599080176  0.5182399954763639  1.0000
  H   H86       1.0  0.7827491649788385  0.18938977695609788  0.4817601329501287  1.0000
  H   H87       1.0  0.9583257033094129  0.8611805734263956  0.35980296312579446  1.0000
  H   H88       1.0  0.04167409160358911  0.1388215509489399  0.640194849139668  1.0000
  H   H89       1.0  0.6210760878431786  0.8466373863483626  0.17581340677154605  1.0000
  H   H90       1.0  0.37892367985237024  0.15336099676211026  0.8241853733924387  1.0000
  H   H91       1.0  0.6104760049480973  0.942532500750396  0.22851727629903715  1.0000
  H   H92       1.0  0.38952491305552434  0.05746650810436191  0.7714810733446029  1.0000
  H   H93       1.0  0.27438884572386973  0.16365443898276774  0.5261823624345324  1.0000
  H   H94       1.0  0.7256117635811422  0.8363470641705818  0.4738160993030577  1.0000
  H   H95       1.0  0.4662491798929125  0.1145864749312508  0.2146513652281428  1.0000
  H   H96       1.0  0.5337499409138218  0.8854131522275495  0.7853456300787798  1.0000
  H   H97       1.0  0.051515794309452204  0.0453874977556481  0.19195311736640266  1.0000
  H   H98       1.0  0.9484863039486627  0.9546158820490405  0.8080474061905464  1.0000
  H   H99       1.0  0.19088636650573684  0.652067768476428  0.5827412809341795  1.0000
  H   H100      1.0  0.8091117751347737  0.3479318610188002  0.4172597726177187  1.0000
  H   H101      1.0  0.2867802672767752  0.7445569517764669  0.638392514516795  1.0000
  H   H102      1.0  0.7132168911040253  0.255442674144021  0.36160723878181505  1.0000
  H   H103      1.0  0.33732350609310674  0.7941627534389327  0.31880727639905615  1.0000
  H   H104      1.0  0.6626761217715256  0.20583874876685834  0.6811922666400321  1.0000
  H   H105      1.0  0.429215102174368  0.7263167205128696  0.2730161669652489  1.0000
  H   H106      1.0  0.5707812422692484  0.27368352728640843  0.7269835322499247  1.0000
  H   H107      1.0  0.5417043361591994  0.710501256978837  0.49385624536279954  1.0000
  H   H108      1.0  0.4582931590473224  0.28949961722152306  0.5061436187207349  1.0000
  H   H109      1.0  0.38746990089882877  0.6453373633905742  0.44589079093891126  1.0000
  H   H110      1.0  0.6125285771125633  0.35466351372773625  0.5541097780092131  1.0000
  H   H111      1.0  0.6590116262485638  0.13521885519474353  0.14247742416994671  1.0000
  H   H112      1.0  0.3409896290356046  0.8647814025966767  0.8575216316473089  1.0000
  H   H113      1.0  0.38445484908872646  0.8999679772089453  0.22781235954091272  1.0000
  H   H114      1.0  0.6155455922582506  0.10003290246126541  0.7721866421929066  1.0000
  H   H115      1.0  0.38710252227088676  0.8110032541545426  0.16169319946202174  1.0000
  H   H116      1.0  0.612895618005126  0.1889963733703013  0.8383060679237957  1.0000
  H   H117      1.0  0.48627142989172273  0.7008945635881076  0.627044244147463  1.0000
  H   H118      1.0  0.5137258969019386  0.29910568647231633  0.37295556454360934  1.0000
  H   H119      1.0  0.3960717661532271  0.6023775717124237  0.5819793163630537  1.0000
  H   H120      1.0  0.6039263750324508  0.39762205712601434  0.4180211418001534  1.0000
  C   C1        1.0  0.6708988966987307  0.34150596041891396  0.19426562601522332  1.0000
  C   C2        1.0  0.32910384708371515  0.6584961733670552  0.8057348962326998  1.0000
  C   C3        1.0  0.5054331266864195  0.3212726761288566  0.9088553798474238  1.0000
  C   C4        1.0  0.4945707415511436  0.6787263441069272  0.09114746594476492  1.0000
  C   C5        1.0  0.3500448569892001  0.3181481912005211  0.0857363567333493  1.0000
  C   C6        1.0  0.6499593462547536  0.6818520746879456  0.9142642182889773  1.0000
  C   C7        1.0  0.4645558463233075  0.254795877075395  0.9543125151281232  1.0000
  C   C8        1.0  0.5354452428221566  0.7452037598600827  0.04568946224014784  1.0000
  C   C9        1.0  0.5772353490340265  0.3912721641123511  0.2121541138807146  1.0000
  C   C10       1.0  0.4227664128532069  0.6087299680692694  0.7878468942800083  1.0000
  C   C11       1.0  0.5801382633453825  0.2353392123586957  0.0037158088605196244  1.0000
  C   C12       1.0  0.41986248988402514  0.764659177610511  0.9962872485002238  1.0000
  C   C13       1.0  0.618800038529237  0.4734719549623208  0.19236946222434884  1.0000
  C   C14       1.0  0.38120172153867316  0.5265301745921106  0.8076291643815949  1.0000
  C   C15       1.0  0.7717621945159151  0.3934375439538016  0.1641115088195733  1.0000
  C   C16       1.0  0.228238753434134  0.6065652101066092  0.8358894452577132  1.0000
  C   C17       1.0  0.7396259284564266  0.4749403505009795  0.1630167751046585  1.0000
  C   C18       1.0  0.26037434493252937  0.525059905686092  0.836982766625404  1.0000
  C   C19       1.0  0.646947554463935  0.34274158071474403  0.9296852434619609  1.0000
  C   C20       1.0  0.35305614490593484  0.657256814724306  0.07031695154906711  1.0000
  C   C21       1.0  0.6930813687886258  0.28948005577039737  0.988233956552115  1.0000
  C   C22       1.0  0.30692216262321653  0.7105177161855138  0.011768778455156333  1.0000
  C   C23       1.0  0.22913941348072345  0.43144896750794715  0.032516276257204914  1.0000
  C   C24       1.0  0.7708644524826768  0.568550049443843  0.9674835925915135  1.0000
  C   C25       1.0  0.23005007168463723  0.3511349659553886  0.06991163769427541  1.0000
  C   C26       1.0  0.769952981251251  0.6488646741887862  0.930089367848396  1.0000
  C   C27       1.0  0.34081548837343695  0.24123069047032436  0.11976235029911923  1.0000
  C   C28       1.0  0.6591867510800996  0.7587695722094382  0.8802391965488142  1.0000
  C   C29       1.0  0.11009429683849699  0.3091240662160714  0.0873683928330919  1.0000
  C   C30       1.0  0.8899094283843283  0.690878068517449  0.9126310481133331  1.0000
  C   C31       1.0  0.22181896426294404  0.198301054560261  0.13644625278838157  1.0000
  C   C32       1.0  0.7781832738260946  0.8016992061491023  0.8635535078934636  1.0000
  C   C33       1.0  0.1049942955967609  0.2324430641291428  0.12012188954037131  1.0000
  C   C34       1.0  0.8950079420374522  0.7675571959234304  0.879877275752783  1.0000
  C   C35       1.0  0.13466956608269953  0.3015891819885681  0.8503523643827934  1.0000
  C   C36       1.0  0.8653290794318877  0.698412317956084  0.1496470691803964  1.0000
  C   C37       1.0  0.9137889327040513  0.2842875740329306  0.791065543863958  1.0000
  C   C38       1.0  0.08621052674772056  0.7157133040329242  0.20893394378266092  1.0000
  C   C39       1.0  0.7142251197872582  0.5045342017368526  0.7574034015732991  1.0000
  C   C40       1.0  0.28577546320996566  0.49546356146522186  0.2425972188402028  1.0000
  C   C41       1.0  0.9041965752153588  0.4914933627591438  0.7086359724009413  1.0000
  C   C42       1.0  0.09580352976073678  0.5085062692879917  0.29136351393665905  1.0000
  C   C43       1.0  0.07227306112442022  0.21988832666296793  0.8796071162284919  1.0000
  C   C44       1.0  0.9277273806773962  0.7801125536640401  0.12039248089403289  1.0000
  C   C45       1.0  0.921540922446937  0.21110103368764047  0.8435161329211383  1.0000
  C   C46       1.0  0.0784591825291586  0.788898598359495  0.15648335341646202  1.0000
  C   C47       1.0  0.7386477642569389  0.5805447049806745  0.7085004828286545  1.0000
  C   C48       1.0  0.26134987305465535  0.4194530534083469  0.291501595323254  1.0000
  C   C49       1.0  0.8767262506331335  0.5773264665737585  0.6862971028678829  1.0000
  C   C50       1.0  0.12327287290258945  0.4226731645258256  0.3137034647712156  1.0000
  C   C51       1.0  0.8238573412317012  0.0789284757306277  0.3222539583566118  1.0000
  C   C52       1.0  0.17614062972179317  0.921070526340678  0.6777440628593538  1.0000
  C   C53       1.0  0.7256873889523375  0.03302694180629832  0.44164606231554876  1.0000
  C   C54       1.0  0.27430780381872216  0.9669726782783029  0.5583522812538888  1.0000
  C   C55       1.0  0.7120834317178505  0.06640725244020731  0.3608536430611267  1.0000
  C   C56       1.0  0.28791159264034866  0.933591743504458  0.6391446451158488  1.0000
  C   C57       1.0  0.13219941636292282  0.2012426592755503  0.3393822371246388  1.0000
  C   C58       1.0  0.8677982472564524  0.7987588390647461  0.6606176823513579  1.0000
  C   C59       1.0  0.7990532931903261  0.10534051125054592  0.24364958446874146  1.0000
  C   C60       1.0  0.2009474582197583  0.8946578760914646  0.7563510913372227  1.0000
  C   C61       1.0  0.08395516801407872  0.2003582305851381  0.4676604523538685  1.0000
  C   C62       1.0  0.9160442909828606  0.7996426468239194  0.5323384399040663  1.0000
  C   C63       1.0  0.9572952113598988  0.9486389471815856  0.26239680333771537  1.0000
  C   C64       1.0  0.042706885078899914  0.05136442999591402  0.7376013386644544  1.0000
  C   C65       1.0  0.6483520797049634  0.843970942886905  0.3075162808460163  1.0000
  C   C66       1.0  0.3516460605710563  0.1560286846379384  0.6924829865397939  1.0000
  C   C67       1.0  0.24133411423725457  0.17756674726191332  0.3920623992307597  1.0000
  C   C68       1.0  0.7586643614999817  0.8224341265724038  0.607935192773887  1.0000
  C   C69       1.0  0.03588076077456752  0.2159737621421769  0.3863481086019079  1.0000
  C   C70       1.0  0.9641198494401024  0.784027742324767  0.6136515439130719  1.0000
  C   C71       1.0  0.1530765038135798  0.9361883666489563  0.3470960432093477  1.0000
  C   C72       1.0  0.846925425576856  0.063814388358999  0.6529038295664478  1.0000
  C   C73       1.0  0.18320765037567818  0.9965944590517565  0.2927790332448623  1.0000
  C   C74       1.0  0.8167936330355944  0.0034095413181277  0.7072202454512606  1.0000
  C   C75       1.0  0.585658953624211  0.08071937823147832  0.323125991661108  1.0000
  C   C76       1.0  0.41433705126470954  0.9192796173471437  0.6768700244369797  1.0000
  C   C77       1.0  0.24986323871970487  0.750850942704993  0.5071111925843894  1.0000
  C   C78       1.0  0.7501327693530301  0.2491480574712099  0.49288899123456537  1.0000
  C   C79       1.0  0.013030972179265712  0.9065303226834375  0.3280704954615246  1.0000
  C   C80       1.0  0.9869686547757014  0.09347117820875891  0.6719278568001671  1.0000
  C   C81       1.0  0.5858456054623462  0.8744989556853044  0.22714652047373113  1.0000
  C   C82       1.0  0.4141553139057663  0.12550005513984533  0.7728536153359968  1.0000
  C   C83       1.0  0.2116585906344639  0.17726944207058892  0.47134022988680613  1.0000
  C   C84       1.0  0.7883418511673457  0.8227314382564189  0.5286593672357115  1.0000
  C   C85       1.0  0.564893382694379  0.10538765335073211  0.24458538272109112  1.0000
  C   C86       1.0  0.4351036077283938  0.8946113490866171  0.7554149105737551  1.0000
  C   C87       1.0  0.06209064937046801  0.004732070983166599  0.24067202854779174  1.0000
  C   C88       1.0  0.937912430782859  0.9952713104258777  0.7593280090963505  1.0000
  C   C89       1.0  0.27438860635461293  0.7027904215596763  0.5828079185092037  1.0000
  C   C90       1.0  0.7256103492230821  0.29720858605677586  0.41719318912613085  1.0000
  C   C91       1.0  0.4250878218861089  0.7921741899705453  0.2911239620575543  1.0000
  C   C92       1.0  0.574911469607642  0.20782606461217773  0.7088760655853079  1.0000
  C   C93       1.0  0.4353463464784895  0.6945213705099247  0.49553040691517236  1.0000
  C   C94       1.0  0.5646519626652166  0.3054788818116521  0.5044695112517914  1.0000
  C   C95       1.0  0.6727702511766296  0.11718463079846231  0.20452953973858007  1.0000
  C   C96       1.0  0.3272278877348926  0.8828149947559896  0.7954679414811495  1.0000
  C   C97       1.0  0.43402546110286283  0.8460124788976416  0.22030375611744554  1.0000
  C   C98       1.0  0.5659734931103344  0.1539865267484188  0.7796955653517941  1.0000
  C   C99       1.0  0.4055578506582478  0.6699122134453148  0.5776960029634708  1.0000
  C   C100      1.0  0.5944404589402837  0.3300880395330524  0.42230451059219126  1.0000
  O   O1        1.0  0.12114675117538819  0.4625489474235352  0.017802999306042018  1.0000
  O   O2        1.0  0.8788586023766386  0.5374519442092165  0.982197145195947  1.0000
  O   O3        1.0  0.02635730229207672  0.34730124999256157  0.8286963855220932  1.0000
  O   O4        1.0  0.9736410068516221  0.6526990023290156  0.17130353264487042  1.0000
  O   O5        1.0  0.8410248173414914  0.4766408877365222  0.7775278175779121  1.0000
  O   O6        1.0  0.15897806627187094  0.5233581269541218  0.22247194179490754  1.0000
  O   O7        1.0  0.6275100971303686  0.025274282860053204  0.4796555656951116  1.0000
  O   O8        1.0  0.37248607799072897  0.9747253394856941  0.5203428873502247  1.0000
  O   O9        1.0  0.5414941641771095  0.8264712154825987  0.3522137018583181  1.0000
  O   O10       1.0  0.4585051268618089  0.17352903844332707  0.647785730395853  1.0000
  O   O11       1.0  0.3769741779028309  0.7683959216056095  0.482116593412485  1.0000
  O   O12       1.0  0.6230229809328023  0.23160370497168262  0.5178837552748234  1.0000
