data_image0
_chemical_formula_structural       CdH24C18N14
_chemical_formula_sum              "Cd1 H24 C18 N14"
_cell_length_a       7.648418085896577
_cell_length_b       8.837623912069589
_cell_length_c       9.617101868484989
_cell_angle_alpha    76.07875875403383
_cell_angle_beta     77.14114320361166
_cell_angle_gamma    65.93021873377731

_space_group_name_H-M_alt    "P 1"
_space_group_IT_number       1

loop_
  _space_group_symop_operation_xyz
  'x, y, z'

loop_
  _atom_site_type_symbol
  _atom_site_label
  _atom_site_symmetry_multiplicity
  _atom_site_fract_x
  _atom_site_fract_y
  _atom_site_fract_z
  _atom_site_occupancy
  Cd  Cd1       1.0  0.9999997552984179  0.49999995532787983  1.2609678706740887e-06  1.0000
  H   H1        1.0  0.1584387357185335  0.0803120399010453  0.14395028883576086  1.0000
  H   H2        1.0  0.8415583558390265  0.919687582487228  0.8560485288455837  1.0000
  H   H3        1.0  0.16041425560887027  0.8934539637596545  0.10344639959283333  1.0000
  H   H4        1.0  0.839584951473931  0.106546941401966  0.8965517275584958  1.0000
  H   H5        1.0  0.9555432259243513  0.9753877776918574  0.336191631318293  1.0000
  H   H6        1.0  0.04445547929865509  0.0246143732918895  0.6638083933624443  1.0000
  H   H7        1.0  0.16335688158249426  0.9465680724874164  0.4077643749904922  1.0000
  H   H8        1.0  0.8366441892396634  0.05343159401046191  0.5922326329602328  1.0000
  H   H9        1.0  0.4752233263786747  0.6625638478215736  0.055512790380163275  1.0000
  H   H10       1.0  0.5247752990637834  0.33743832013802705  0.9444841257627843  1.0000
  H   H11       1.0  0.47740470015406794  0.0459636730828947  0.24733712256738016  1.0000
  H   H12       1.0  0.5225945335222518  0.9540372264201127  0.7526620407632052  1.0000
  H   H13       1.0  0.8557034351053683  0.843250997190417  0.15819476519607895  1.0000
  H   H14       1.0  0.14429443669139627  0.15674989515421348  0.8418036198056953  1.0000
  H   H15       1.0  0.11748501614121651  0.6667484538358581  0.2970493652258667  1.0000
  H   H16       1.0  0.8825107401302998  0.33325115573542535  0.7029497103059298  1.0000
  H   H17       1.0  0.3034144765135519  0.6420897495023187  0.39111323774732654  1.0000
  H   H18       1.0  0.6965866474956284  0.3579099056783194  0.608885842561925  1.0000
  H   H19       1.0  0.7507290498375239  0.7790152403832027  0.45500932056538096  1.0000
  H   H20       1.0  0.24927026361933702  0.22098564214394406  0.5449929513029943  1.0000
  H   H21       1.0  0.6532477923766249  0.6773684659322827  0.747701009487912  1.0000
  H   H22       1.0  0.34675396645993567  0.3226299151331491  0.2523013541882476  1.0000
  H   H23       1.0  0.2552030753171124  0.5659940984842038  0.6574910603201758  1.0000
  H   H24       1.0  0.7447975202387624  0.4340068081771804  0.34250888133922075  1.0000
  C   C1        1.0  0.20457672177754183  0.9437764006574202  0.17798918498969835  1.0000
  C   C2        1.0  0.7954235688054039  0.056221995884108415  0.822008255640597  1.0000
  C   C3        1.0  0.11213013512465135  0.9028313784826667  0.3325940224269388  1.0000
  C   C4        1.0  0.8878675380732518  0.09716698110764102  0.6674060062627873  1.0000
  C   C5        1.0  0.5321515329730814  0.7364522685303356  0.09470123183530892  1.0000
  C   C6        1.0  0.46784764751620855  0.26354864228991204  0.9052958591367498  1.0000
  C   C7        1.0  0.5342652297416918  0.935111371953056  0.19694269188033786  1.0000
  C   C8        1.0  0.465732642055073  0.06488952039156712  0.8030556931214434  1.0000
  C   C9        1.0  0.7206710325456241  0.8337656279895997  0.1527292497002932  1.0000
  C   C10       1.0  0.2793268392511408  0.16623526435503072  0.8472691353014811  1.0000
  C   C11       1.0  0.15067921602463483  0.715447639279603  0.3787968347114585  1.0000
  C   C12       1.0  0.8493227662923173  0.28454698018524033  0.6212021665854548  1.0000
  C   C13       1.0  0.8386021155588352  0.7214508821923572  0.541853238774202  1.0000
  C   C14       1.0  0.1613977529448575  0.2785487431954366  0.4581492079232916  1.0000
  C   C15       1.0  0.7937057095219584  0.670384645639679  0.6875389950092909  1.0000
  C   C16       1.0  0.2062947140285587  0.3296137226087552  0.3124636265173208  1.0000
  C   C17       1.0  0.10417980148397979  0.6079532417210844  0.6456362241201958  1.0000
  C   C18       1.0  0.8958216009046182  0.3920489292380297  0.3543643210389007  1.0000
  N   N1        1.0  0.7175636626616819  0.7107062719900841  0.0890479550927664  1.0000
  N   N2        1.0  0.2824368797071627  0.2892946459885338  0.9109499142081104  1.0000
  N   N3        1.0  0.41628531419489423  0.8722429183419892  0.158936893333717  1.0000
  N   N4        1.0  0.5837157832207749  0.12775674249726882  0.8410611507962783  1.0000
  N   N5        1.0  0.96062996002572  0.6002419454054505  0.751293543204163  1.0000
  N   N6        1.0  0.03937255245653388  0.3997577112749442  0.24870735161317006  1.0000
  N   N7        1.0  0.7463227534306823  0.276509520014976  0.12900645934284682  1.0000
  N   N8        1.0  0.25368184798330146  0.7234914250973858  0.8709927087652004  1.0000
  N   N9        1.0  0.0365353280291102  0.6805503556530328  0.5170165751206071  1.0000
  N   N10       1.0  0.9634645138810637  0.31944927539338164  0.48298483539762327  1.0000
  N   N11       1.0  0.8137416035231337  0.33280518762806827  0.013375740810325025  1.0000
  N   N12       1.0  0.18625884662090894  0.6671931749617458  0.9866279168955501  1.0000
  N   N13       1.0  0.6778910767625135  0.22028563148197836  0.24136073541986042  1.0000
  N   N14       1.0  0.32211201736008377  0.7797127624004434  0.7586413704058472  1.0000
