data_image0
_chemical_formula_structural       Zn4H36C62N12O18
_chemical_formula_sum              "Zn4 H36 C62 N12 O18"
_cell_length_a       7.422653669287337
_cell_length_b       11.474501659832793
_cell_length_c       17.365906979313635
_cell_angle_alpha    94.77723477994492
_cell_angle_beta     102.69090360047042
_cell_angle_gamma    98.11248176205095

_space_group_name_H-M_alt    "P 1"
_space_group_IT_number       1

loop_
  _space_group_symop_operation_xyz
  'x, y, z'

loop_
  _atom_site_type_symbol
  _atom_site_label
  _atom_site_symmetry_multiplicity
  _atom_site_fract_x
  _atom_site_fract_y
  _atom_site_fract_z
  _atom_site_occupancy
  Zn  Zn1       1.0  0.19213555792484976  0.4672399977919426  0.46634637077769997  1.0000
  Zn  Zn2       1.0  0.8078610891352156  0.5327597484698288  0.5336515997320463  1.0000
  Zn  Zn3       1.0  0.8527849641072859  0.16521866125514606  0.03563971722384449  1.0000
  Zn  Zn4       1.0  0.14721530603163302  0.8347838155420177  0.9643627355706743  1.0000
  H   H1        1.0  0.47868464003057193  0.4863277683129396  0.3536702785166598  1.0000
  H   H2        1.0  0.5213107651369384  0.5136720156130252  0.6463304668122449  1.0000
  H   H3        1.0  0.951181187546247  0.5948257511576002  0.3297715264614852  1.0000
  H   H4        1.0  0.04881739204996192  0.40517662548475636  0.6702244400285766  1.0000
  H   H5        1.0  0.12130408698564567  0.6881753813271486  0.21355538551605247  1.0000
  H   H6        1.0  0.8787047492191035  0.31182884916742637  0.7864444380351332  1.0000
  H   H7        1.0  0.7469557611199916  0.9031302435352018  0.05053762731102302  1.0000
  H   H8        1.0  0.2530549031817414  0.09686961706483999  0.9494655877600596  1.0000
  H   H9        1.0  0.7587671529549594  0.192669415920065  0.22072348793498262  1.0000
  H   H10       1.0  0.2412297464708216  0.8073304078648956  0.779279691956795  1.0000
  H   H11       1.0  0.6604386729970885  0.987002887717601  0.2817330467360932  1.0000
  H   H12       1.0  0.3395649440802869  0.0129960852252395  0.7182712443927032  1.0000
  H   H13       1.0  0.7574038956773774  0.3590051379006097  0.16101449957180594  1.0000
  H   H14       1.0  0.24259095904972125  0.6409920210490084  0.8389883690587538  1.0000
  H   H15       1.0  0.8117389821191097  0.37323814133434047  0.925568498356164  1.0000
  H   H16       1.0  0.1882622852700209  0.6267572544550716  0.07443368105764851  1.0000
  H   H17       1.0  0.7178093921940414  0.5889559207023041  0.9810764430441952  1.0000
  H   H18       1.0  0.2821980100996626  0.4110421389078098  0.018925247836314402  1.0000
  H   H19       1.0  0.4572561421319249  0.8115571403900147  0.25201490902707496  1.0000
  H   H20       1.0  0.5427506528315575  0.1884436077016929  0.7479891698316125  1.0000
  H   H21       1.0  0.8142097274624265  0.7330657647864385  0.09478021289132245  1.0000
  H   H22       1.0  0.1858006598903827  0.2669331921091924  0.9052217805462207  1.0000
  H   H23       1.0  0.4969696563203314  0.44799438481270915  0.18143546032905536  1.0000
  H   H24       1.0  0.5030348968514956  0.5520089688331637  0.8185656778438004  1.0000
  H   H25       1.0  0.993374881025808  0.10785867752480269  0.5280834655926443  1.0000
  H   H26       1.0  0.006618255926468866  0.8921330419710072  0.4719109155962543  1.0000
  H   H27       1.0  0.5164676855622473  0.0013783569852137008  0.6244467663286316  1.0000
  H   H28       1.0  0.4835305916932953  0.9986276204568296  0.37555338859336734  1.0000
  H   H29       1.0  0.36623920642524865  0.1659850686698974  0.5655041003586875  1.0000
  H   H30       1.0  0.6337593731709602  0.834017307972459  0.43449186613137414  1.0000
  H   H31       1.0  0.8467284211565769  0.1017485793030417  0.7396087215254782  1.0000
  H   H32       1.0  0.153273203037422  0.8982538942846858  0.26039327173079846  1.0000
  H   H33       1.0  0.8199000808037907  0.7403330979095344  0.6447617196122196  1.0000
  H   H34       1.0  0.18009053924827606  0.2596701672391291  0.3552359104599745  1.0000
  H   H35       1.0  0.7662732184592541  0.675504399607206  0.772637938146403  1.0000
  H   H36       1.0  0.23372016578425558  0.32449887634994906  0.22735993048974734  1.0000
  C   C1        1.0  0.3558874774490519  0.5253829624498039  0.3298891825152026  1.0000
  C   C2        1.0  0.6441117129348014  0.47461590814342713  0.670108962565408  1.0000
  C   C3        1.0  0.083666856260308  0.5845705258379681  0.3157018273046362  1.0000
  C   C4        1.0  0.9163346277305138  0.4154319046813199  0.6842972718505038  1.0000
  C   C5        1.0  0.1646573226034747  0.6312027737440076  0.2588650108645609  1.0000
  C   C6        1.0  0.8353407906742163  0.36879700376307045  0.741134815387838  1.0000
  C   C7        1.0  0.7360762377756629  0.9548424766677355  0.10419637815016361  1.0000
  C   C8        1.0  0.2639308629859158  0.045153853056746095  0.8958080788453133  1.0000
  C   C9        1.0  0.7398681829138948  0.10237588248539707  0.1931928079302239  1.0000
  C   C10       1.0  0.2601288812982715  0.8976248105492172  0.8068092783141836  1.0000
  C   C11       1.0  0.6892684847365443  0.0009409336683603005  0.22453901999925566  1.0000
  C   C12       1.0  0.31074505591917057  0.9990589721949233  0.775466748916678  1.0000
  C   C13       1.0  0.763985574369052  0.39090117716440176  0.10469946145214243  1.0000
  C   C14       1.0  0.23601522243559706  0.6090977677425755  0.8953034334722505  1.0000
  C   C15       1.0  0.7876285400578948  0.4041554554983476  0.9824678006749041  1.0000
  C   C16       1.0  0.2123722006654916  0.595843472181258  0.017533936609041217  1.0000
  C   C17       1.0  0.7428078872237407  0.5095355999562442  0.008956704102196525  1.0000
  C   C18       1.0  0.2571997359376255  0.4904633461308947  0.9910450507713978  1.0000
  C   C19       1.0  0.47347176698919213  0.6274881094436394  0.22480985354860658  1.0000
  C   C20       1.0  0.5265345581983495  0.37251085708031434  0.7751935185036916  1.0000
  C   C21       1.0  0.5204172133555148  0.748437796196619  0.22067566142505515  1.0000
  C   C22       1.0  0.47959469629618917  0.2515612091716974  0.7793293453955956  1.0000
  C   C23       1.0  0.6416828015321128  0.7854281723073907  0.17323277058729766  1.0000
  C   C24       1.0  0.3583248496698843  0.21457078239343733  0.8267695631065239  1.0000
  C   C25       1.0  0.716693415899506  0.7035734515580215  0.1306524468221966  1.0000
  C   C26       1.0  0.28331705557520337  0.29642553117867004  0.8693512830760286  1.0000
  C   C27       1.0  0.6649412070215702  0.5832671499198201  0.13540757151211122  1.0000
  C   C28       1.0  0.3350651181659713  0.41673181660414116  0.8645958005401868  1.0000
  C   C29       1.0  0.544346053270665  0.5428326293118031  0.18279623526714775  1.0000
  C   C30       1.0  0.4556539118786913  0.45716893516726737  0.8172044170736188  1.0000
  C   C31       1.0  0.5052010794303569  0.3305792631845037  0.4845580322539363  1.0000
  C   C32       1.0  0.4947958699703677  0.6694168822775737  0.5154357498238726  1.0000
  C   C33       1.0  0.884366498596158  0.2944190472906528  0.46164062703084613  1.0000
  C   C34       1.0  0.1156279355214096  0.7055779824536543  0.5383535592963187  1.0000
  C   C35       1.0  0.7373661193757284  0.7986106431374366  0.9012392405411946  1.0000
  C   C36       1.0  0.2626301973030393  0.2013926953103393  0.09876233958026151  1.0000
  C   C37       1.0  0.8004267224492023  0.0718472317432628  0.8811795714042818  1.0000
  C   C38       1.0  0.19957332682205486  0.928154358576869  0.11882281739715954  1.0000
  C   C39       1.0  0.5959731466006061  0.2311422513798149  0.5159306991160905  1.0000
  C   C40       1.0  0.4040207336191131  0.7688529709556775  0.48406104394400284  1.0000
  C   C41       1.0  0.7726563028574276  0.2136538492766249  0.504506064988256  1.0000
  C   C42       1.0  0.22733500599787243  0.7863422401137252  0.4954849246807457  1.0000
  C   C43       1.0  0.8564639103861038  0.12150797697609758  0.5367657597198061  1.0000
  C   C44       1.0  0.14352723368280343  0.8784872431645921  0.46322632359656535  1.0000
  C   C45       1.0  0.7664663820474968  0.048065281379976496  0.5817173724676294  1.0000
  C   C46       1.0  0.23352628351177881  0.9519353179187108  0.41827914654881954  1.0000
  C   C47       1.0  0.5887794555432462  0.0629399844744611  0.5924518283070627  1.0000
  C   C48       1.0  0.4112190425799582  0.9370668794446217  0.4075483906080138  1.0000
  C   C49       1.0  0.5053906089001002  0.1534896699358796  0.5592354516397293  1.0000
  C   C50       1.0  0.49461007147606034  0.8465153887691839  0.4407619837520117  1.0000
  C   C51       1.0  0.7716202305662632  0.8513585580011309  0.827847735568078  1.0000
  C   C52       1.0  0.228378545314385  0.14864387893704384  0.17215228266356772  1.0000
  C   C53       1.0  0.7963932299567416  0.9729847834337659  0.8179888945343735  1.0000
  C   C54       1.0  0.2036030306407568  0.0270185377866312  0.18201152794662795  1.0000
  C   C55       1.0  0.8248935208714909  0.007438826039319201  0.7456312789581007  1.0000
  C   C56       1.0  0.17509953379925483  0.9925627114185288  0.2543687769727897  1.0000
  C   C57       1.0  0.8263625025065764  0.9238600613168585  0.6832365235184883  1.0000
  C   C58       1.0  0.1736349754002546  0.07614239605812399  0.3167651118918613  1.0000
  C   C59       1.0  0.8083565803663505  0.8038542944135898  0.6926734157027641  1.0000
  C   C60       1.0  0.19163666713141228  0.19614812090760128  0.3073261254009766  1.0000
  C   C61       1.0  0.7806295201887963  0.7694437517845996  0.7647396405537209  1.0000
  C   C62       1.0  0.21936369926833515  0.230558654922902  0.23525932172979225  1.0000
  N   N1        1.0  0.20413976917269847  0.5196473678955086  0.35951392826058287  1.0000
  N   N2        1.0  0.7958608033068799  0.4803515081019683  0.6404843361020058  1.0000
  N   N3        1.0  0.3369853614752216  0.5924930179137107  0.26853616671822084  1.0000
  N   N4        1.0  0.6630145756334965  0.40750853795167064  0.7314639068023113  1.0000
  N   N5        1.0  0.7680272925540022  0.0724531557561932  0.1182886543409012  1.0000
  N   N6        1.0  0.23197698793485697  0.9275431459324252  0.8817144064501721  1.0000
  N   N7        1.0  0.6877838816016606  0.9077063688358892  0.16770346142304507  1.0000
  N   N8        1.0  0.3122202052516485  0.09229438567470542  0.8323015365121409  1.0000
  N   N9        1.0  0.8005653467784268  0.3314142038602981  0.042638088130758006  1.0000
  N   N10       1.0  0.19942804173103915  0.6685829238440206  0.957362924757142  1.0000
  N   N11       1.0  0.7277709663530412  0.49968358431318877  0.08687039951130521  1.0000
  N   N12       1.0  0.2722295254620519  0.500314448275695  0.9131306949593283  1.0000
  O   O1        1.0  0.3339231022111449  0.3282916736344744  0.48589923602474994  1.0000
  O   O2        1.0  0.6660763897048411  0.6717089268443813  0.5140961429408932  1.0000
  O   O3        1.0  0.6006949157035065  0.4134368178128938  0.457749436607216  1.0000
  O   O4        1.0  0.3993069267092506  0.5865620291340717  0.5422466317564415  1.0000
  O   O5        1.0  0.9904744639582717  0.3849970817375522  0.5096030608016948  1.0000
  O   O6        1.0  0.009528512450444317  0.6149955448376332  0.49039106171365904  1.0000
  O   O7        1.0  0.8817727224683267  0.2714320481568108  0.3905784206027293  1.0000
  O   O8        1.0  0.11821485725190677  0.728564971793638  0.6094163269550067  1.0000
  O   O9        1.0  0.5796681074538981  0.7405927483198127  0.8977769622328469  1.0000
  O   O10       1.0  0.4203271294698111  0.25940698392402334  0.10222031017469392  1.0000
  O   O11       1.0  0.8764586814984126  0.8071356570695938  0.9625327566496085  1.0000
  O   O12       1.0  0.1235392389522616  0.19286324257414117  0.037467584429933316  1.0000
  O   O13       1.0  0.7485912878891055  0.0415937234268355  0.944087314742248  1.0000
  O   O14       1.0  0.25140367554310217  0.9584042875450719  0.055913302600487214  1.0000
  O   O15       1.0  0.8545221350678033  0.1772467982708861  0.8709845613610413  1.0000
  O   O16       1.0  0.14547490110372507  0.8227538861500393  0.12901694606313902  1.0000
  O   O17       1.0  0.8568197154724259  0.9590003319262266  0.6117378775677127  1.0000
  O   O18       1.0  0.1431790884488677  0.041002113625630394  0.38826271948416047  1.0000
