data_image0
_chemical_formula_structural       Cd2H22C22N2O10
_chemical_formula_sum              "Cd2 H22 C22 N2 O10"
_cell_length_a       7.440908406498138
_cell_length_b       9.782015425668302
_cell_length_c       9.92504131854379
_cell_angle_alpha    118.29966938859796
_cell_angle_beta     102.92451604650947
_cell_angle_gamma    91.47373595133033

_space_group_name_H-M_alt    "P 1"
_space_group_IT_number       1

loop_
  _space_group_symop_operation_xyz
  'x, y, z'

loop_
  _atom_site_type_symbol
  _atom_site_label
  _atom_site_symmetry_multiplicity
  _atom_site_fract_x
  _atom_site_fract_y
  _atom_site_fract_z
  _atom_site_occupancy
  Cd  Cd1       1.0  0.7361248953200387  0.9728336723825494  0.48136097448860937  1.0000
  Cd  Cd2       1.0  0.26387623033032526  0.027166859546774412  0.5186389646517853  1.0000
  H   H1        1.0  0.43705044115898767  0.18514096668326369  0.8956149802617615  1.0000
  H   H2        1.0  0.5629477097176904  0.8148583814817916  0.10438290878038718  1.0000
  H   H3        1.0  0.3167140026901406  0.2134684319151958  0.12298686267510561  1.0000
  H   H4        1.0  0.6832853193831242  0.7865297461527948  0.8770106700702412  1.0000
  H   H5        1.0  0.7640715181692527  0.2866172251952932  0.7679624069817947  1.0000
  H   H6        1.0  0.23592845677055865  0.7133844739462704  0.23204091316011236  1.0000
  H   H7        1.0  0.338415114815156  0.49357575518956764  0.020260157818818018  1.0000
  H   H8        1.0  0.6615846447786993  0.5064247699402744  0.9797415692692012  1.0000
  H   H9        1.0  0.9391387030530041  0.1402214177712153  0.3297353544804905  1.0000
  H   H10       1.0  0.06086337161931258  0.8597767710109282  0.6702616270743107  1.0000
  H   H11       1.0  0.613601955084725  0.41083691991209287  0.4540010008270769  1.0000
  H   H12       1.0  0.3863987467024046  0.5891612630321676  0.5459967604404526  1.0000
  H   H13       1.0  0.6043743786869412  0.4445009805360628  0.2898260126997201  1.0000
  H   H14       1.0  0.3956253672495577  0.555499546516991  0.7101736979184919  1.0000
  H   H15       1.0  0.7716855515152476  0.5648618272876861  0.47352722265859637  1.0000
  H   H16       1.0  0.2283155809637947  0.4351387036800318  0.5264737247166946  1.0000
  H   H17       1.0  0.028985582921670514  0.2575482827178207  0.21867272247484953  1.0000
  H   H18       1.0  0.9710139476688724  0.7424510703235044  0.7813253950894817  1.0000
  H   H19       1.0  0.01095071526970063  0.46157814844855244  0.29615602307090677  1.0000
  H   H20       1.0  0.9890504103806632  0.5384223834807714  0.7038439160694877  1.0000
  H   H21       1.0  0.837122375393463  0.3191170320704232  0.1260104870556376  1.0000
  H   H22       1.0  0.16287714836840197  0.6808823219325078  0.8739866222737901  1.0000
  C   C1        1.0  0.6331235641528822  0.9629002293057595  0.732838464796984  1.0000
  C   C2        1.0  0.36687873952274697  0.037099131564893605  0.26716212628151226  1.0000
  C   C3        1.0  0.5670975936411367  0.9838910003682743  0.8724788249478975  1.0000
  C   C4        1.0  0.432900153858334  0.016105995926892505  0.1275199109260967  1.0000
  C   C5        1.0  0.4639527339419659  0.10460053376876033  0.942213804612656  1.0000
  C   C6        1.0  0.5360452152461123  0.8953976384613471  0.05778450784541918  1.0000
  C   C7        1.0  0.39672519070904133  0.12003563910271708  0.0680791754421364  1.0000
  C   C8        1.0  0.6032725567904365  0.8799613571924497  0.9319195604318579  1.0000
  C   C9        1.0  0.12242304291782351  0.2472132000674919  0.7521720653517291  1.0000
  C   C10       1.0  0.8775771200532317  0.7527896769322382  0.24782881490444453  1.0000
  C   C11       1.0  0.05808721556814332  0.37554839150071473  0.88085023095298  1.0000
  C   C12       1.0  0.9419129474029119  0.6244544854990082  0.11915064930319365  1.0000
  C   C13       1.0  0.8672855130011  0.37965025288406906  0.8694403950004099  1.0000
  C   C14       1.0  0.13271369411933162  0.6203549682244471  0.13056243460646033  1.0000
  C   C15       1.0  0.19015521561571092  0.4964825174180448  0.012089572958949208  1.0000
  C   C16       1.0  0.8098433591242015  0.5035191797320734  0.9879104939560647  1.0000
  C   C17       1.0  0.8402989500895116  0.21927947085804084  0.3797472212527282  1.0000
  C   C18       1.0  0.1597015500090181  0.7807175361512791  0.6202509634307205  1.0000
  C   C19       1.0  0.6961791943489857  0.44500681670563574  0.39338042594726363  1.0000
  C   C20       1.0  0.3038219313013784  0.5549937152236879  0.6066195131931237  1.0000
  C   C21       1.0  0.9316759387840179  0.34311998027555285  0.23949859421243488  1.0000
  C   C22       1.0  0.06832359180652507  0.6568793727657793  0.7604995233518963  1.0000
  N   N1        1.0  0.8253658207151274  0.33326144552158615  0.34193731178759623  1.0000
  N   N2        1.0  0.17463509641795844  0.6667379114344031  0.6580620425338138  1.0000
  O   O1        1.0  0.7381864942082572  0.8637406206907415  0.6775029455667435  1.0000
  O   O2        1.0  0.2618174045271929  0.13625991906790352  0.32249946708780897  1.0000
  O   O3        1.0  0.5783236421486181  0.052773258848866106  0.6729182481674626  1.0000
  O   O4        1.0  0.4216788632156111  0.9472272779567352  0.3270819194951005  1.0000
  O   O5        1.0  0.03020359724128951  0.10765968796439301  0.6747931331662329  1.0000
  O   O6        1.0  0.9697969895930071  0.8923455380204007  0.32520992496280593  1.0000
  O   O7        1.0  0.27209233313988074  0.27919487154756695  0.7236917982947375  1.0000
  O   O8        1.0  0.7279074059679401  0.7208056564670926  0.27630690408857816  1.0000
  O   O9        1.0  0.7504302620520632  0.20166933147825722  0.46551008454805753  1.0000
  O   O10       1.0  0.2495704465637374  0.7983288505043973  0.5344886849543683  1.0000
