data_image0
_chemical_formula_structural       Zn4H46C82N4O18
_chemical_formula_sum              "Zn4 H46 C82 N4 O18"
_cell_length_a       16.525451251408782
_cell_length_b       17.91484672567826
_cell_length_c       29.097242240597662
_cell_angle_alpha    90.24831895784173
_cell_angle_beta     89.8699392709813
_cell_angle_gamma    89.94940097174413

_space_group_name_H-M_alt    "P 1"
_space_group_IT_number       1

loop_
  _space_group_symop_operation_xyz
  'x, y, z'

loop_
  _atom_site_type_symbol
  _atom_site_label
  _atom_site_symmetry_multiplicity
  _atom_site_fract_x
  _atom_site_fract_y
  _atom_site_fract_z
  _atom_site_occupancy
  Zn  Zn1       1.0  0.5836488770169768  0.4998919903468533  0.5009595403741258  1.0000
  Zn  Zn2       1.0  0.41541563992182523  0.5000709971480006  0.49998383915602324  1.0000
  Zn  Zn3       1.0  0.4153759180303781  0.5020039070964658  0.8852870949946947  1.0000
  Zn  Zn4       1.0  0.5835927795219575  0.5018065477947148  0.8838742257660288  1.0000
  H   H1        1.0  0.28586424636610275  0.582233123509667  0.550619609470644  1.0000
  H   H2        1.0  0.13387935356340114  0.5852780258243583  0.5531081713291429  1.0000
  H   H3        1.0  0.1350458961962246  0.41462633370937146  0.44726665275172917  1.0000
  H   H4        1.0  0.2872989979932825  0.4185866959513334  0.4498712176687577  1.0000
  H   H5        1.0  0.8648996810221449  0.5853315637892607  0.5531531846975568  1.0000
  H   H6        1.0  0.7126110593708077  0.5811825069420281  0.5514692098097032  1.0000
  H   H7        1.0  0.7121726411978103  0.41857061309110577  0.4502118796976546  1.0000
  H   H8        1.0  0.864441851346129  0.41491781700177915  0.4472236790834502  1.0000
  H   H9        1.0  0.6297534112849591  0.7378670233210941  0.5004052292198651  1.0000
  H   H10       1.0  0.6304319019638173  0.8776507289617045  0.4998416207897734  1.0000
  H   H11       1.0  0.3694652869207076  0.8776350297269246  0.4997255462771548  1.0000
  H   H12       1.0  0.3703649602867216  0.7378656919159141  0.5003142976718067  1.0000
  H   H13       1.0  0.6304883570470494  0.1220711388592619  0.49994920590323505  1.0000
  H   H14       1.0  0.6298083408704188  0.2618672269590833  0.500193653731543  1.0000
  H   H15       1.0  0.370398988828626  0.26224714752076755  0.500163913789848  1.0000
  H   H16       1.0  0.3695238082225958  0.12247018009885832  0.4999476525902794  1.0000
  H   H17       1.0  0.6876901087546159  0.5506728209986702  0.735379484044991  1.0000
  H   H18       1.0  0.687029140288665  0.45099759327629146  0.7354731440043596  1.0000
  H   H19       1.0  0.6869392689917576  0.45053726891070073  0.6488730988165018  1.0000
  H   H20       1.0  0.6875675644272122  0.5502163978711181  0.6491080451376163  1.0000
  H   H21       1.0  0.37029778229944543  0.5021451811227564  0.031486297627573406  1.0000
  H   H22       1.0  0.3697016246152174  0.5016722687087808  0.11760083740593791  1.0000
  H   H23       1.0  0.6306753351291194  0.501863261841059  0.11702830358511562  1.0000
  H   H24       1.0  0.6296522249073959  0.5022698971419645  0.030899188995832105  1.0000
  H   H25       1.0  0.3698444680562218  0.5005790117380184  0.2678363599798673  1.0000
  H   H26       1.0  0.3706090995031915  0.5002751097516125  0.3539475264076302  1.0000
  H   H27       1.0  0.629950745356922  0.5005125736654679  0.35371953330014355  1.0000
  H   H28       1.0  0.6308241403668405  0.5008827516017647  0.2676029842018793  1.0000
  H   H29       1.0  0.7130030194859529  0.583012196075522  0.8336704498224992  1.0000
  H   H30       1.0  0.8653234191446944  0.5874209024992112  0.8321757400003592  1.0000
  H   H31       1.0  0.863936925578635  0.41799214512022337  0.9378103324558822  1.0000
  H   H32       1.0  0.711698706353367  0.42133530904875743  0.9346125411683348  1.0000
  H   H33       1.0  0.1344067744105715  0.5871345780936323  0.8323753526785753  1.0000
  H   H34       1.0  0.28634833123069825  0.5839477564736342  0.8349054991521572  1.0000
  H   H35       1.0  0.2866753949937078  0.42090481963845866  0.9351548093850897  1.0000
  H   H36       1.0  0.13438829644287156  0.4172055539283477  0.9377456383694922  1.0000
  H   H37       1.0  0.3704347060665399  0.7398204144323373  0.8837276002139947  1.0000
  H   H38       1.0  0.3695259446302971  0.8796209925457036  0.8838493208916349  1.0000
  H   H39       1.0  0.6304937753125728  0.8796316665211139  0.8840131512161451  1.0000
  H   H40       1.0  0.6298225500987729  0.7398256513866529  0.8838872780479221  1.0000
  H   H41       1.0  0.3694762403234789  0.12435678417776333  0.8843854204426409  1.0000
  H   H42       1.0  0.3703338605316021  0.2641438046368166  0.8844656359665494  1.0000
  H   H43       1.0  0.6297322925766766  0.26379737574631434  0.8845466873889409  1.0000
  H   H44       1.0  0.6304419673822467  0.12399848773391402  0.8845238641035496  1.0000
  H   H45       1.0  0.36448592682074127  0.49907555183146723  0.6134816569097268  1.0000
  H   H46       1.0  0.36466197381508897  0.4996940646720702  0.7720218214867175  1.0000
  C   C1        1.0  0.5003710094744633  0.6462506070748121  0.5014853611392809  1.0000
  C   C2        1.0  0.49794655483079014  0.5005392388115625  0.5920579737243514  1.0000
  C   C3        1.0  0.5003031754431575  0.3536971458476473  0.500014363042027  1.0000
  C   C4        1.0  0.4999693094929256  0.4995946274241376  0.41018644483134653  1.0000
  C   C5        1.0  0.5004153202645372  0.6481880710389377  0.8833445512497208  1.0000
  C   C6        1.0  0.4981946332046051  0.501522183472254  0.793016099442987  1.0000
  C   C7        1.0  0.5002465199319062  0.3556043953016825  0.8847718159016937  1.0000
  C   C8        1.0  0.49959395101652876  0.5016816509308768  0.9748357236211619  1.0000
  C   C9        1.0  0.24951628142032692  0.5461431929578566  0.528535312126273  1.0000
  C   C10       1.0  0.1655708545508787  0.5477506648212012  0.5296725938187167  1.0000
  C   C11       1.0  0.12205710833035971  0.5000359336887499  0.500097007258539  1.0000
  C   C12       1.0  0.16628815821901813  0.4524247939925063  0.47062790167041874  1.0000
  C   C13       1.0  0.25020458580013377  0.45434118520193334  0.4718876093037779  1.0000
  C   C14       1.0  0.0364393026418242  0.49997568686647764  0.49999338386653863  1.0000
  C   C15       1.0  0.9626626436402647  0.5000649147709167  0.4999631199453988  1.0000
  C   C16       1.0  0.8770350818355368  0.5000984383866722  0.5001584141395412  1.0000
  C   C17       1.0  0.8332712579241175  0.5476391942623026  0.5298985725493424  1.0000
  C   C18       1.0  0.7493270668633087  0.5456507843784737  0.5291119486977109  1.0000
  C   C19       1.0  0.7490928191532191  0.45423346829988276  0.4722451455853759  1.0000
  C   C20       1.0  0.8330201825112269  0.4525115769382282  0.47074259774321814  1.0000
  C   C21       1.0  0.500093360885991  0.7298056315247552  0.5007675470111934  1.0000
  C   C22       1.0  0.5733216512334708  0.7693676112319922  0.500439737717656  1.0000
  C   C23       1.0  0.5735871975210716  0.8468459931685006  0.5000462098569542  1.0000
  C   C24       1.0  0.4999272713845428  0.886956751622897  0.49992919254908236  1.0000
  C   C25       1.0  0.42636301639827684  0.8468215374379753  0.4999754627594299  1.0000
  C   C26       1.0  0.42677402008652626  0.7693246726803551  0.5003735628575967  1.0000
  C   C27       1.0  0.49987389462682336  0.9658714090869224  0.49977499965904587  1.0000
  C   C28       1.0  0.49992766368274755  0.034061407530643406  0.4997493397774378  1.0000
  C   C29       1.0  0.49998986706039267  0.11298051450886963  0.4997922785282612  1.0000
  C   C30       1.0  0.5736438054135392  0.15297449192574675  0.4998719861568547  1.0000
  C   C31       1.0  0.5733756291596138  0.2304640733902588  0.4999603254483632  1.0000
  C   C32       1.0  0.5001287800233813  0.27013604535294894  0.4999178930486751  1.0000
  C   C33       1.0  0.4268144359235891  0.23071140035656865  0.499915909962077  1.0000
  C   C34       1.0  0.42641637130663673  0.15321573890766874  0.49985831780999496  1.0000
  C   C35       1.0  0.497475239997165  0.5015002210640489  0.7422695522524663  1.0000
  C   C36       1.0  0.49734882421142157  0.5009838806097023  0.6428070170399209  1.0000
  C   C37       1.0  0.5690445329269239  0.5014061913732205  0.7161503431286675  1.0000
  C   C38       1.0  0.4237838041364555  0.5010708599902216  0.6680909143609599  1.0000
  C   C39       1.0  0.568998327723932  0.5011373508961796  0.6686716438715834  1.0000
  C   C40       1.0  0.4238349380204412  0.501280484405129  0.7172263066409599  1.0000
  C   C41       1.0  0.6606053255769738  0.5008255465094252  0.7194572209614449  1.0000
  C   C42       1.0  0.6605347850691389  0.500529549752237  0.6650489578208651  1.0000
  C   C43       1.0  0.499950560819002  0.5016539423450583  0.026281376463394707  1.0000
  C   C44       1.0  0.426727430647219  0.5017297483452977  0.050776753449127916  1.0000
  C   C45       1.0  0.42649867698307986  0.5015687925087278  0.09847839029212221  1.0000
  C   C46       1.0  0.5002228019356424  0.5014078434546578  0.12296512830864263  1.0000
  C   C47       1.0  0.5737905599799973  0.5016669361795182  0.0981361494620714  1.0000
  C   C48       1.0  0.5733167914957491  0.5017899990234441  0.050423636869673806  1.0000
  C   C49       1.0  0.5003209641056756  0.5010989102866077  0.171523414505387  1.0000
  C   C50       1.0  0.5003638926976778  0.5008141688145644  0.21348945978530054  1.0000
  C   C51       1.0  0.5003549730089745  0.500475102562838  0.2620481477486578  1.0000
  C   C52       1.0  0.42668363148753496  0.5003371519109123  0.2867765449065659  1.0000
  C   C53       1.0  0.42700198822057445  0.5000901828711264  0.3344772420737315  1.0000
  C   C54       1.0  0.5002656257627365  0.49990527969381315  0.35873734358003884  1.0000
  C   C55       1.0  0.5735798023251847  0.5002140627390618  0.3343700386769442  1.0000
  C   C56       1.0  0.5739603489430253  0.5004844125027433  0.2866571568356662  1.0000
  C   C57       1.0  0.7495449349091956  0.5477120133884554  0.8559711877372252  1.0000
  C   C58       1.0  0.8335058778069213  0.5498863429655145  0.8553220693591399  1.0000
  C   C59       1.0  0.8770086973154535  0.5026950609529521  0.8850307436869118  1.0000
  C   C60       1.0  0.8327262381509402  0.4553209355470215  0.9143114409160946  1.0000
  C   C61       1.0  0.74880624301683  0.4568380537576004  0.9126767072499649  1.0000
  C   C62       1.0  0.9626217454724824  0.5026626419800025  0.8853045878894009  1.0000
  C   C63       1.0  0.036402745660751606  0.5024500521767408  0.8852963677575048  1.0000
  C   C64       1.0  0.12200980000571353  0.5023411705897303  0.8851950652679151  1.0000
  C   C65       1.0  0.16582502843620972  0.5497940497630082  0.8557536573790756  1.0000
  C   C66       1.0  0.2497542587052521  0.5480804573613656  0.8568991466211104  1.0000
  C   C67       1.0  0.24983239829356305  0.4566013421447154  0.9132480006104803  1.0000
  C   C68       1.0  0.1659056278492983  0.4548143845326891  0.9145019497319427  1.0000
  C   C69       1.0  0.5001649078523869  0.7317592565479814  0.8834972743426733  1.0000
  C   C70       1.0  0.4268389129371429  0.7712888897689824  0.8836184962875535  1.0000
  C   C71       1.0  0.42641884099804633  0.84878964761662  0.8837634251609218  1.0000
  C   C72       1.0  0.4999970256856019  0.8889148090012925  0.8838566420853695  1.0000
  C   C73       1.0  0.5736563373785798  0.8488118686870791  0.8838568315725299  1.0000
  C   C74       1.0  0.5733907861448629  0.7713251290132419  0.883702518810708  1.0000
  C   C75       1.0  0.49992854511500456  0.967809921230284  0.8840450605703509  1.0000
  C   C76       1.0  0.4999296884159676  0.0359831708429681  0.8842919584600681  1.0000
  C   C77       1.0  0.49994591717313613  0.11488943820884857  0.884520850686876  1.0000
  C   C78       1.0  0.4263542731655862  0.15511685084817375  0.8845367159914731  1.0000
  C   C79       1.0  0.4267432602024358  0.23261418673669707  0.884630066615934  1.0000
  C   C80       1.0  0.5000570009645743  0.2720393871321036  0.8847344671765855  1.0000
  C   C81       1.0  0.573301408577514  0.23238974572267077  0.8846958552209829  1.0000
  C   C82       1.0  0.5735968144614532  0.15490183602197763  0.8846198574152241  1.0000
  N   N1        1.0  0.2909416597588433  0.5003118241876834  0.5002613220084058  1.0000
  N   N2        1.0  0.7081335968074357  0.4998336887969759  0.500878427429079  1.0000
  N   N3        1.0  0.7080996193021322  0.5020686445722762  0.8840589160409708  1.0000
  N   N4        1.0  0.2908897107903742  0.5023759272995464  0.8850398094804605  1.0000
  O   O1        1.0  0.5691281385513636  0.6139249815165756  0.5015134279861116  1.0000
  O   O2        1.0  0.43178415915268437  0.6136071073302249  0.5019724370196528  1.0000
  O   O3        1.0  0.4284992152081558  0.49970050723099035  0.5714211109556119  1.0000
  O   O4        1.0  0.5656657187071232  0.5009343943035632  0.5714053775281729  1.0000
  O   O5        1.0  0.43168613379548054  0.3863710799072422  0.49986126257595503  1.0000
  O   O6        1.0  0.5690428493995938  0.3859744309872042  0.5002540120114247  1.0000
  O   O7        1.0  0.568362907526435  0.4992612454112691  0.4303451997930381  1.0000
  O   O8        1.0  0.4309843401214835  0.499736044479448  0.42995578112218175  1.0000
  O   O9        1.0  0.4318327077970779  0.6155250525396312  0.8831617464182315  1.0000
  O   O10       1.0  0.5691645998026261  0.6158451391197846  0.8834739660879978  1.0000
  O   O11       1.0  0.5659423284945221  0.5021673800965233  0.8134673441150967  1.0000
  O   O12       1.0  0.4287656587929406  0.5008023063343003  0.8138494406976237  1.0000
  O   O13       1.0  0.5689868000091991  0.3878655088125599  0.8844282039797164  1.0000
  O   O14       1.0  0.4316337221354162  0.3882822221517729  0.885128734331694  1.0000
  O   O15       1.0  0.43059334775335867  0.5021010353813153  0.9552605153839054  1.0000
  O   O16       1.0  0.567969689802112  0.5013694961526982  0.954488314383518  1.0000
  O   O17       1.0  0.35074528726532617  0.5006248800170924  0.6472205612784023  1.0000
  O   O18       1.0  0.350838375428971  0.5009790199769881  0.7383283051865562  1.0000
