data_image0
_chemical_formula_structural       Li4H20C24O12
_chemical_formula_sum              "Li4 H20 C24 O12"
_cell_length_a       6.64441432049771
_cell_length_b       7.4935094620610885
_cell_length_c       12.299113314229801
_cell_angle_alpha    90.16159842846841
_cell_angle_beta     105.69749066367093
_cell_angle_gamma    90.00970722418313

_space_group_name_H-M_alt    "P 1"
_space_group_IT_number       1

loop_
  _space_group_symop_operation_xyz
  'x, y, z'

loop_
  _atom_site_type_symbol
  _atom_site_label
  _atom_site_symmetry_multiplicity
  _atom_site_fract_x
  _atom_site_fract_y
  _atom_site_fract_z
  _atom_site_occupancy
  Li  Li1       1.0  0.7241395110231181  0.40130616845883077  0.0649454543845209  1.0000
  Li  Li2       1.0  0.65931616317679  0.09867606080646137  0.9350778097059376  1.0000
  Li  Li3       1.0  0.2758619311920825  0.598694952866545  0.9350559546594112  1.0000
  Li  Li4       1.0  0.3406837276171261  0.9013250627029094  0.06492255336687693  1.0000
  H   H1        1.0  0.8045206089829051  0.7155006754833478  0.12246134023828151  1.0000
  H   H2        1.0  0.6819879918279669  0.7844483635270408  0.8775030420349311  1.0000
  H   H3        1.0  0.19547928181101784  0.2845004480260229  0.8775390228345331  1.0000
  H   H4        1.0  0.31801346421426063  0.21555409407804396  0.12249755937415334  1.0000
  H   H5        1.0  0.024002780224350307  0.6392285409080644  0.11481343250763841  1.0000
  H   H6        1.0  0.9090853387402335  0.8607529472804956  0.8851572103045413  1.0000
  H   H7        1.0  0.975998685717535  0.36077258399096485  0.8851863539252279  1.0000
  H   H8        1.0  0.09091454215403161  0.13924950893492383  0.11484396774449122  1.0000
  H   H9        1.0  0.5446263198859712  0.2883281959512374  0.3214293801222396  1.0000
  H   H10       1.0  0.22331902700609166  0.2118032541290447  0.6785663671774103  1.0000
  H   H11       1.0  0.4553766994408833  0.7116742612566825  0.6785714559524296  1.0000
  H   H12       1.0  0.7766824231450826  0.7881951999973822  0.32143422321962595  1.0000
  H   H13       1.0  0.3548072969937551  0.8502740681923627  0.4878067534414328  1.0000
  H   H14       1.0  0.8671122700563033  0.649654692209765  0.5121893635276322  1.0000
  H   H15       1.0  0.6451894909575984  0.14972705968498448  0.5121915176891393  1.0000
  H   H16       1.0  0.13288761484656672  0.35034242782094777  0.487810988533127  1.0000
  H   H17       1.0  0.3037238448737938  0.825229296993676  0.2812151219697867  1.0000
  H   H18       1.0  0.022470345248592604  0.6748806417120292  0.7187627050807492  1.0000
  H   H19       1.0  0.6962713896925905  0.17477049857478733  0.7187820995189753  1.0000
  H   H20       1.0  0.9775295356456724  0.3251218145033974  0.2812384729682833  1.0000
  C   C1        1.0  0.39637006235850697  0.5371213916240054  0.16493563397015987  1.0000
  C   C2        1.0  0.23147430654178444  0.9628965155397041  0.8351802368827989  1.0000
  C   C3        1.0  0.6036345163256058  0.46287839620097054  0.8350654294287313  1.0000
  C   C4        1.0  0.7685255842521314  0.03710460796966691  0.16482012619001543  1.0000
  C   C5        1.0  0.42112363982848683  0.5529000079268442  0.28909708899236364  1.0000
  C   C6        1.0  0.13216798111518105  0.9472364360803596  0.7109631559144277  1.0000
  C   C7        1.0  0.5788746975804671  0.44709978327362887  0.710902224438648  1.0000
  C   C8        1.0  0.8678318958517152  0.0527633511492951  0.2890380147932348  1.0000
  C   C9        1.0  0.5016805646135366  0.40989113790694626  0.3584686394441832  1.0000
  C   C10       1.0  0.14334914754321912  0.09019749463338661  0.6415575369384571  1.0000
  C   C11       1.0  0.4983209032920329  0.5901113214849616  0.6415311506593682  1.0000
  C   C12       1.0  0.8566538777559175  0.9098009608827056  0.3584424768186238  1.0000
  C   C13       1.0  0.5276388999733754  0.4190206932949891  0.4762658151688797  1.0000
  C   C14       1.0  0.0514431657495109  0.08097353087481451  0.5237421328923304  1.0000
  C   C15       1.0  0.4723594374355784  0.5809790979054908  0.5237334982621249  1.0000
  C   C16       1.0  0.948556719153359  0.9190235891558985  0.47625821916842886  1.0000
  C   C17       1.0  0.39332219050284317  0.7267592197802841  0.4510072828547678  1.0000
  C   C18       1.0  0.9421811404346485  0.7733022940145774  0.5490026763374516  1.0000
  C   C19       1.0  0.6066730183731863  0.2732392377216399  0.5489915575743822  1.0000
  C   C20       1.0  0.057817183147278704  0.2266961609061866  0.45099744472840814  1.0000
  C   C21       1.0  0.3653402893785086  0.7129238777471726  0.3363240600843512  1.0000
  C   C22       1.0  0.028922527449530805  0.7872472232211791  0.6636927028994393  1.0000
  C   C23       1.0  0.6346533562128939  0.2870745801519163  0.6636745456792141  1.0000
  C   C24       1.0  0.9710757980960807  0.21275256619247077  0.33630742183710544  1.0000
  O   O1        1.0  0.48374542114450503  0.40844525565436374  0.12775764107527013  1.0000
  O   O2        1.0  0.35561978291723045  0.0918538804528595  0.8725006657297101  1.0000
  O   O3        1.0  0.5162622722455125  0.5915545295894516  0.8722447029603304  1.0000
  O   O4        1.0  0.6443785346924076  0.9081485761597321  0.12750027765373065  1.0000
  O   O5        1.0  0.8861928210000016  0.6050612151231719  0.12416277975226109  1.0000
  O   O6        1.0  0.7619182329622872  0.8949242417365825  0.8757770800900673  1.0000
  O   O7        1.0  0.1138070697939142  0.3949399083861991  0.8758375833205535  1.0000
  O   O8        1.0  0.23808323494328218  0.10507821765533269  0.1242227100134841  1.0000
  O   O9        1.0  0.28419190765686153  0.6536292255637903  0.09894629694903051  1.0000
  O   O10       1.0  0.18553415455604494  0.8461566041186899  0.9010824000269294  1.0000
  O   O11       1.0  0.7158127046535867  0.34636923312879014  0.9010523288625693  1.0000
  O   O12       1.0  0.8144672975588138  0.15384318450062304  0.09891819404079173  1.0000
