data_image0
_chemical_formula_structural       Ca2H24C8O20
_chemical_formula_sum              "Ca2 H24 C8 O20"
_cell_length_a       5.6378627870648
_cell_length_b       7.179250903031343
_cell_length_c       12.49874845115526
_cell_angle_alpha    89.99974517401724
_cell_angle_beta     90.00052871204396
_cell_angle_gamma    90.00015379743337

_space_group_name_H-M_alt    "P 1"
_space_group_IT_number       1

loop_
  _space_group_symop_operation_xyz
  'x, y, z'

loop_
  _atom_site_type_symbol
  _atom_site_label
  _atom_site_symmetry_multiplicity
  _atom_site_fract_x
  _atom_site_fract_y
  _atom_site_fract_z
  _atom_site_occupancy
  Ca  Ca1       1.0  0.25992636277734243  1.1315536944800001e-05  0.499999396519378  1.0000
  Ca  Ca2       1.0  0.7400684410302175  0.4999861716547187  2.3476084579e-06  1.0000
  H   H1        1.0  0.8485530186393432  0.17704606213308696  0.4106497868592385  1.0000
  H   H2        1.0  0.8485434423356322  0.8229778112278582  0.5893514781141889  1.0000
  H   H3        1.0  0.1514618391634031  0.6770231847040906  0.0893522086087657  1.0000
  H   H4        1.0  0.15144850956439632  0.32295867428953057  0.9106485887094208  1.0000
  H   H5        1.0  0.8026715063314567  0.9622338019000909  0.40275808548584285  1.0000
  H   H6        1.0  0.8026791957233357  0.0377927506546172  0.5972413905943057  1.0000
  H   H7        1.0  0.1973229416010582  0.4622125017070929  0.0972422258240044  1.0000
  H   H8        1.0  0.19732607114139  0.5377708568007833  0.9027579601260669  1.0000
  H   H9        1.0  0.5612479597725653  0.10985239732828232  0.3091879412835468  1.0000
  H   H10       1.0  0.561256652782859  0.8901889160424544  0.6908121416780162  1.0000
  H   H11       1.0  0.4387436334797172  0.6098100690266934  0.19081186221537647  1.0000
  H   H12       1.0  0.43874792132949386  0.3901710647903158  0.8091869167464338  1.0000
  H   H13       1.0  0.30538807466044204  0.0841058223213267  0.2628644168186227  1.0000
  H   H14       1.0  0.3053978052561348  0.9159084312208136  0.7371370137757864  1.0000
  H   H15       1.0  0.6946034397147258  0.5840902716896395  0.23714106700940357  1.0000
  H   H16       1.0  0.6946086215395013  0.41590817160790294  0.7628659652996107  1.0000
  H   H17       1.0  0.31838320068948883  0.5601182122171978  0.6163574989561553  1.0000
  H   H18       1.0  0.31837173980823513  0.4399100005259271  0.3836463852775296  1.0000
  H   H19       1.0  0.6816150397573324  0.060087935842126704  0.8836417825576105  1.0000
  H   H20       1.0  0.6816315082548741  0.939877047638724  0.11635559542869339  1.0000
  H   H21       1.0  0.009159035019209198  0.3712110504595075  0.5857932954720511  1.0000
  H   H22       1.0  0.009152333554254698  0.6288136577840149  0.41421091673569077  1.0000
  H   H23       1.0  0.990841933405363  0.8711839666634021  0.9142042216272445  1.0000
  H   H24       1.0  0.9908481865022695  0.12878730713275394  0.08578962806025461  1.0000
  C   C1        1.0  0.5855599569354695  0.35769780557247094  0.5759351149621921  1.0000
  C   C2        1.0  0.5855623694084925  0.6423170991618008  0.42405786733016265  1.0000
  C   C3        1.0  0.4144374226011181  0.8576804652862364  0.9240616439232808  1.0000
  C   C4        1.0  0.4144275496963771  0.14227414685331047  0.0759410354511161  1.0000
  C   C5        1.0  0.34618726888611207  0.4509830874223296  0.5557620582259801  1.0000
  C   C6        1.0  0.346180944234149  0.5490437970358428  0.4442451407314749  1.0000
  C   C7        1.0  0.6538121705962467  0.9509564302750206  0.944243212390795  1.0000
  C   C8        1.0  0.6538193311464227  0.049015453081160815  0.055757251500303105  1.0000
  O   O1        1.0  0.9117395695910843  0.0636569681966677  0.3778180053055991  1.0000
  O   O2        1.0  0.9117505314622176  0.9363656591472918  0.6221819195121228  1.0000
  O   O3        1.0  0.088262524306792  0.563630958132002  0.12218114130752158  1.0000
  O   O4        1.0  0.0882595054415205  0.4363465752899103  0.8778153956251914  1.0000
  O   O5        1.0  0.6042881375462841  0.1876356007191617  0.5482174418373233  1.0000
  O   O6        1.0  0.6042863242431196  0.8123974552475062  0.45178521843044445  1.0000
  O   O7        1.0  0.3957140415668619  0.6876027261318144  0.9517886451272587  1.0000
  O   O8        1.0  0.39571121151521993  0.31236855732780106  0.04821635744490041  1.0000
  O   O9        1.0  0.7511055272073011  0.4548904657039046  0.6165577721439418  1.0000
  O   O10       1.0  0.751087289962939  0.5451317882798818  0.3834358911774772  1.0000
  O   O11       1.0  0.24891166133500783  0.9548674165027223  0.8834330849496154  1.0000
  O   O12       1.0  0.2489058784333196  0.045099347089987404  0.1165577122914172  1.0000
  O   O13       1.0  0.163426358153032  0.31415800217507694  0.5599719158622065  1.0000
  O   O14       1.0  0.1634150448834433  0.6858698504197848  0.44003133085324453  1.0000
  O   O15       1.0  0.836583303897264  0.8141248309511725  0.9400289784396064  1.0000
  O   O16       1.0  0.8365714604028515  0.1858460842885563  0.05996743688513109  1.0000
  O   O17       1.0  0.3933866848926755  0.1232309806346095  0.3271749762119072  1.0000
  O   O18       1.0  0.393396738354383  0.8768085496915676  0.672825216225192  1.0000
  O   O19       1.0  0.6066014019585921  0.6231807946011045  0.17282638598086922  1.0000
  O   O20       1.0  0.6066131158447163  0.37678401452618715  0.8271714834570288  1.0000
