data_image0
_chemical_formula_structural       Tm4H16C24O32
_chemical_formula_sum              "Tm4 H16 C24 O32"
_cell_length_a       5.761607058705114
_cell_length_b       8.955508299739407
_cell_length_c       14.7603301400048
_cell_angle_alpha    89.99990575030864
_cell_angle_beta     89.99998881596701
_cell_angle_gamma    93.073645059437

_space_group_name_H-M_alt    "P 1"
_space_group_IT_number       1

loop_
  _space_group_symop_operation_xyz
  'x, y, z'

loop_
  _atom_site_type_symbol
  _atom_site_label
  _atom_site_symmetry_multiplicity
  _atom_site_fract_x
  _atom_site_fract_y
  _atom_site_fract_z
  _atom_site_occupancy
  Tm  Tm1       1.0  0.8664114609815031  0.9408361838246292  0.8707347388550275  1.0000
  Tm  Tm2       1.0  0.8664115148683464  0.4408377273495603  0.6292661415265002  1.0000
  Tm  Tm3       1.0  0.1335869037927324  0.05915910041333919  0.1292646865668345  1.0000
  Tm  Tm4       1.0  0.13358590462193834  0.5591665063419671  0.3707332838908144  1.0000
  H   H1        1.0  0.10940550787410787  0.9386180539458874  0.7005956311428179  1.0000
  H   H2        1.0  0.10940894125108262  0.4386191386748237  0.7994039756145169  1.0000
  H   H3        1.0  0.8905951847462037  0.0613839361153623  0.2994044717670974  1.0000
  H   H4        1.0  0.8905920476334827  0.5613862060933031  0.2005927398355567  1.0000
  H   H5        1.0  0.31626516511661157  0.9628269685158487  0.7714131296225445  1.0000
  H   H6        1.0  0.31626323296575265  0.46282601550609564  0.7285850757107893  1.0000
  H   H7        1.0  0.6837389981433474  0.03717501438697469  0.22858494081233258  1.0000
  H   H8        1.0  0.6837374596552834  0.5371759745587568  0.2714123172326453  1.0000
  H   H9        1.0  0.8492033692003461  0.8048818901962135  0.0700603064091254  1.0000
  H   H10       1.0  0.8492053923431585  0.3048871049334422  0.4299400472127388  1.0000
  H   H11       1.0  0.1508040671892701  0.19511784907454194  0.9299397965015928  1.0000
  H   H12       1.0  0.1507936637120508  0.6951160069425057  0.5700600556966859  1.0000
  H   H13       1.0  0.6793503836822907  0.9444767599393484  0.0658015313559801  1.0000
  H   H14       1.0  0.6793486376407358  0.44447861582871434  0.4342000518098885  1.0000
  H   H15       1.0  0.32065715146196544  0.055524097566426206  0.9341978940625423  1.0000
  H   H16       1.0  0.320648683094916  0.5555244996277863  0.5658000510996288  1.0000
  C   C1        1.0  0.647429654919307  0.40819231886294444  0.9527562241108426  1.0000
  C   C2        1.0  0.6474297743381854  0.9081916340521302  0.5472406476824929  1.0000
  C   C3        1.0  0.3525622623495154  0.5918085708705972  0.04724116883361519  1.0000
  C   C4        1.0  0.3525780570697776  0.0918125781578283  0.45275742275105557  1.0000
  C   C5        1.0  0.5584418107709155  0.36408812417062103  0.037944734838717395  1.0000
  C   C6        1.0  0.558447901463758  0.8640975098338829  0.46205423344402863  1.0000
  C   C7        1.0  0.44154247393655055  0.6359049522364016  0.9620601105179816  1.0000
  C   C8        1.0  0.4415566568143633  0.13590894600724104  0.5379424820052918  1.0000
  C   C9        1.0  0.5898801929276587  0.5444764535556387  0.9143450922511391  1.0000
  C   C10       1.0  0.5898853773815987  0.04447698386575641  0.5856582560495198  1.0000
  C   C11       1.0  0.41010553083582113  0.4555132645675428  0.0856604305988284  1.0000
  C   C12       1.0  0.4101206199523659  0.9555261136906309  0.4143398143846894  1.0000
  C   C13       1.0  0.809112730691467  0.3026730414685233  0.9085187768665435  1.0000
  C   C14       1.0  0.8091004816641387  0.8026700278198787  0.5914815737293111  1.0000
  C   C15       1.0  0.19088583159058464  0.697324479232293  0.0914847135038883  1.0000
  C   C16       1.0  0.190898673145881  0.19733420229199078  0.40851717419629807  1.0000
  C   C17       1.0  0.6501984009624736  0.22292412550203977  0.07631928286675559  1.0000
  C   C18       1.0  0.6501953418436343  0.7229280397621594  0.4236804981202198  1.0000
  C   C19       1.0  0.3498019953933991  0.7770745098514453  0.9236848849946283  1.0000
  C   C20       1.0  0.34980535077685465  0.277073950299993  0.5763189272980752  1.0000
  C   C21       1.0  0.6845025579234161  0.5863457864653796  0.8221303262537274  1.0000
  C   C22       1.0  0.6845082432409414  0.0863326496001591  0.6778729692224914  1.0000
  C   C23       1.0  0.31548772277902504  0.4136562250765507  0.17787180913158807  1.0000
  C   C24       1.0  0.3155002371872655  0.9136592584520574  0.3221264562005715  1.0000
  O   O1        1.0  0.1517142374103031  0.9812952668607692  0.7613998025807829  1.0000
  O   O2        1.0  0.15171413396896577  0.48129540192406484  0.7385984009990594  1.0000
  O   O3        1.0  0.8482878942660295  0.018703364916646592  0.23860097782240794  1.0000
  O   O4        1.0  0.8482867561611513  0.5187088246099377  0.261398314451597  1.0000
  O   O5        1.0  0.83091328344549  0.9088874111378614  0.045323002449329394  1.0000
  O   O6        1.0  0.830911822696599  0.4088925673708416  0.4546772464027171  1.0000
  O   O7        1.0  0.16909435045266719  0.09111456459934429  0.954678455443478  1.0000
  O   O8        1.0  0.16908723335878756  0.5911105445060014  0.5453221790150875  1.0000
  O   O9        1.0  0.0183185921526388  0.34629984952387355  0.8925340584818712  1.0000
  O   O10       1.0  0.0183090151643484  0.8462878404048978  0.6074697174412123  1.0000
  O   O11       1.0  0.9816755542065252  0.6537066277925376  0.10746875439257758  1.0000
  O   O12       1.0  0.9816881080622225  0.1537130385824526  0.39253106296108337  1.0000
  O   O13       1.0  0.7261211937733664  0.16875142089666187  0.8985976625799452  1.0000
  O   O14       1.0  0.7260998678155345  0.6687439258792978  0.6014021565635161  1.0000
  O   O15       1.0  0.2738862426162569  0.8312483183740937  0.1014024403307801  1.0000
  O   O16       1.0  0.2738955200914788  0.3312569566886196  0.3985986238388719  1.0000
  O   O17       1.0  0.8679113621623813  0.2231012228252496  0.0845995740014018  1.0000
  O   O18       1.0  0.8679064734059453  0.7231040444137874  0.4153988290770343  1.0000
  O   O19       1.0  0.1320876938920961  0.7769018890470959  0.9154032388745107  1.0000
  O   O20       1.0  0.1320925826494417  0.27689906746305576  0.5846005963407706  1.0000
  O   O21       1.0  0.5145696965955295  0.10931789331171159  0.09471121326357232  1.0000
  O   O22       1.0  0.514563176690551  0.6093218635535107  0.4052893759126519  1.0000
  O   O23       1.0  0.4854375422842878  0.8906796094862984  0.9052922771064118  1.0000
  O   O24       1.0  0.48543761468402385  0.39068124474096777  0.594711404488315  1.0000
  O   O25       1.0  0.6711840151257674  0.4833708093351349  0.7622062458421439  1.0000
  O   O26       1.0  0.6712034172391768  0.9833729340240184  0.7377898688632598  1.0000
  O   O27       1.0  0.32879342706029047  0.5166233996399541  0.23778979212325166  1.0000
  O   O28       1.0  0.32880545820791707  0.0166234469700939  0.2622054916077587  1.0000
  O   O29       1.0  0.7728319580422324  0.7158542523326759  0.8089449132829429  1.0000
  O   O30       1.0  0.7728427857612132  0.2158600832884829  0.6910562076409903  1.0000
  O   O31       1.0  0.22716224481030167  0.2841332114203467  0.19105993207612218  1.0000
  O   O32       1.0  0.227166385948685  0.7841396524053008  0.30894118530316217  1.0000
