data_image0
_chemical_formula_structural       Cd4H40C48N48
_chemical_formula_sum              "Cd4 H40 C48 N48"
_cell_length_a       12.081563828469696
_cell_length_b       12.927366859393526
_cell_length_c       13.109383441488928
_cell_angle_alpha    62.49544431051336
_cell_angle_beta     62.547831583414336
_cell_angle_gamma    62.1496631633007

_space_group_name_H-M_alt    "P 1"
_space_group_IT_number       1

loop_
  _space_group_symop_operation_xyz
  'x, y, z'

loop_
  _atom_site_type_symbol
  _atom_site_label
  _atom_site_symmetry_multiplicity
  _atom_site_fract_x
  _atom_site_fract_y
  _atom_site_fract_z
  _atom_site_occupancy
  Cd  Cd1       1.0  0.9368491667874606  0.3691046206105141  0.6018676334218825  1.0000
  Cd  Cd2       1.0  0.907974164934174  0.1308727760577639  0.898050642786565  1.0000
  Cd  Cd3       1.0  0.0631503783835825  0.6308955917146263  0.39813045003830894  1.0000
  Cd  Cd4       1.0  0.09202501416933015  0.8691265368974256  0.10195119877199241  1.0000
  H   H1        1.0  0.5872539111108777  0.220406793163633  0.528882360252176  1.0000
  H   H2        1.0  0.33696165441066445  0.2793934297636368  0.9709041471379296  1.0000
  H   H3        1.0  0.4127472438892852  0.7795934269438474  0.47111690594659456  1.0000
  H   H4        1.0  0.6630379727085937  0.7206067999196647  0.029096642981464572  1.0000
  H   H5        1.0  0.46014840812109986  0.3464370261254359  0.5384792888873876  1.0000
  H   H6        1.0  0.3453322341103938  0.1534550786633346  0.9612522657728138  1.0000
  H   H7        1.0  0.5398541426689292  0.6535613461620924  0.4615197943087566  1.0000
  H   H8        1.0  0.6546679362643175  0.8465442221219205  0.03874765761892724  1.0000
  H   H9        1.0  0.15590135372511318  0.28892389624825643  0.35621923017530593  1.0000
  H   H10       1.0  0.801048570753828  0.21101305378098084  0.14364780013612252  1.0000
  H   H11       1.0  0.844099396756377  0.7110781595092348  0.6437783008592676  1.0000
  H   H12       1.0  0.1989515043811708  0.7889880926304257  0.8563519385441225  1.0000
  H   H13       1.0  0.1870674327691049  0.18164436619659335  0.22098139936621664  1.0000
  H   H14       1.0  0.5895933572549407  0.3181974875525242  0.2789557888605572  1.0000
  H   H15       1.0  0.8129309372970678  0.8183586180586248  0.7790169718639465  1.0000
  H   H16       1.0  0.4104057332546063  0.681802739536664  0.7210446070126509  1.0000
  H   H17       1.0  0.9979959687111088  0.12440279855169932  0.25579918448219285  1.0000
  H   H18       1.0  0.37817971086104063  0.37522269340435327  0.24418419873445885  1.0000
  H   H19       1.0  0.002003651762400649  0.8755983626237477  0.7442028666110619  1.0000
  H   H20       1.0  0.6218199229039596  0.6247766047867883  0.7558153304110818  1.0000
  H   H21       1.0  0.7841349268779964  0.18944996187300936  0.40668591008196125  1.0000
  H   H22       1.0  0.38040796255954484  0.3102573015550405  0.09319354676483733  1.0000
  H   H23       1.0  0.21586600743716358  0.8105493341243318  0.5933132513494641  1.0000
  H   H24       1.0  0.6195922078151664  0.6897419992302147  0.9068063766268968  1.0000
  H   H25       1.0  0.38010432838823477  0.4856703950655756  0.8475798636543889  1.0000
  H   H26       1.0  0.7136932751846811  0.014267176447447098  0.6520226750915797  1.0000
  H   H27       1.0  0.6198975537010513  0.5143261363837153  0.152420166213574  1.0000
  H   H28       1.0  0.28630676309898445  0.9857302860936841  0.34797858921816543  1.0000
  H   H29       1.0  0.13479533821876516  0.540535901463734  0.9361018476802914  1.0000
  H   H30       1.0  0.6115133398815826  0.9594152473928543  0.5636864692692146  1.0000
  H   H31       1.0  0.8652067712012651  0.4594606226035365  0.06389702598116298  1.0000
  H   H32       1.0  0.3884837747313126  0.04058407254404979  0.4363165019637806  1.0000
  H   H33       1.0  0.012552613343707742  0.5034634644463053  0.8501356687113174  1.0000
  H   H34       1.0  0.36617470107439215  0.9965515916320556  0.6498110754392954  1.0000
  H   H35       1.0  0.9874462564808368  0.4965358385327502  0.14986462239453885  1.0000
  H   H36       1.0  0.6338219137801246  0.0034514095810039003  0.35018997591800644  1.0000
  H   H37       1.0  0.141534300990962  0.4180104426809875  0.6770864139933438  1.0000
  H   H38       1.0  0.2368432460979263  0.0819616737327067  0.8228783439389247  1.0000
  H   H39       1.0  0.8584663173994965  0.5819897748323725  0.32291245795923385  1.0000
  H   H40       1.0  0.7631542212910106  0.9180404085584468  0.177123391143411  1.0000
  C   C1        1.0  0.07580051418177189  0.2657044205993131  0.3639329081900585  1.0000
  C   C2        1.0  0.7054674600606531  0.23423611520203744  0.13589500776646454  1.0000
  C   C3        1.0  0.9242002362997256  0.734297635158178  0.6360646228445147  1.0000
  C   C4        1.0  0.2945329309990538  0.7657641096933503  0.8641050203926213  1.0000
  C   C5        1.0  0.09308895206041964  0.2054044501871672  0.29006933493818116  1.0000
  C   C6        1.0  0.5885437938620228  0.29441972882349177  0.2098329098020103  1.0000
  C   C7        1.0  0.9069110411263637  0.7945966788660783  0.7099276970828543  1.0000
  C   C8        1.0  0.4114555239782756  0.7055804908836691  0.7901663298646899  1.0000
  C   C9        1.0  0.9871696194998376  0.1758959562115265  0.3078876755662281  1.0000
  C   C10       1.0  0.47096488396955044  0.3237637580535803  0.19208655566119875  1.0000
  C   C11       1.0  0.012832974787272489  0.8241051684541173  0.6921086210265631  1.0000
  C   C12       1.0  0.52903474979545  0.6762355401375684  0.8079129734843494  1.0000
  C   C13       1.0  0.8664562396056892  0.212424460621321  0.3932673780581768  1.0000
  C   C14       1.0  0.47225254623466384  0.2872274488639518  0.10667192202695473  1.0000
  C   C15       1.0  0.13354752314053522  0.7875748236064054  0.6067298917384962  1.0000
  C   C16       1.0  0.527748160749752  0.7127718545154167  0.8933283956109721  1.0000
  C   C17       1.0  0.8557361509502074  0.27672445825831454  0.4603456467408051  1.0000
  C   C18       1.0  0.5929603374034684  0.22306340553238602  0.03949307710212936  1.0000
  C   C19       1.0  0.14426285096538286  0.7232766829648652  0.5396533034470538  1.0000
  C   C20       1.0  0.40703875310608567  0.7769368215567951  0.9605073187710788  1.0000
  C   C21       1.0  0.7344495113983385  0.32491906051537  0.5491511692474306  1.0000
  C   C22       1.0  0.6088296977235427  0.17491118312434387  0.950582192957491  1.0000
  C   C23       1.0  0.26554859448575746  0.6750802472515998  0.45084988381874797  1.0000
  C   C24       1.0  0.3911701567264528  0.8250890391769301  0.049417440955401966  1.0000
  C   C25       1.0  0.5304710069389811  0.3934294825821211  0.660729785878772  1.0000
  C   C26       1.0  0.5850376569402369  0.1063344312271681  0.839015678162241  1.0000
  C   C27       1.0  0.46953316032591613  0.6065679659955946  0.3392692190820983  1.0000
  C   C28       1.0  0.4149618815850573  0.8936667125901249  0.16098366627181107  1.0000
  C   C29       1.0  0.3872297727261297  0.42651956419193476  0.7140456839778438  1.0000
  C   C30       1.0  0.5281752743783982  0.073327188997574  0.7856810909478825  1.0000
  C   C31       1.0  0.6127717867927059  0.5734788202655282  0.2859553173851167  1.0000
  C   C32       1.0  0.4718245734258629  0.926673964795853  0.2143198039388638  1.0000
  C   C33       1.0  0.32318066656952027  0.47323663243516007  0.8119491685692353  1.0000
  C   C34       1.0  0.6086950073708122  0.0266461089547718  0.6877397948898648  1.0000
  C   C35       1.0  0.6768190557894441  0.5267617516219898  0.18805180626166168  1.0000
  C   C36       1.0  0.3913032306043218  0.9733550370563223  0.31225991725830243  1.0000
  C   C37       1.0  0.18677361357079983  0.5031934598401975  0.8607904003356028  1.0000
  C   C38       1.0  0.5509165543972966  0.9967436668945169  0.6389957057656946  1.0000
  C   C39       1.0  0.8132274093383243  0.4968049220231592  0.13921020678117213  1.0000
  C   C40       1.0  0.44908060371268005  0.0032584054205032  0.36100447886394704  1.0000
  C   C41       1.0  0.11914693172280247  0.48249222000099923  0.813527151007307  1.0000
  C   C42       1.0  0.4153247183590307  0.017441701961914198  0.6863585079177387  1.0000
  C   C43       1.0  0.880853143412196  0.5175089264104074  0.18647258767293104  1.0000
  C   C44       1.0  0.5846739609861019  0.9825612922694301  0.313641413765126  1.0000
  C   C45       1.0  0.190891473609241  0.43496234035144005  0.7168811855754387  1.0000
  C   C46       1.0  0.3429750010730284  0.0650119499351831  0.7829754672227484  1.0000
  C   C47       1.0  0.8091113864597472  0.5650360419122223  0.28311944807340683  1.0000
  C   C48       1.0  0.657022920977397  0.9349901175919225  0.21702395544657818  1.0000
  N   N1        1.0  0.7333362350863548  0.36784378571195475  0.6249498990019973  1.0000
  N   N2        1.0  0.7264766084515271  0.1320488012845118  0.8747398208836259  1.0000
  N   N3        1.0  0.26666478782276937  0.6321545961513947  0.3750507081147705  1.0000
  N   N4        1.0  0.27352347332922006  0.8679514136347423  0.12525865682275852  1.0000
  N   N5        1.0  0.6081713961765017  0.4113894489062415  0.6932967516015797  1.0000
  N   N6        1.0  0.7132686247923913  0.08842506852073478  0.8064270539690457  1.0000
  N   N7        1.0  0.39183069995203107  0.5886089381453345  0.30670464400757436  1.0000
  N   N8        1.0  0.2867316776733587  0.9115760705086445  0.19357152850468398  1.0000
  N   N9        1.0  0.6069654049327012  0.33865616146035643  0.570298041103193  1.0000
  N   N10       1.0  0.5162680550021859  0.16110417366216714  0.929458373125421  1.0000
  N   N11       1.0  0.3930363885626206  0.661341284122926  0.429700543079413  1.0000
  N   N12       1.0  0.48373157876281436  0.8388951245289742  0.07054115602012721  1.0000
  N   N13       1.0  0.5623993679436763  0.3142284692760313  0.5044984372432566  1.0000
  N   N14       1.0  0.38145898117220145  0.18557033099811085  0.9952582806457997  1.0000
  N   N15       1.0  0.43760067033998934  0.6857689932650999  0.4955028270664885  1.0000
  N   N16       1.0  0.6185417258122142  0.8144289723812574  0.004742036992134036  1.0000
  N   N17       1.0  0.9609213877813046  0.30000448720938533  0.44703776110512916  1.0000
  N   N18       1.0  0.7080730682015357  0.1998811610049955  0.05280006049463995  1.0000
  N   N19       1.0  0.03907782817353206  0.6999985096160726  0.5529625548239283  1.0000
  N   N20       1.0  0.29192602230801123  0.8001190660841927  0.9472003353785681  1.0000
  N   N21       1.0  0.3218784857565422  0.4091258231215561  0.6662808563795297  1.0000
  N   N22       1.0  0.3976345329431081  0.09083958846284189  0.8334586740935566  1.0000
  N   N23       1.0  0.6781233963327363  0.5908707083277349  0.3337191734884257  1.0000
  N   N24       1.0  0.6023645509206972  0.909161570118492  0.16654298275350526  1.0000
  N   N25       1.0  0.13274114233112747  0.413046600810425  0.482536750095143  1.0000
  N   N26       1.0  0.0283363120214517  0.0870092652754408  0.01744596684945781  1.0000
  N   N27       1.0  0.8672609604431543  0.5869508547489986  0.5174633845401645  1.0000
  N   N28       1.0  0.9716622418783907  0.9129909592196341  0.9825540347775575  1.0000
  N   N29       1.0  0.24219177002778033  0.34152564896212567  0.4828454993031529  1.0000
  N   N30       1.0  0.06667342654953497  0.15847946577220987  0.017134338231890908  1.0000
  N   N31       1.0  0.7578084003469314  0.6584736518231294  0.517154424088581  1.0000
  N   N32       1.0  0.9333271851951747  0.841521683233303  0.9828657946945399  1.0000
  N   N33       1.0  0.34775799809809627  0.2724665782662327  0.48208815347954487  1.0000
  N   N34       1.0  0.10252423797939508  0.2274731900020939  0.01789731100939211  1.0000
  N   N35       1.0  0.652243472826775  0.7275327203252216  0.5179114021980737  1.0000
  N   N36       1.0  0.897476027635022  0.7725242651570096  0.9821027970938447  1.0000
  N   N37       1.0  0.8914291120528542  0.34607370734488535  0.8024220289230045  1.0000
  N   N38       1.0  0.0400724393605427  0.1540078437844059  0.6974614445696546  1.0000
  N   N39       1.0  0.10857006705065696  0.653925605610304  0.19757981263555285  1.0000
  N   N40       1.0  0.9599256598778038  0.8459923954747095  0.3025408694703703  1.0000
  N   N41       1.0  0.8411910042405564  0.42412305997118693  0.8504985073949811  1.0000
  N   N42       1.0  0.1159136029443813  0.07593691067781799  0.6494072251581074  1.0000
  N   N43       1.0  0.15881024599931243  0.5758753145101422  0.1495009435152924  1.0000
  N   N44       1.0  0.8840879632201958  0.9240605422874921  0.35059251523100715  1.0000
  N   N45       1.0  0.7945622966619507  0.4989715917791172  0.898028755295137  1.0000
  N   N46       1.0  0.19162599276854303  0.0010608034991080003  0.6019043449962781  1.0000
  N   N47       1.0  0.20543746254833906  0.5010304761483012  0.10197069390626014  1.0000
  N   N48       1.0  0.8083711586956849  0.9989422003080648  0.3980971006072169  1.0000
