data_image0
_chemical_formula_structural       Zn2H28C36N4O8
_chemical_formula_sum              "Zn2 H28 C36 N4 O8"
_cell_length_a       5.800900812538978
_cell_length_b       11.145954199240458
_cell_length_c       15.149857780240305
_cell_angle_alpha    113.89176965591098
_cell_angle_beta     90.00309127893325
_cell_angle_gamma    105.07051382047955

_space_group_name_H-M_alt    "P 1"
_space_group_IT_number       1

loop_
  _space_group_symop_operation_xyz
  'x, y, z'

loop_
  _atom_site_type_symbol
  _atom_site_label
  _atom_site_symmetry_multiplicity
  _atom_site_fract_x
  _atom_site_fract_y
  _atom_site_fract_z
  _atom_site_occupancy
  Zn  Zn1       1.0  0.593872828855105  0.9999811795040974  0.7500379883845342  1.0000
  Zn  Zn2       1.0  0.4060591259350731  0.9999895643316848  0.24995040856519785  1.0000
  H   H1        1.0  0.40381031352393393  0.5371208833186217  0.4436970060820684  1.0000
  H   H2        1.0  0.8663524843773447  0.4624369787472632  0.05618274642133511  1.0000
  H   H3        1.0  0.596106468125356  0.4628393858870297  0.5562957875200922  1.0000
  H   H4        1.0  0.1335692094280603  0.5375676091246859  0.9438114962989914  1.0000
  H   H5        1.0  0.9063993844698717  0.6898012234011618  0.6388076932394995  1.0000
  H   H6        1.0  0.21636337899583682  0.3103606763628051  0.8611881387881155  1.0000
  H   H7        1.0  0.0935013900483241  0.310154616681082  0.36117861463698386  1.0000
  H   H8        1.0  0.783604220111073  0.6896460797562938  0.13880867212200343  1.0000
  H   H9        1.0  0.06938561751425712  0.03783721598986029  0.8545326652195655  1.0000
  H   H10       1.0  0.031262159563915884  0.9623358691149592  0.64547546723189  1.0000
  H   H11       1.0  0.930619817729614  0.9622383637815021  0.14543986803776932  1.0000
  H   H12       1.0  0.9686965861493987  0.0376359489248799  0.3544933705702675  1.0000
  H   H13       1.0  0.22813848928018413  0.9144337349854869  0.9354532557082111  1.0000
  H   H14       1.0  0.31321465669042675  0.086000744975415  0.5646575579454378  1.0000
  H   H15       1.0  0.7720666456921917  0.08572751937121842  0.06453920222249822  1.0000
  H   H16       1.0  0.6867162142584676  0.9139773820648858  0.4353156345559698  1.0000
  H   H17       1.0  0.9605857752504718  0.6998330814842504  0.9348789502316848  1.0000
  H   H18       1.0  0.2600935156166528  0.300785141432641  0.5655843387752171  1.0000
  H   H19       1.0  0.039722380135828066  0.3003272979569119  0.06517933058295003  1.0000
  H   H20       1.0  0.7398561711454049  0.6991926833349141  0.4344000019254467  1.0000
  H   H21       1.0  0.5394736899914109  0.6074656975614446  0.8450897455244616  1.0000
  H   H22       1.0  0.9309440353045205  0.39283453127304563  0.6552888424216476  1.0000
  H   H23       1.0  0.4607776521261329  0.3926223612404556  0.1550169696512214  1.0000
  H   H24       1.0  0.06901440473679087  0.607153902067509  0.3447043208437037  1.0000
  H   H25       1.0  0.4070224792385915  0.742861142431174  0.7676213159033338  1.0000
  H   H26       1.0  0.6630664990881173  0.25706430820463316  0.7324333303166882  1.0000
  H   H27       1.0  0.5930799052755589  0.2571255166298343  0.23243940666841925  1.0000
  H   H28       1.0  0.3368794847893142  0.7429061001202797  0.267560890679043  1.0000
  C   C1        1.0  0.17410260020515267  0.6269429115145826  0.5462407546291033  1.0000
  C   C2        1.0  0.5468987632710025  0.3729300051921385  0.953688987368203  1.0000
  C   C3        1.0  0.8257962382025853  0.3730055969268022  0.45375677775612644  1.0000
  C   C4        1.0  0.4530782890683938  0.6270473919137699  0.04628862986897527  1.0000
  C   C5        1.0  0.22577994668888834  0.519971724507741  0.4675318652122159  1.0000
  C   C6        1.0  0.7056347107768632  0.4797501603889742  0.03240485381979846  1.0000
  C   C7        1.0  0.7741601913920134  0.48001112682236874  0.5324683732190039  1.0000
  C   C8        1.0  0.2943190529692786  0.5202082325797763  0.96757421666414  1.0000
  C   C9        1.0  0.9466358382963592  0.6059914470415677  0.5785306672660725  1.0000
  C   C10       1.0  0.3404381306590096  0.394099017265468  0.9215087832646702  1.0000
  C   C11       1.0  0.053295804450804986  0.3939813055698592  0.42146881456679347  1.0000
  C   C12       1.0  0.6595592476358904  0.6058741990470511  0.07848223343574295  1.0000
  C   C13       1.0  0.36416356186160936  0.7610705548467394  0.596486643180917  1.0000
  C   C14       1.0  0.6026644688614695  0.2388217569131825  0.9033787028472987  1.0000
  C   C15       1.0  0.6357453183091694  0.23887735772095908  0.4035014782259196  1.0000
  C   C16       1.0  0.397251629729965  0.7612199008852444  0.0966454129988108  1.0000
  C   C17       1.0  0.9584877672545103  0.9418363671502591  0.8535452473430994  1.0000
  C   C18       1.0  0.016017446272634607  0.05828165209634761  0.6464041369481422  1.0000
  C   C19       1.0  0.04153663959540672  0.05820818670459722  0.14642944096898702  1.0000
  C   C20       1.0  0.9839577458822075  0.941678231748973  0.353566748700544  1.0000
  C   C21       1.0  0.04589666413365024  0.8722498236826438  0.8979197441271509  1.0000
  C   C22       1.0  0.1730052268270867  0.12805096608395422  0.6021428785205603  1.0000
  C   C23       1.0  0.9542416877917504  0.12783988469306004  0.10208568399580999  1.0000
  C   C24       1.0  0.8269214373747786  0.8718946047937309  0.3978241272201615  1.0000
  C   C25       1.0  0.8962051513766554  0.7509085044369785  0.8961669139935398  1.0000
  C   C26       1.0  0.14441993622948965  0.24945928514077315  0.6040821724430998  1.0000
  C   C27       1.0  0.10398114062586218  0.2491943184131387  0.10387113725190739  1.0000
  C   C28       1.0  0.8555515496887551  0.7504897317381776  0.3958917119164341  1.0000
  C   C29       1.0  0.6633952513342791  0.7012102779751501  0.8477804988125257  1.0000
  C   C30       1.0  0.9612212491789337  0.299035458189266  0.6524967293465596  1.0000
  C   C31       1.0  0.33676574003862925  0.2988763907166786  0.1522881862856451  1.0000
  C   C32       1.0  0.038751625337440046  0.7009266837492589  0.3474780720131605  1.0000
  C   C33       1.0  0.5879466100752923  0.7757966852924271  0.8050130658455998  1.0000
  C   C34       1.0  0.8111110334186975  0.2242303548750257  0.6950530656109423  1.0000
  C   C35       1.0  0.4121393670471747  0.22421235334314107  0.19502003415738053  1.0000
  C   C36       1.0  0.18884585808942952  0.7757204934917398  0.3049338682202674  1.0000
  N   N1        1.0  0.7320625487844624  0.8946385284778983  0.808547982854229  1.0000
  N   N2        1.0  0.8366996557223346  0.10540557629429512  0.6914435218186628  1.0000
  N   N3        1.0  0.26790994354490044  0.10536422130910243  0.19144906260018502  1.0000
  N   N4        1.0  0.16327312334536967  0.894532233193587  0.3085279835986725  1.0000
  O   O1        1.0  0.30164019584546525  0.8548891078349287  0.669105203240207  1.0000
  O   O2        1.0  0.44599905443920557  0.1449574022788767  0.8309563996023144  1.0000
  O   O3        1.0  0.6983428338906138  0.1450691942567275  0.33088837557796325  1.0000
  O   O4        1.0  0.554093449766036  0.8550578203035147  0.16904732712549028  1.0000
  O   O5        1.0  0.5705368512745466  0.7768915457823695  0.5705113667261941  1.0000
  O   O6        1.0  0.793644599212982  0.223048509066281  0.9290476157873613  1.0000
  O   O7        1.0  0.4293848497583284  0.22306475663466327  0.4294981881850006  1.0000
  O   O8        1.0  0.20621746607313451  0.7769057569030836  0.07094553373718071  1.0000
