data_image0
_chemical_formula_structural       Cd2H32C40N8O10
_chemical_formula_sum              "Cd2 H32 C40 N8 O10"
_cell_length_a       6.0085428983890266
_cell_length_b       8.221825623900745
_cell_length_c       20.963273169949964
_cell_angle_alpha    97.95229728100948
_cell_angle_beta     89.47941826718913
_cell_angle_gamma    109.92505992731893

_space_group_name_H-M_alt    "P 1"
_space_group_IT_number       1

loop_
  _space_group_symop_operation_xyz
  'x, y, z'

loop_
  _atom_site_type_symbol
  _atom_site_label
  _atom_site_symmetry_multiplicity
  _atom_site_fract_x
  _atom_site_fract_y
  _atom_site_fract_z
  _atom_site_occupancy
  Cd  Cd1       1.0  0.8534402429562603  0.0040789530173839  0.24832102782768573  1.0000
  Cd  Cd2       1.0  0.14655228967561149  0.995915747558577  0.7516842212665723  1.0000
  H   H1        1.0  0.9352152599916648  0.7438264847542084  0.1322125706496067  1.0000
  H   H2        1.0  0.2270441026320569  0.2649695061946744  0.3635792326981644  1.0000
  H   H3        1.0  0.06478965178359893  0.2561452542497166  0.86780124303246  1.0000
  H   H4        1.0  0.772947863552403  0.7350623838297351  0.6363987471360842  1.0000
  H   H5        1.0  0.35566801861015324  0.6724079693823841  0.2477342237425049  1.0000
  H   H6        1.0  0.7101663106196127  0.33653520881482984  0.2523418752881739  1.0000
  H   H7        1.0  0.644315369629382  0.32759558071349915  0.7522777989198843  1.0000
  H   H8        1.0  0.289800076492064  0.6634532908525019  0.7476382354598031  1.0000
  H   H9        1.0  0.3039879412089165  0.2945626709470375  0.0790110893190032  1.0000
  H   H10       1.0  0.0036257939632378653  0.7081708419641828  0.42271214646019223  1.0000
  H   H11       1.0  0.6959815686317583  0.7054327188566559  0.9210066599211117  1.0000
  H   H12       1.0  0.996400213300035  0.29189757150876267  0.5772460794218333  1.0000
  H   H13       1.0  0.12222366352244052  0.39176017801355556  0.1773421822853507  1.0000
  H   H14       1.0  0.7316936525357179  0.6138287656471632  0.325318719917199  1.0000
  H   H15       1.0  0.8777275527859133  0.608242219556935  0.8226703179596484  1.0000
  H   H16       1.0  0.26831091354327435  0.38620147566491875  0.6746419520510614  1.0000
  H   H17       1.0  0.2712757720623955  0.0438885888302991  0.4093903432536905  1.0000
  H   H18       1.0  0.23651280821546555  0.9651820970055028  0.09314670381665742  1.0000
  H   H19       1.0  0.7287697469616247  0.9561512376808989  0.5906247499706438  1.0000
  H   H20       1.0  0.7635047430354475  0.03477413218966061  0.9068613457818983  1.0000
  H   H21       1.0  0.8470819939623127  0.9069278272868575  0.47703106004833984  1.0000
  H   H22       1.0  0.9356978607674193  0.1023442843703961  0.0188926920366725  1.0000
  H   H23       1.0  0.15295337518184476  0.0930976129891619  0.5229836385882862  1.0000
  H   H24       1.0  0.06431306670791771  0.8976120123902331  0.9811148994650196  1.0000
  H   H25       1.0  0.2829038108814288  0.9469824427041544  0.2780657959690416  1.0000
  H   H26       1.0  0.3144494905616711  0.997968260220084  0.20864386921845582  1.0000
  H   H27       1.0  0.7171063214584804  0.05302130043210699  0.7219404530540957  1.0000
  H   H28       1.0  0.6855507372915283  0.0020251140888020982  0.7913608030262651  1.0000
  H   H29       1.0  0.6314937908830488  0.3523120073106867  0.0038569006908204966  1.0000
  H   H30       1.0  0.2800617612076906  0.6547386236210357  0.494200415211985  1.0000
  H   H31       1.0  0.3684963542950399  0.6476356755081909  0.9961645160718007  1.0000
  H   H32       1.0  0.7199540302175081  0.3453398980734406  0.5057656191845865  1.0000
  C   C1        1.0  0.7546826996189254  0.6635141282209459  0.1406434465105804  1.0000
  C   C2        1.0  0.1195268375321845  0.3448274483251055  0.3565591316682131  1.0000
  C   C3        1.0  0.24528394258880584  0.33645765904684316  0.8593733187903609  1.0000
  C   C4        1.0  0.8804582049633253  0.6552109185979661  0.6434211749580001  1.0000
  C   C5        1.0  0.430374120257774  0.6214332268566096  0.2052111474001279  1.0000
  C   C6        1.0  0.831595036196177  0.38750934215883603  0.2945799551515336  1.0000
  C   C7        1.0  0.5696070664456697  0.3785691707113726  0.7947984228257424  1.0000
  C   C8        1.0  0.16837397676020782  0.6124951885310567  0.7053958978903055  1.0000
  C   C9        1.0  0.635538176869609  0.5122425922198772  0.0972400090016734  1.0000
  C   C10       1.0  0.1374260027900719  0.49339065160810247  0.4014372326065399  1.0000
  C   C11       1.0  0.3644212065904569  0.48770687051814593  0.902776815946403  1.0000
  C   C12       1.0  0.8625386033854168  0.5066361843082631  0.5985400171578306  1.0000
  C   C13       1.0  0.7446250144888465  0.4593615831796214  0.03925758069561171  1.0000
  C   C14       1.0  0.2917829393791821  0.5450576536618501  0.4594723581097072  1.0000
  C   C15       1.0  0.25537171550697496  0.5405964877711684  0.9607654214853271  1.0000
  C   C16       1.0  0.7082163436780674  0.4549825800457795  0.5404975355432668  1.0000
  C   C17       1.0  0.40305704008234505  0.41381422501601867  0.11076548404020771  1.0000
  C   C18       1.0  0.9940902421210391  0.5909562546904181  0.3897467835602413  1.0000
  C   C19       1.0  0.5969153878909026  0.5861591877337701  0.8892456436539506  1.0000
  C   C20       1.0  0.005903726270233284  0.4090762627223227  0.6102207336672976  1.0000
  C   C21       1.0  0.3006886512397103  0.46817111251535704  0.1657041099391208  1.0000
  C   C22       1.0  0.8412865355846221  0.5382467159841156  0.3354881682520627  1.0000
  C   C23       1.0  0.6992995644844199  0.5318285649542532  0.8343062296941142  1.0000
  C   C24       1.0  0.15869123620574746  0.46176574334725007  0.6644862495619392  1.0000
  C   C25       1.0  0.6554143110503716  0.955701097861862  0.3697092951741112  1.0000
  C   C26       1.0  0.7054779466411886  0.06762265626537811  0.1295871861350477  1.0000
  C   C27       1.0  0.3446266451532837  0.04432203735753149  0.6302995219164345  1.0000
  C   C28       1.0  0.2945360274863376  0.9323470479412989  0.8704159835943273  1.0000
  C   C29       1.0  0.37176063361108896  0.025505108868337303  0.4490391912018907  1.0000
  C   C30       1.0  0.3519453850077455  0.9798870074187037  0.05245793114495001  1.0000
  C   C31       1.0  0.6282856372585429  0.9745257426459446  0.5509720023140829  1.0000
  C   C32       1.0  0.648059417311387  0.020066878112835695  0.9475466613103337  1.0000
  C   C33       1.0  0.6962092077366222  0.9489859078406865  0.4878608375558215  1.0000
  C   C34       1.0  0.7448160650894023  0.05592060925742  0.0100751665452776  1.0000
  C   C35       1.0  0.3038324421875132  0.05104223322832979  0.512152106360503  1.0000
  C   C36       1.0  0.2551915618842386  0.9440321816585848  0.989925534383616  1.0000
  C   C37       1.0  0.5699908241579265  0.9746585228878287  0.4365886657139413  1.0000
  C   C38       1.0  0.5983996939679557  0.0359461011432671  0.06293481115582719  1.0000
  C   C39       1.0  0.4300995295646003  0.02537751786293539  0.563419411659055  1.0000
  C   C40       1.0  0.40161049309976  0.9640051028985683  0.9370700796500914  1.0000
  N   N1        1.0  0.6538942636446096  0.7175117706942161  0.1927167221196484  1.0000
  N   N2        1.0  0.9693841436260867  0.29296980129025474  0.30497186472774024  1.0000
  N   N3        1.0  0.3460738587550908  0.2824736074102249  0.8072927734689018  1.0000
  N   N4        1.0  0.03057480138671335  0.7070345846185122  0.6950073418704933  1.0000
  N   N5        1.0  0.9670384575911442  0.53475751448606  0.029233353974419205  1.0000
  N   N6        1.0  0.437056166963707  0.4655125453003848  0.470663364240366  1.0000
  N   N7        1.0  0.0329592229563076  0.46519551200644577  0.9707859924374631  1.0000
  N   N8        1.0  0.5629266739957045  0.5345246690947859  0.5293144899493285  1.0000
  O   O1        1.0  0.855676377705798  0.9371368622049302  0.3615717835698291  1.0000
  O   O2        1.0  0.9178088919411919  0.0724072137646274  0.1364504850711796  1.0000
  O   O3        1.0  0.14436635139337986  0.062900562729034  0.6384398265915294  1.0000
  O   O4        1.0  0.08219721938375119  0.9275599440832707  0.8635520668150889  1.0000
  O   O5        1.0  0.5281690907380252  0.9662827960034476  0.3227621035434609  1.0000
  O   O6        1.0  0.5780844738404909  0.0828730920155607  0.1779186438676135  1.0000
  O   O7        1.0  0.47184318088847726  0.03372198383514301  0.6772484994228805  1.0000
  O   O8        1.0  0.42193988783075304  0.9171044732675426  0.822084037067313  1.0000
  O   O9        1.0  0.19073691313374064  0.9402941443907766  0.23823031697185126  1.0000
  O   O10       1.0  0.8092675423773128  0.059708175958213885  0.7617782420213784  1.0000
