data_image0
_chemical_formula_structural       CoH20C20N14O2
_chemical_formula_sum              "Co1 H20 C20 N14 O2"
_cell_length_a       7.603542773784246
_cell_length_b       8.515173761961677
_cell_length_c       9.636567513318624
_cell_angle_alpha    75.29362448495368
_cell_angle_beta     88.13194233635467
_cell_angle_gamma    78.35276310568736

_space_group_name_H-M_alt    "P 1"
_space_group_IT_number       1

loop_
  _space_group_symop_operation_xyz
  'x, y, z'

loop_
  _atom_site_type_symbol
  _atom_site_label
  _atom_site_symmetry_multiplicity
  _atom_site_fract_x
  _atom_site_fract_y
  _atom_site_fract_z
  _atom_site_occupancy
  Co  Co1       1.0  1.2366073675744508e-06  0.4999988232992578  0.4999988946328885  1.0000
  H   H1        1.0  0.3462874754192241  0.40230629417214203  0.9929466856203958  1.0000
  H   H2        1.0  0.6537060323322024  0.5976982826065438  0.007056721073659791  1.0000
  H   H3        1.0  0.5051918960085473  0.28873184091359144  0.23096314810158702  1.0000
  H   H4        1.0  0.4948153076360668  0.7112701840691429  0.7690403548738943  1.0000
  H   H5        1.0  0.8682834791678928  0.930745602212788  0.05905392216456559  1.0000
  H   H6        1.0  0.13171156569729447  0.06925150173011468  0.9409491431675719  1.0000
  H   H7        1.0  0.7183918981683348  0.0476327002736028  0.8219859750897741  1.0000
  H   H8        1.0  0.28159812316953026  0.9523631748752168  0.17801653621366142  1.0000
  H   H9        1.0  0.6881635750614093  0.010291256317501102  0.3922521275525526  1.0000
  H   H10       1.0  0.3118390434774767  0.9897131348467098  0.6077437148485387  1.0000
  H   H11       1.0  0.8722974016175229  0.9045566074441284  0.3100208351848863  1.0000
  H   H12       1.0  0.12770075789909188  0.09545030313618949  0.6899756087929703  1.0000
  H   H13       1.0  0.7419628713831725  0.24925323399387617  0.48944164171327037  1.0000
  H   H14       1.0  0.25804030155478586  0.7507487173032886  0.5105568409509047  1.0000
  H   H15       1.0  0.24027632170729868  0.2962917463381913  0.2953455339380541  1.0000
  H   H16       1.0  0.7597262022689931  0.7037125299000453  0.7046441118496746  1.0000
  H   H17       1.0  0.9147939859820936  0.3583837653520519  0.7877278123829399  1.0000
  H   H18       1.0  0.08520465478589041  0.6416144406666577  0.21226862544003208  1.0000
  H   H19       1.0  0.7490553589999533  0.35012423160446826  0.6952710170230745  1.0000
  H   H20       1.0  0.25094769350899776  0.6498713975351436  0.30472172091644717  1.0000
  C   C1        1.0  0.4279605576893033  0.2940889577075865  0.7524245919023828  1.0000
  C   C2        1.0  0.5720313296946741  0.7059106391350767  0.2475779943932324  1.0000
  C   C3        1.0  0.5207407935541041  0.2322685725718898  0.892016973861587  1.0000
  C   C4        1.0  0.47925026788572467  0.7677285151484269  0.10798416946592235  1.0000
  C   C5        1.0  0.46122914816066185  0.2993881241320793  0.008338600853420513  1.0000
  C   C6        1.0  0.5387638738878805  0.7006128002080557  0.9916688140796383  1.0000
  C   C7        1.0  0.5490788391627601  0.23457883652698547  0.14120356959342223  1.0000
  C   C8        1.0  0.4509220078926077  0.7654219478693632  0.8587983944288454  1.0000
  C   C9        1.0  0.7557097086655418  0.035836450076423894  0.04461130763073131  1.0000
  C   C10       1.0  0.24428637630160918  0.9641618664379834  0.95539038972548  1.0000
  C   C11       1.0  0.6704432116865958  0.10129588087907139  0.9108732199885168  1.0000
  C   C12       1.0  0.3295474371980516  0.8987038190972569  0.08913457799596361  1.0000
  C   C13       1.0  0.6950272665574103  0.1003356604565795  0.161152764900983  1.0000
  C   C14       1.0  0.3049781284283596  0.8996688883725455  0.8388522767313802  1.0000
  C   C15       1.0  0.7864467586203003  0.0256610120442886  0.3062586237643147  1.0000
  C   C16       1.0  0.21355163646901312  0.974338452216607  0.6937385594649044  1.0000
  C   C17       1.0  0.861476553715576  0.23678945395879228  0.4241737701847939  1.0000
  C   C18       1.0  0.13853318996943625  0.7632124413739235  0.5758234404885486  1.0000
  C   C19       1.0  0.1139723119984026  0.25736376529365396  0.3229194483626188  1.0000
  C   C20       1.0  0.8860289476121396  0.7426344068466761  0.6770758610026845  1.0000
  N   N1        1.0  0.22851044156094968  0.39723421926068875  0.5892950831790316  1.0000
  N   N2        1.0  0.7714908810913242  0.60276402949696  0.41070435726184945  1.0000
  N   N3        1.0  0.37928878028225194  0.3472577362556635  0.5248372345170793  1.0000
  N   N4        1.0  0.6207183603206303  0.6527442121097523  0.47516213738282426  1.0000
  N   N5        1.0  0.5076625826019595  0.28114672938627894  0.6265940817766023  1.0000
  N   N6        1.0  0.4923437950984988  0.718852786474116  0.37340797823077315  1.0000
  N   N7        1.0  0.25345078867442783  0.3672544220125999  0.7316686026332633  1.0000
  N   N8        1.0  0.7465432160887955  0.6327414693588054  0.26833583067480055  1.0000
  N   N9        1.0  0.8998453786889369  0.13110109711628584  0.3401483709266131  1.0000
  N   N10       1.0  0.10015807144855413  0.868899634247356  0.6598514318690931  1.0000
  N   N11       1.0  0.0593747546631533  0.14258740776789117  0.274022938165885  1.0000
  N   N12       1.0  0.9406283709935077  0.8574144860662825  0.7259724461915982  1.0000
  N   N13       1.0  0.9961798409426026  0.3190886765819769  0.4153750557291501  1.0000
  N   N14       1.0  0.003828846880018874  0.6809119870249063  0.584622490151226  1.0000
  O   O1        1.0  0.8777443381827792  0.35112100385621403  0.6942915949334889  1.0000
  O   O2        1.0  0.12225850582282043  0.648869752911324  0.3057064713765883  1.0000
