data_image0
_chemical_formula_structural       Cu3P4H18C16N2O18
_chemical_formula_sum              "Cu3 P4 H18 C16 N2 O18"
_cell_length_a       8.476756866654922
_cell_length_b       8.922523074183324
_cell_length_c       9.641198910737529
_cell_angle_alpha    109.64016397077586
_cell_angle_beta     99.74243360811452
_cell_angle_gamma    109.38260061225402

_space_group_name_H-M_alt    "P 1"
_space_group_IT_number       1

loop_
  _space_group_symop_operation_xyz
  'x, y, z'

loop_
  _atom_site_type_symbol
  _atom_site_label
  _atom_site_symmetry_multiplicity
  _atom_site_fract_x
  _atom_site_fract_y
  _atom_site_fract_z
  _atom_site_occupancy
  Cu  Cu1       1.0  0.0005860874918184  0.00048431969850780014  9.672783367880004e-05  1.0000
  Cu  Cu2       1.0  0.2711955637600242  0.24255877020235062  0.5219805328492556  1.0000
  Cu  Cu3       1.0  0.728200952381556  0.75690288284531  0.4781101681786596  1.0000
  P   P1        1.0  0.0339824422515136  0.7096153525630414  0.7015411061577695  1.0000
  P   P2        1.0  0.9661025992088457  0.2905676472511872  0.2981671836178138  1.0000
  P   P3        1.0  0.09771774600758931  0.07066836932679621  0.7288514103791501  1.0000
  P   P4        1.0  0.9022086316886516  0.9289460315646212  0.2709461516521332  1.0000
  H   H1        1.0  0.12789597960906468  0.5083176677549377  0.6081401645350157  1.0000
  H   H2        1.0  0.8715596475267517  0.4914373329208673  0.3914815544447238  1.0000
  H   H3        1.0  0.49449368097543817  0.28483971047605655  0.06671362034769157  1.0000
  H   H4        1.0  0.5060038876554459  0.715385540218634  0.9336378027606858  1.0000
  H   H5        1.0  0.7195389200430996  0.570985312314896  0.10676361348862438  1.0000
  H   H6        1.0  0.28054060938065833  0.42926591323448804  0.8932512963463071  1.0000
  H   H7        1.0  0.7802933836927437  0.3530579481689103  0.6737854849955627  1.0000
  H   H8        1.0  0.2197798575359685  0.6468754189291489  0.32623894359309713  1.0000
  H   H9        1.0  0.5661148888044777  0.05372298957747291  0.6228931154666812  1.0000
  H   H10       1.0  0.4341875006097667  0.946207860262732  0.37743537459325455  1.0000
  H   H11       1.0  0.14944197125138467  0.896422020119225  0.4729519894136376  1.0000
  H   H12       1.0  0.8508864524649199  0.10353708811498312  0.5267376304098121  1.0000
  H   H13       1.0  0.34718508127928516  0.9741775306008975  0.9200542962478978  1.0000
  H   H14       1.0  0.6524862209448373  0.025740774667092108  0.07980370831487699  1.0000
  H   H15       1.0  0.41847078618955186  0.8685975812592092  0.7673535763962465  1.0000
  H   H16       1.0  0.5817856434086295  0.13148461545915072  0.23288759000519837  1.0000
  H   H17       1.0  0.8395294405225258  0.5915309009214553  0.9067914364635571  1.0000
  H   H18       1.0  0.1602540691481948  0.4086706050503325  0.09320059400398159  1.0000
  C   C1        1.0  0.5540720538621926  0.29212347849531983  0.9763162826899717  1.0000
  C   C2        1.0  0.4462394321861467  0.7080332180443208  0.023914426073034352  1.0000
  C   C3        1.0  0.6783154383756199  0.4530592309269468  0.0007911179430452132  1.0000
  C   C4        1.0  0.32181118302128914  0.5471267784981607  0.9992674331141631  1.0000
  C   C5        1.0  0.7138354615034644  0.3292700187161587  0.7565168108502008  1.0000
  C   C6        1.0  0.2862636059065835  0.6707759981542197  0.24353795140680032  1.0000
  C   C7        1.0  0.5929919289166107  0.16538417384033727  0.7292219751401633  1.0000
  C   C8        1.0  0.40725800165924414  0.8346572959699475  0.27098385237849254  1.0000
  C   C9        1.0  0.18920270317403262  0.9037637758106741  0.687283231369051  1.0000
  C   C10       1.0  0.8111977506430463  0.09619913047456663  0.31238581090379824  1.0000
  C   C11       1.0  0.4829569385627722  0.44014135001071963  0.41521608839519086  1.0000
  C   C12       1.0  0.5156918458511727  0.5590084748420808  0.584458440800539  1.0000
  C   C13       1.0  0.5066799879254873  0.14447085187516967  0.8383364260928304  1.0000
  C   C14       1.0  0.4935874367354955  0.8556492135763208  0.16189109267158858  1.0000
  C   C15       1.0  0.37010820945958756  0.9700710270800031  0.8104280006377352  1.0000
  C   C16       1.0  0.6301110291708768  0.03001304418319251  0.18965901469726995  1.0000
  N   N1        1.0  0.7527991131292499  0.46845219631223506  0.8905173555280684  1.0000
  N   N2        1.0  0.2471614719102391  0.5316928320942438  0.10944229099033015  1.0000
  O   O1        1.0  0.5488882808681694  0.5137853941866126  0.33423483228115464  1.0000
  O   O2        1.0  0.4499153428155651  0.4853647391324289  0.6655140106870975  1.0000
  O   O3        1.0  0.9044457122623797  0.9910533603974444  0.6251920210193307  1.0000
  O   O4        1.0  0.09531228517191442  0.008689357731412902  0.3756831167695083  1.0000
  O   O5        1.0  0.8763287003169609  0.6087319698585318  0.5538744181562765  1.0000
  O   O6        1.0  0.12353834386902922  0.39165975203842157  0.4459624910636821  1.0000
  O   O7        1.0  0.21377486426272443  0.22391303555325953  0.7013729920698424  1.0000
  O   O8        1.0  0.7859424242611722  0.7762906636579956  0.29879478475096743  1.0000
  O   O9        1.0  0.11845522285149462  0.1383579030446356  0.903407177185578  1.0000
  O   O10       1.0  0.8830788109694938  0.8620391601758827  0.09684114376197088  1.0000
  O   O11       1.0  0.9925799272013052  0.7731781315447183  0.8545735323746941  1.0000
  O   O12       1.0  0.008005482004087084  0.2277864321287097  0.1452800877203657  1.0000
  O   O13       1.0  0.13422979678822605  0.591725480283003  0.7150621007263568  1.0000
  O   O14       1.0  0.8653064365850939  0.40803247439489354  0.2846344059778333  1.0000
  O   O15       1.0  0.39271267859116676  0.27700149444282124  0.3672629061866459  1.0000
  O   O16       1.0  0.6059763104446321  0.7221641081406106  0.6324306142889073  1.0000
  O   O17       1.0  0.21051331923435881  0.8526499409815573  0.5374463383476071  1.0000
  O   O18       1.0  0.7902501123865094  0.14767109543301876  0.4624483071236726  1.0000
