data_image0
_chemical_formula_structural       Ni3P2H66C78N12O20
_chemical_formula_sum              "Ni3 P2 H66 C78 N12 O20"
_cell_length_a       13.66920296110097
_cell_length_b       13.669224619807526
_cell_length_c       13.669211628996173
_cell_angle_alpha    74.64573313926276
_cell_angle_beta     74.64580841801809
_cell_angle_gamma    74.64568538788839

_space_group_name_H-M_alt    "P 1"
_space_group_IT_number       1

loop_
  _space_group_symop_operation_xyz
  'x, y, z'

loop_
  _atom_site_type_symbol
  _atom_site_label
  _atom_site_symmetry_multiplicity
  _atom_site_fract_x
  _atom_site_fract_y
  _atom_site_fract_z
  _atom_site_occupancy
  Ni  Ni1       1.0  0.4999997629639239  0.9999998640829375  6.652774689524281e-08  1.0000
  Ni  Ni2       1.0  5.8553801799903864e-08  0.9999993037385979  0.4999993605584123  1.0000
  Ni  Ni3       1.0  0.9999995112167711  0.5000000557881635  3.924092482015409e-07  1.0000
  P   P1        1.0  0.6056605829423987  0.6056601491861429  0.6056601280247094  1.0000
  P   P2        1.0  0.3943396376888657  0.39434100827848073  0.39434057248656984  1.0000
  H   H1        1.0  0.7019337901097489  0.42931558704749057  0.7430083956152558  1.0000
  H   H2        1.0  0.42931610062284165  0.7430077069213538  0.7019324467929311  1.0000
  H   H3        1.0  0.7430072051992911  0.7019319734037526  0.42931503589051784  1.0000
  H   H4        1.0  0.2980679807546878  0.5706837270210772  0.25699165121064743  1.0000
  H   H5        1.0  0.5706833421392759  0.25699209513306437  0.2980673573252375  1.0000
  H   H6        1.0  0.2569922365493085  0.29806706951873013  0.5706842386047626  1.0000
  H   H7        1.0  0.7002816848698785  0.9786871820531002  0.9450465123984202  1.0000
  H   H8        1.0  0.9786880831231671  0.9450457157008503  0.7002814081446543  1.0000
  H   H9        1.0  0.9450438072228381  0.7002815781038265  0.9786877987543929  1.0000
  H   H10       1.0  0.2997185343103581  0.021312457722821365  0.05495386013283374  1.0000
  H   H11       1.0  0.021312135481053904  0.0549539234998946  0.29971823312084217  1.0000
  H   H12       1.0  0.05495563669131799  0.2997182251009464  0.02131346789528978  1.0000
  H   H13       1.0  0.667102510685112  0.8848651132269796  0.03863927011288841  1.0000
  H   H14       1.0  0.8848650951152026  0.03863998446264821  0.6671018513595683  1.0000
  H   H15       1.0  0.0386395972640017  0.6671024756283545  0.8848650597526416  1.0000
  H   H16       1.0  0.33289848419870793  0.11513512167685042  0.9613600066570668  1.0000
  H   H17       1.0  0.11513512406503418  0.9613596553132737  0.33289852117168556  1.0000
  H   H18       1.0  0.9613590700935222  0.33289824783649646  0.11513470557533614  1.0000
  H   H19       1.0  0.4012954062149348  0.5459914944789048  0.6624476255851948  1.0000
  H   H20       1.0  0.5459912396486857  0.662447469713186  0.40129526727775305  1.0000
  H   H21       1.0  0.662448871081189  0.4012950831580042  0.5459900436048102  1.0000
  H   H22       1.0  0.5987055901199128  0.4540102581136267  0.33755197916477897  1.0000
  H   H23       1.0  0.45400975581114983  0.3375527657658211  0.5987047407579597  1.0000
  H   H24       1.0  0.33755212394114403  0.5987043937642441  0.4540101660737719  1.0000
  H   H25       1.0  0.6400840144114356  0.27284151163780734  0.8595993312169695  1.0000
  H   H26       1.0  0.27284176869860494  0.8595998858943616  0.6400839743633356  1.0000
  H   H27       1.0  0.8595994212549414  0.6400845316437727  0.27284028586630876  1.0000
  H   H28       1.0  0.3599154282121689  0.7271590483981923  0.14039953999258606  1.0000
  H   H29       1.0  0.7271584494681064  0.14039899474961717  0.35991586854503044  1.0000
  H   H30       1.0  0.14039924596406914  0.35991694980266703  0.7271585465530492  1.0000
  H   H31       1.0  0.6277657104775899  0.9226926337392243  0.35945539955969963  1.0000
  H   H32       1.0  0.9226929070396752  0.3594548945705966  0.6277641447516018  1.0000
  H   H33       1.0  0.3594542010739731  0.6277658395213594  0.9226970384540819  1.0000
  H   H34       1.0  0.3722329584694819  0.07730884943274674  0.6405456266569232  1.0000
  H   H35       1.0  0.0773065361599521  0.6405456660405805  0.37223545772370414  1.0000
  H   H36       1.0  0.6405483464856019  0.37223179630554887  0.077305442602146  1.0000
  H   H37       1.0  0.33988085759487774  0.39215139818048067  0.7840881715488521  1.0000
  H   H38       1.0  0.39215063966203445  0.7840895128542299  0.3398811256631546  1.0000
  H   H39       1.0  0.7840896933924955  0.3398817892538162  0.39215036827350497  1.0000
  H   H40       1.0  0.660119360156294  0.607849756408257  0.21590887263364064  1.0000
  H   H41       1.0  0.6078495795182022  0.21591012692169184  0.6601192468680992  1.0000
  H   H42       1.0  0.2159097502446343  0.6601195299141268  0.6078490325589314  1.0000
  H   H43       1.0  0.3349282569026784  0.11876360710922286  0.46506490799642825  1.0000
  H   H44       1.0  0.11876527883326561  0.4650669029277522  0.3349271971876107  1.0000
  H   H45       1.0  0.46506729562546684  0.33492512827765347  0.11876135318657083  1.0000
  H   H46       1.0  0.6650704120443862  0.8812378760627555  0.5349361182201945  1.0000
  H   H47       1.0  0.8812357166265699  0.5349333325512544  0.6650728108481019  1.0000
  H   H48       1.0  0.534933698084359  0.6650720729743043  0.8812394614206056  1.0000
  H   H49       1.0  0.5385365193925509  0.9121656985881614  0.2383206468683241  1.0000
  H   H50       1.0  0.9121657801044379  0.2383214010923638  0.5385363366175185  1.0000
  H   H51       1.0  0.2383199693045839  0.5385355370271653  0.9121660669423834  1.0000
  H   H52       1.0  0.4614636997876786  0.08783394118776044  0.7616797256629299  1.0000
  H   H53       1.0  0.0878336641087074  0.7616799186507565  0.46146379548068245  1.0000
  H   H54       1.0  0.7616786971779278  0.46146366932416066  0.08783410167133358  1.0000
  H   H55       1.0  0.3677930340189519  0.2051195717850477  0.3000976182666832  1.0000
  H   H56       1.0  0.2051196091850329  0.30009891083680873  0.3677935986384143  1.0000
  H   H57       1.0  0.30009819100045837  0.36779324157506477  0.20512005056676938  1.0000
  H   H58       1.0  0.6322056333385789  0.7948811516798034  0.6999021470612944  1.0000
  H   H59       1.0  0.7948798341531003  0.6999008917927869  0.6322069367455185  1.0000
  H   H60       1.0  0.699901252337682  0.6322065610545311  0.7948804848171634  1.0000
  H   H61       1.0  0.3608200115397153  0.19275289020701086  0.10171385873664458  1.0000
  H   H62       1.0  0.19275327090553424  0.10171351249207561  0.3608200684130481  1.0000
  H   H63       1.0  0.10171303275362932  0.3608205031116682  0.1927526472936236  1.0000
  H   H64       1.0  0.6391794322359274  0.8072476709793507  0.8982864750044185  1.0000
  H   H65       1.0  0.8072461712805677  0.8982862889871585  0.6391790044393632  1.0000
  H   H66       1.0  0.8982864101470014  0.6391785409611613  0.8072480897331716  1.0000
  C   C1        1.0  0.5558466009053049  0.4973469551526364  0.6939564469453217  1.0000
  C   C2        1.0  0.49734667887805273  0.6939558792036705  0.5558463206577003  1.0000
  C   C3        1.0  0.6939555023666274  0.5558459247525889  0.4973464099555471  1.0000
  C   C4        1.0  0.4441543955680558  0.5026540394583136  0.3060440907132787  1.0000
  C   C5        1.0  0.5026535407396934  0.30604451912900993  0.44415385023068416  1.0000
  C   C6        1.0  0.3060447163761069  0.4441529564665673  0.5026541642185763  1.0000
  C   C7        1.0  0.47885516720002397  0.023175149508403957  0.4011123799034308  1.0000
  C   C8        1.0  0.0231765099574162  0.40111449892680895  0.478852543539908  1.0000
  C   C9        1.0  0.4011135572507456  0.4788534538709046  0.023177175491177548  1.0000
  C   C10       1.0  0.5211427259049515  0.9768264965172475  0.598888809165871  1.0000
  C   C11       1.0  0.976823709084307  0.5988858988307015  0.5211468960827262  1.0000
  C   C12       1.0  0.5988874386246295  0.521144507663351  0.9768256312704083  1.0000
  C   C13       1.0  0.6227931825783912  0.42084514778731125  0.7510680973539011  1.0000
  C   C14       1.0  0.4208456886317721  0.7510670068441103  0.6227934355971881  1.0000
  C   C15       1.0  0.7510671904807397  0.6227947785296949  0.4208440119833412  1.0000
  C   C16       1.0  0.3772062617732672  0.5791554139742202  0.24893296765291958  1.0000
  C   C17       1.0  0.5791553068280706  0.2489332286348969  0.3772065724385243  1.0000
  C   C18       1.0  0.2489330295745091  0.37720637835974463  0.5791559572621807  1.0000
  C   C19       1.0  0.4866286219169282  0.3235614576406292  0.8279283737096534  1.0000
  C   C20       1.0  0.3235623506384684  0.8279280718061345  0.4866291322309807  1.0000
  C   C21       1.0  0.8279292021186464  0.4866300730229227  0.3235617687424863  1.0000
  C   C22       1.0  0.5133700434135521  0.6764377475603496  0.17207033237254882  1.0000
  C   C23       1.0  0.676437867528243  0.17207080883784434  0.5133707106773856  1.0000
  C   C24       1.0  0.17207179377869858  0.5133709210128502  0.6764380376503637  1.0000
  C   C25       1.0  0.45363096225584343  0.48735222738165623  0.7063984431442449  1.0000
  C   C26       1.0  0.4873528129064653  0.7063975313406916  0.45363045834892557  1.0000
  C   C27       1.0  0.7063989557408804  0.45363141824028463  0.48735203272146066  1.0000
  C   C28       1.0  0.5463684805062742  0.512647574672762  0.29360136097392336  1.0000
  C   C29       1.0  0.5126474058362619  0.2936013498784646  0.5463701158251979  1.0000
  C   C30       1.0  0.2936020407324804  0.5463695763706584  0.5126485049371468  1.0000
  C   C31       1.0  0.5886043608021225  0.33417529168998783  0.8167317248199096  1.0000
  C   C32       1.0  0.33417555583723413  0.8167320882862941  0.5886033716580243  1.0000
  C   C33       1.0  0.8167324592130856  0.5886019384359215  0.3341753279828339  1.0000
  C   C34       1.0  0.4113974093477708  0.6658247797849839  0.18326665783161636  1.0000
  C   C35       1.0  0.6658238875009062  0.18326771434330172  0.4113971637259013  1.0000
  C   C36       1.0  0.18326775939113554  0.411397700764816  0.6658243132826627  1.0000
  C   C37       1.0  0.5709730012457825  0.9552411103598715  0.4214021445210039  1.0000
  C   C38       1.0  0.9552410254596  0.4214006199269635  0.5709733251116447  1.0000
  C   C39       1.0  0.4214004189576814  0.5709741859649782  0.9552433309163177  1.0000
  C   C40       1.0  0.42902644252986016  0.0447594508264899  0.5785981892200597  1.0000
  C   C41       1.0  0.0447591935821166  0.5785997778305474  0.42902611451098943  1.0000
  C   C42       1.0  0.5786005763416783  0.4290237749940999  0.04475874457950369  1.0000
  C   C43       1.0  0.41898856492040454  0.40140449824676244  0.7738745207307007  1.0000
  C   C44       1.0  0.4014024161152179  0.7738751288834891  0.4189885833522595  1.0000
  C   C45       1.0  0.7738758507369142  0.41898802402156565  0.4014037470608898  1.0000
  C   C46       1.0  0.5810124292488794  0.5985964940634714  0.22612309186487783  1.0000
  C   C47       1.0  0.5985970267854128  0.22612391518934055  0.5810121536745356  1.0000
  C   C48       1.0  0.22612514472292844  0.5810122114574413  0.5985962609748228  1.0000
  C   C49       1.0  0.450334956055606  0.22721680898628457  0.8942956174066126  1.0000
  C   C50       1.0  0.22721627536831326  0.8942953212140594  0.45033859909564455  1.0000
  C   C51       1.0  0.8942945578841945  0.45033782015794105  0.22721597835028715  1.0000
  C   C52       1.0  0.5496621586041998  0.7727834810539774  0.10570394400382813  1.0000
  C   C53       1.0  0.7727839455399776  0.10570432028739418  0.5496639672328812  1.0000
  C   C54       1.0  0.1057056611575291  0.5496625775995626  0.77278346127234  1.0000
  C   C55       1.0  0.4078741999108786  0.0678447402942055  0.48002110210725135  1.0000
  C   C56       1.0  0.06784401423547591  0.48001803903488843  0.4078762525196069  1.0000
  C   C57       1.0  0.4800213432621375  0.4078744156871323  0.06784310100281499  1.0000
  C   C58       1.0  0.5921244685986836  0.932155984321007  0.519980125752241  1.0000
  C   C59       1.0  0.9321569802108415  0.5199814373121826  0.592123225893218  1.0000
  C   C60       1.0  0.519981204158924  0.5921239781213572  0.9321584471447933  1.0000
  C   C61       1.0  0.4910220523067822  0.989767018371154  0.22666588271013688  1.0000
  C   C62       1.0  0.9897678541667645  0.22666639846507058  0.49102173343198524  1.0000
  C   C63       1.0  0.22666575182242354  0.49102224298313507  0.9897666035123507  1.0000
  C   C64       1.0  0.5089773910313511  0.01023278425844148  0.7733346526737961  1.0000
  C   C65       1.0  0.010233140717055304  0.7733338364387595  0.50897754333797  1.0000
  C   C66       1.0  0.7733352426238937  0.5089772333639289  0.010232874900467086  1.0000
  C   C67       1.0  0.39780724928003514  0.14235007423157947  0.25847057705717447  1.0000
  C   C68       1.0  0.1423505491260286  0.258469611073302  0.3978072902262113  1.0000
  C   C69       1.0  0.2584688525431744  0.39780732477632347  0.14235051002741977  1.0000
  C   C70       1.0  0.6021921934820824  0.8576497278228389  0.741529227061001  1.0000
  C   C71       1.0  0.8576496704917107  0.7415307872593786  0.6021928806621729  1.0000
  C   C72       1.0  0.7415298139393444  0.6021918815750098  0.8576496585862968  1.0000
  C   C73       1.0  0.3977906826425937  0.13581740098668865  0.16013225832253397  1.0000
  C   C74       1.0  0.1358184359802124  0.16013385728862062  0.3977903825536729  1.0000
  C   C75       1.0  0.16013282228120573  0.397790643354199  0.13581815802509573  1.0000
  C   C76       1.0  0.6022095366761562  0.8641814808076447  0.8398690471173396  1.0000
  C   C77       1.0  0.8641810077954305  0.8398667038977339  0.6022099511873903  1.0000
  C   C78       1.0  0.8398673968990309  0.6022089964217231  0.8641822145061581  1.0000
  N   N1        1.0  0.4575318922716107  0.049132984336566224  0.3002834729765311  1.0000
  N   N2        1.0  0.0491333209203475  0.3002843993294916  0.4575318826111144  1.0000
  N   N3        1.0  0.3002849880433871  0.4575319947062155  0.049133202740321714  1.0000
  N   N4        1.0  0.5424667750859129  0.9508677391282916  0.6997162923514538  1.0000
  N   N5        1.0  0.9508668981213761  0.6997159984280116  0.5424675570115199  1.0000
  N   N6        1.0  0.6997167828210492  0.542467319362359  0.9508668440855886  1.0000
  N   N7        1.0  0.45615145337615814  0.04066677828767953  0.1414152534141095  1.0000
  N   N8        1.0  0.0406658614170468  0.1414160385534444  0.456150822597877  1.0000
  N   N9        1.0  0.14141535408571573  0.45615096773602914  0.04066675639315064  1.0000
  N   N10       1.0  0.5438479909755074  0.9593337834738522  0.8585858115927038  1.0000
  N   N11       1.0  0.959332805940484  0.8585846849114064  0.5438489427301009  1.0000
  N   N12       1.0  0.8585840888149151  0.5438480763368074  0.9593339806336446  1.0000
  O   O1        1.0  0.6571907481238385  0.65718939021113  0.6571883061025688  1.0000
  O   O2        1.0  0.34281024719749104  0.3428116032494587  0.34281076902451707  1.0000
  O   O3        1.0  0.5208071571676527  0.15227347011073528  0.925938123023528  1.0000
  O   O4        1.0  0.1522735188028861  0.9259380936661402  0.5208074939247211  1.0000
  O   O5        1.0  0.9259379189457635  0.5208055251909799  0.152274717608492  1.0000
  O   O6        1.0  0.4791922866079901  0.8477270910756262  0.07406221071752844  1.0000
  O   O7        1.0  0.8477267008148529  0.07406230466654058  0.47919267696367035  1.0000
  O   O8        1.0  0.0740615243923699  0.4791942774386157  0.8477258177754408  1.0000
  O   O9        1.0  0.66062559442436  0.963594189894188  0.015746588466683416  1.0000
  O   O10       1.0  0.9635950235607211  0.015745634743247198  0.6606254901789727  1.0000
  O   O11       1.0  0.0157456942494036  0.6606253802970912  0.9635939330547102  1.0000
  O   O12       1.0  0.33937462475587665  0.03640544988173394  0.9842537840645634  1.0000
  O   O13       1.0  0.03640597146161181  0.9842538421790012  0.3393747194996096  1.0000
  O   O14       1.0  0.9842529726706175  0.33937458461100084  0.03640603391613691  1.0000
  O   O15       1.0  0.3541434843465225  0.22753017354548172  0.9113515820420659  1.0000
  O   O16       1.0  0.227530374805994  0.9113514356888716  0.35414277632424523  1.0000
  O   O17       1.0  0.9113476850891331  0.35414170952913077  0.2275297438179535  1.0000
  O   O18       1.0  0.6458575099612744  0.7724700607831709  0.08864696346213198  1.0000
  O   O19       1.0  0.7724706192028136  0.08864728210143377  0.6458569037314419  1.0000
  O   O20       1.0  0.0886502059887917  0.6458584182326349  0.7724703860055657  1.0000
