data_image0
_chemical_formula_structural       Cu4Mo8H24C32N8O26
_chemical_formula_sum              "Cu4 Mo8 H24 C32 N8 O26"
_cell_length_a       8.29976179118214
_cell_length_b       11.809163641249919
_cell_length_c       12.527693508491499
_cell_angle_alpha    114.84012315469387
_cell_angle_beta     96.35719211857219
_cell_angle_gamma    98.87369714444436

_space_group_name_H-M_alt    "P 1"
_space_group_IT_number       1

loop_
  _space_group_symop_operation_xyz
  'x, y, z'

loop_
  _atom_site_type_symbol
  _atom_site_label
  _atom_site_symmetry_multiplicity
  _atom_site_fract_x
  _atom_site_fract_y
  _atom_site_fract_z
  _atom_site_occupancy
  Cu  Cu1       1.0  0.19528126628849662  0.4889897737750318  0.09450664305538237  1.0000
  Cu  Cu2       1.0  0.8047173726163878  0.5110074045420558  0.9054914651261754  1.0000
  Cu  Cu3       1.0  0.2490473753051106  0.0836018848138522  0.5313362577753296  1.0000
  Cu  Cu4       1.0  0.7509531390715978  0.9163933614939949  0.4686644052402186  1.0000
  Mo  Mo1       1.0  0.1809169690265051  0.3676737836752437  0.47760079387013116  1.0000
  Mo  Mo2       1.0  0.8190834543773774  0.6323291405687783  0.5224037078558936  1.0000
  Mo  Mo3       1.0  0.5737022451751985  0.36179166044016864  0.4854051851676502  1.0000
  Mo  Mo4       1.0  0.42629667919708675  0.6382103169766182  0.5145988381694764  1.0000
  Mo  Mo5       1.0  0.43257793920039217  0.3208533019798878  0.22209017650070711  1.0000
  Mo  Mo6       1.0  0.5674152465807084  0.6791420005089606  0.7779036208010339  1.0000
  Mo  Mo7       1.0  0.1614217808725584  0.6718685718120909  0.7650447144477326  1.0000
  Mo  Mo8       1.0  0.8385809103341375  0.3281381631023379  0.23495267394048372  1.0000
  H   H1        1.0  0.013310720337216298  0.2584420502567326  0.03135410666723707  1.0000
  H   H2        1.0  0.9866880808030628  0.7415637603857306  0.9686450432665412  1.0000
  H   H3        1.0  0.8750748244386986  0.0280229192628312  0.9447281657849587  1.0000
  H   H4        1.0  0.12491491897878149  0.971984890379119  0.055274349970133634  1.0000
  H   H5        1.0  0.9275327872307172  0.8743160952981412  0.7508863355999296  1.0000
  H   H6        1.0  0.0724530203876554  0.1256907866939585  0.24911394596038153  1.0000
  H   H7        1.0  0.11485887285217439  0.9493886726496187  0.6408384402319813  1.0000
  H   H8        1.0  0.8851365104543092  0.050609499631988776  0.3591670236516009  1.0000
  H   H9        1.0  0.4080786518530033  0.3489288344037789  0.7067618344893276  1.0000
  H   H10       1.0  0.5919285609783104  0.6510605954784057  0.2932345845620149  1.0000
  H   H11       1.0  0.3683693439937912  0.49977031019457036  0.9029468118492121  1.0000
  H   H12       1.0  0.6316468630271075  0.5002248006510328  0.09705247753550589  1.0000
  H   H13       1.0  0.4351156008108887  0.09163099490211832  0.3698457974354952  1.0000
  H   H14       1.0  0.564889682161926  0.9083680476277963  0.630155102084615  1.0000
  H   H15       1.0  0.5668338807696146  0.05737975824754219  0.1925314553957378  1.0000
  H   H16       1.0  0.43316448663397017  0.9426164643291983  0.807467851447939  1.0000
  H   H17       1.0  0.5107893925189729  0.8417614602869038  0.02151455323144095  1.0000
  H   H18       1.0  0.48920926467899767  0.15823571938133807  0.978485153246254  1.0000
  H   H19       1.0  0.32905693973448547  0.6567948726061773  0.028996081311873964  1.0000
  H   H20       1.0  0.6709435563491511  0.34320037235051615  0.97100298340753  1.0000
  H   H21       1.0  0.04167447874644371  0.6081778625409128  0.307716698283123  1.0000
  H   H22       1.0  0.9583259990441135  0.3918173810646266  0.6922807681401507  1.0000
  H   H23       1.0  0.07803689206691898  0.8250513642528857  0.47069269034252403  1.0000
  H   H24       1.0  0.9219636131632568  0.1749438813793844  0.5293071735249555  1.0000
  C   C1        1.0  0.13794618455454352  0.235572903671553  0.8843872680152457  1.0000
  C   C2        1.0  0.8620538941757232  0.7644290594274922  0.11561203918834204  1.0000
  C   C3        1.0  0.03329570157639949  0.1899020567271421  0.9457548462523632  1.0000
  C   C4        1.0  0.9666977196124121  0.8101018834917044  0.054246385986147325  1.0000
  C   C5        1.0  0.9577503691188909  0.062025076743964305  0.8976053408341828  1.0000
  C   C6        1.0  0.04224413374814857  0.9379865284444688  0.10239661227740976  1.0000
  C   C7        1.0  0.9868393861062826  0.9749200584456332  0.7871630005658048  1.0000
  C   C8        1.0  0.0131541034352978  0.025080044494068005  0.21283831018764227  1.0000
  C   C9        1.0  0.08923895285471421  0.016311757630234104  0.725216414526436  1.0000
  C   C10       1.0  0.9107641648518906  0.9836882598174126  0.27478153052567217  1.0000
  C   C11       1.0  0.16498469759753928  0.1469444374018209  0.7704262037217688  1.0000
  C   C12       1.0  0.8350173066642342  0.8530517550576847  0.22957413853460912  1.0000
  C   C13       1.0  0.331952564391635  0.31312525395079405  0.756239112779312  1.0000
  C   C14       1.0  0.6680572382960365  0.6868727884037965  0.24375930468207238  1.0000
  C   C15       1.0  0.3089938583242072  0.3992008001227418  0.8690139912343043  1.0000
  C   C16       1.0  0.691009966530153  0.6007934562740544  0.13098411096763846  1.0000
  C   C17       1.0  0.31259637267361734  0.8946812245144857  0.3017876998623736  1.0000
  C   C18       1.0  0.6874004181990612  0.1053178878385808  0.6982102509293995  1.0000
  C   C19       1.0  0.4149204149685347  0.9972489399972632  0.2950779257381059  1.0000
  C   C20       1.0  0.5850776809337503  0.002746326839123001  0.7049225797676897  1.0000
  C   C21       1.0  0.4870196707731366  0.9776003496240547  0.19656813613367768  1.0000
  C   C22       1.0  0.512980448870273  0.0223977741691215  0.803428852140641  1.0000
  C   C23       1.0  0.4564792174643629  0.8544131949045595  0.09971781484693316  1.0000
  C   C24       1.0  0.5435188692913827  0.1455820712562499  0.9002818915107937  1.0000
  C   C25       1.0  0.35801450289493875  0.7520272269150181  0.10427111099949823  1.0000
  C   C26       1.0  0.6419847155987171  0.24797186558508597  0.895727796450096  1.0000
  C   C27       1.0  0.28594193975435905  0.7685142209199186  0.20495188247853963  1.0000
  C   C28       1.0  0.7140533520867223  0.23148394460591257  0.7950455899243424  1.0000
  C   C29       1.0  0.1176943425517436  0.6887082413690351  0.3026841963203069  1.0000
  C   C30       1.0  0.8823055055903595  0.3112889266837868  0.6973139906161308  1.0000
  C   C31       1.0  0.14110041946982224  0.8127303014930832  0.39631504085230773  1.0000
  C   C32       1.0  0.8588994561118993  0.18726686858646963  0.6036855435283357  1.0000
  N   N1        1.0  0.2105493803686187  0.36439363812869635  0.9326037833024757  1.0000
  N   N2        1.0  0.7894549374286584  0.6356063683791006  0.06739344135642968  1.0000
  N   N3        1.0  0.25908745861717364  0.18883097127137208  0.7046568573240961  1.0000
  N   N4        1.0  0.7409200213884546  0.811163256359343  0.295343878586685  1.0000
  N   N5        1.0  0.2366399247026294  0.9162646882947456  0.3990872159181366  1.0000
  N   N6        1.0  0.7633578039059686  0.08373345805370751  0.6009120122906353  1.0000
  N   N7        1.0  0.18938009518992516  0.6642810042775409  0.20759656652413133  1.0000
  N   N8        1.0  0.8106164241814542  0.3357171523351781  0.7924025829297677  1.0000
  O   O1        1.0  0.12246994900653618  0.4709814005951927  0.6075308472650889  1.0000
  O   O2        1.0  0.8775340106436004  0.5290214861002412  0.3924658992448684  1.0000
  O   O3        1.0  0.42239757148809093  0.458524879606131  0.570819845357967  1.0000
  O   O4        1.0  0.5776025163887155  0.5414770841684984  0.42918026099368933  1.0000
  O   O5        1.0  0.17522498621519136  0.2263330726104726  0.4932268391019647  1.0000
  O   O6        1.0  0.8247721127449594  0.7736669981852629  0.5067731096199708  1.0000
  O   O7        1.0  0.34622713826649937  0.30850860184354195  0.35574490277433324  1.0000
  O   O8        1.0  0.6537708392233341  0.6914943409022883  0.6442570439977332  1.0000
  O   O9        1.0  0.23551400103433207  0.5296107246505458  0.4318572583328192  1.0000
  O   O10       1.0  0.764484298016491  0.47038933520533993  0.5681419699959279  1.0000
  O   O11       1.0  0.5537447217777327  0.24361054109839844  0.5322888556385479  1.0000
  O   O12       1.0  0.4462475493800894  0.7563895714299916  0.46771157721195783  1.0000
  O   O13       1.0  0.33159517589945864  0.42843070767752056  0.19572349820157336  1.0000
  O   O14       1.0  0.6684040974734344  0.5715683888760523  0.8042802041364397  1.0000
  O   O15       1.0  0.6359479069345043  0.366756796962008  0.17747195044406544  1.0000
  O   O16       1.0  0.3640468236108917  0.6332394557319674  0.8225263209869169  1.0000
  O   O17       1.0  0.6342765537728924  0.2908858101022957  0.3333327096960303  1.0000
  O   O18       1.0  0.36571753797751677  0.7091123663633851  0.6666654831000471  1.0000
  O   O19       1.0  0.34039496084349  0.1735897765088268  0.1078325721744449  1.0000
  O   O20       1.0  0.6595964091645783  0.8264113047264985  0.8921697798513436  1.0000
  O   O21       1.0  0.1975276924735994  0.8300735356719146  0.8641436095009427  1.0000
  O   O22       1.0  0.8024943465285405  0.16993303501418916  0.13585503896526774  1.0000
  O   O23       1.0  0.029802767251155153  0.5963916678134921  0.824882319901235  1.0000
  O   O24       1.0  0.9701897162017444  0.40361323840997443  0.17511763492029084  1.0000
  O   O25       1.0  0.9930901973278807  0.31764618307476405  0.35988291249029913  1.0000
  O   O26       1.0  0.006914328437488841  0.682362459136293  0.6401193496611769  1.0000
