data_image0
_chemical_formula_structural       Zn2H64C80N8O26
_chemical_formula_sum              "Zn2 H64 C80 N8 O26"
_cell_length_a       13.900870499678764
_cell_length_b       15.194276091386817
_cell_length_c       28.051916425876534
_cell_angle_alpha    89.94444811070755
_cell_angle_beta     90.6426956447196
_cell_angle_gamma    90.05704863734421

_space_group_name_H-M_alt    "P 1"
_space_group_IT_number       1

loop_
  _space_group_symop_operation_xyz
  'x, y, z'

loop_
  _atom_site_type_symbol
  _atom_site_label
  _atom_site_symmetry_multiplicity
  _atom_site_fract_x
  _atom_site_fract_y
  _atom_site_fract_z
  _atom_site_occupancy
  Zn  Zn1       1.0  0.3993290890003253  0.5001783857417835  0.4996216501132124  1.0000
  Zn  Zn2       1.0  0.6015061929244399  0.5007603522189258  0.4995060464896141  1.0000
  H   H1        1.0  0.37236873601855075  0.4220640665552225  0.3497838441922738  1.0000
  H   H2        1.0  0.6334300688754055  0.5764062084897646  0.6522342083208982  1.0000
  H   H3        1.0  0.575901600791326  0.2865629836716437  0.12169213354919607  1.0000
  H   H4        1.0  0.31353675840265544  0.6531831638435791  0.8755992469088125  1.0000
  H   H5        1.0  0.37516081125047424  0.42594684311343667  0.7418458399057639  1.0000
  H   H6        1.0  0.621859004887263  0.5741033934225898  0.25477106806989974  1.0000
  H   H7        1.0  0.6607029685516964  0.3450140254610332  0.8802418093703606  1.0000
  H   H8        1.0  0.3752963396341188  0.6892694097935531  0.12076077847944328  1.0000
  H   H9        1.0  0.6370517425542278  0.3239749042846753  0.9672629655013265  1.0000
  H   H10       1.0  0.355082071809477  0.6819966002638865  0.032681916144888086  1.0000
  H   H11       1.0  0.3520637557626501  0.0597524265318086  0.47437480802811643  1.0000
  H   H12       1.0  0.6429849726998997  0.9402782958479109  0.4718637169724856  1.0000
  H   H13       1.0  0.3547577138376071  0.9415246792549182  0.5268293575507313  1.0000
  H   H14       1.0  0.6465276874054453  0.0604608443683929  0.5241209109294329  1.0000
  H   H15       1.0  0.35197724968792704  0.2240058613742235  0.4749762001213113  1.0000
  H   H16       1.0  0.6417997021570159  0.7757807594493187  0.47270571966772207  1.0000
  H   H17       1.0  0.35397079163220735  0.7772544685692112  0.5263699014098364  1.0000
  H   H18       1.0  0.6459406963488378  0.2249285398219101  0.523203690554176  1.0000
  H   H19       1.0  0.7533149973726339  0.3995374374222109  0.44951316406063296  1.0000
  H   H20       1.0  0.2483665818823653  0.6307478694318506  0.4789448813865532  1.0000
  H   H21       1.0  0.7513365451820991  0.6016661733395453  0.5493544365089489  1.0000
  H   H22       1.0  0.24841075616841837  0.37059447564824666  0.5252086284041864  1.0000
  H   H23       1.0  0.020010835904898307  0.35507001111814424  0.38601036851709836  1.0000
  H   H24       1.0  0.016378810145560904  0.46891129995898945  0.400696362382959  1.0000
  H   H25       1.0  0.8457011759644362  0.36127222538315346  0.3614413095685123  1.0000
  H   H26       1.0  0.842789588295979  0.4751975846529817  0.3741719986508441  1.0000
  H   H27       1.0  0.9709328085220151  0.502277030250511  0.31215796735537527  1.0000
  H   H28       1.0  0.8661479352561728  0.45317547512333795  0.2873938854874325  1.0000
  H   H29       1.0  0.9705669332468576  0.3883216915980512  0.29822355633751835  1.0000
  H   H30       1.0  0.9746344958236223  0.7225951752768862  0.4322889309186734  1.0000
  H   H31       1.0  0.9755521574249645  0.607560648470681  0.4209403759430471  1.0000
  H   H32       1.0  0.14605273613702252  0.7324834065384634  0.40414937313212107  1.0000
  H   H33       1.0  0.14372589565213903  0.6193227208381488  0.38972106001651946  1.0000
  H   H34       1.0  0.005907172519940201  0.6476779491953836  0.3309512267635383  1.0000
  H   H35       1.0  0.11000492418981622  0.7097395142958831  0.31673810178450157  1.0000
  H   H36       1.0  0.011384303667398402  0.7612924855508467  0.34503607524523255  1.0000
  H   H37       1.0  0.0181710241315116  0.6420608215380382  0.619210476785021  1.0000
  H   H38       1.0  0.030799849058787708  0.5334523993036697  0.5966654302749814  1.0000
  H   H39       1.0  0.8519279793365941  0.607242649019689  0.6465213301416525  1.0000
  H   H40       1.0  0.8603962953848381  0.49983397252277223  0.6229195495673209  1.0000
  H   H41       1.0  0.9967380474161874  0.46509262012830277  0.6801433429230315  1.0000
  H   H42       1.0  0.892824742771481  0.5006779086508998  0.7111815534384078  1.0000
  H   H43       1.0  0.9909141403850443  0.573693524060566  0.7033169918966635  1.0000
  H   H44       1.0  0.978431470509399  0.38992597196661893  0.5870018266806623  1.0000
  H   H45       1.0  0.10032501037586172  0.3601277976098914  0.6010684725187686  1.0000
  H   H46       1.0  0.9444231362712827  0.23331310736737979  0.5639813009696439  1.0000
  H   H47       1.0  0.06325657036524031  0.20412144395603352  0.5805393003567328  1.0000
  H   H48       1.0  0.030921188188685302  0.2528289167613806  0.6655843189515308  1.0000
  H   H49       1.0  0.9497003291751653  0.16921774582099397  0.6469841773380196  1.0000
  H   H50       1.0  0.9110185407508811  0.2803331069496692  0.6488045866095857  1.0000
  H   H51       1.0  0.544996438984434  0.16857063799916003  0.9838340908482263  1.0000
  H   H52       1.0  0.455618565057094  0.2518235256189101  0.9892563145739002  1.0000
  H   H53       1.0  0.507616145951289  0.11150980772162461  0.0643347856861141  1.0000
  H   H54       1.0  0.4255210553554322  0.1982481061709223  0.07388575765898507  1.0000
  H   H55       1.0  0.31829811472849917  0.14252907533830242  0.007745701064024499  1.0000
  H   H56       1.0  0.3386005572492935  0.0589842094109514  0.05088023507611439  1.0000
  H   H57       1.0  0.40050198201878123  0.0560243549798258  0.9959617816660324  1.0000
  H   H58       1.0  0.16651533483371853  0.6543612640495197  0.008734431021792896  1.0000
  H   H59       1.0  0.22712148317111064  0.5515497794804319  0.004054799059780099  1.0000
  H   H60       1.0  0.10413374089660724  0.6408754039755706  0.9261737399933165  1.0000
  H   H61       1.0  0.17344809652688306  0.5452728192976792  0.9167209420887087  1.0000
  H   H62       1.0  0.07858627993825004  0.46213763341345526  0.9775124128529811  1.0000
  H   H63       1.0  0.0005555633455429984  0.506814774249584  0.9332222223574999  1.0000
  H   H64       1.0  0.009638462754296  0.5575363778461623  0.9900043494728904  1.0000
  C   C1        1.0  0.4985512074417643  0.33174559088981675  0.4989623360917221  1.0000
  C   C2        1.0  0.49785977689986544  0.6693206714522973  0.5001693852750647  1.0000
  C   C3        1.0  0.5007176659305445  0.5037293308049513  0.4063604292607436  1.0000
  C   C4        1.0  0.5068993626476868  0.49846157272678937  0.5929595403612993  1.0000
  C   C5        1.0  0.5220859674599795  0.4165137078184529  0.17894174457222076  1.0000
  C   C6        1.0  0.43052875655520517  0.562700831840374  0.8196183526191161  1.0000
  C   C7        1.0  0.4493794289239759  0.5679758160663937  0.178304565686922  1.0000
  C   C8        1.0  0.5639091387669737  0.4509710114779041  0.821879395802682  1.0000
  C   C9        1.0  0.5665172055589666  0.5412421982735082  0.27538648961852624  1.0000
  C   C10       1.0  0.43103853971168604  0.46014339389952136  0.7222100437416754  1.0000
  C   C11       1.0  0.5679921680653663  0.5457118546581015  0.3248706193719997  1.0000
  C   C12       1.0  0.4335272067231345  0.45616769966901677  0.6727774768406077  1.0000
  C   C13       1.0  0.4266405470854125  0.45643636466982673  0.3291617569767452  1.0000
  C   C14       1.0  0.5762236995029401  0.5441844747026252  0.6719008672500093  1.0000
  C   C15       1.0  0.4235641829230516  0.4525213013313233  0.2796365332303807  1.0000
  C   C16       1.0  0.5737967460445718  0.5496567935341617  0.7213435278842721  1.0000
  C   C17       1.0  0.4929241619400458  0.49578520340420346  0.2521536517588316  1.0000
  C   C18       1.0  0.5011513078484314  0.5074538527019429  0.7470583852330391  1.0000
  C   C19       1.0  0.47658860485226034  0.48853116347657993  0.10104001957002137  1.0000
  C   C20       1.0  0.4848317229313892  0.49727948871552746  0.8979695963543859  1.0000
  C   C21       1.0  0.5169279539623304  0.41653234879329665  0.12640076829160304  1.0000
  C   C22       1.0  0.4265863176906849  0.5575839935139087  0.872086932532845  1.0000
  C   C23       1.0  0.5487603925068002  0.3432913184802117  0.10193950409267667  1.0000
  C   C24       1.0  0.36068115439408654  0.6092747805551539  0.8958021956542055  1.0000
  C   C25       1.0  0.44178321939974563  0.5627719064848833  0.1259711942663131  1.0000
  C   C26       1.0  0.5520733161131944  0.4439262887469866  0.8738632155801437  1.0000
  C   C27       1.0  0.4984846036978681  0.5041883532031193  0.35266612700610966  1.0000
  C   C28       1.0  0.5053726956681573  0.4981496904541062  0.6466208851032461  1.0000
  C   C29       1.0  0.5289092170740518  0.4244070252383381  0.9736613082402099  1.0000
  C   C30       1.0  0.4235597833059758  0.5558318891612616  0.025200821009740092  1.0000
  C   C31       1.0  0.4148611552641839  0.5514450369706551  0.9732894439518913  1.0000
  C   C32       1.0  0.5155618934912669  0.4145837011852365  0.024992334839225794  1.0000
  C   C33       1.0  0.4760583873893652  0.49130494892014553  0.9486258970850583  1.0000
  C   C34       1.0  0.4718860233218082  0.48599492419926793  0.05009501898594949  1.0000
  C   C35       1.0  0.5947906941540638  0.37308278872276185  0.9482246178548052  1.0000
  C   C36       1.0  0.3897051805232793  0.6278722494538015  0.0514771879809715  1.0000
  C   C37       1.0  0.6079459383773841  0.3840966419793759  0.899362688228919  1.0000
  C   C38       1.0  0.4003221129268369  0.6321792965379202  0.10091538553794518  1.0000
  C   C39       1.0  0.5471229766159811  0.3411191993088281  0.052002770796299586  1.0000
  C   C40       1.0  0.35308262756784375  0.6054987352596798  0.9455226703098133  1.0000
  C   C41       1.0  0.416127272059228  0.09582520140510549  0.48584731788954366  1.0000
  C   C42       1.0  0.5801655881100773  0.9046340132878045  0.484610278804439  1.0000
  C   C43       1.0  0.417287795514831  0.9053371232849513  0.5142927756280783  1.0000
  C   C44       1.0  0.5823032739553684  0.09623880350084592  0.5126243054820064  1.0000
  C   C45       1.0  0.4158441938159073  0.187211612750616  0.4857896112123824  1.0000
  C   C46       1.0  0.5798109360046055  0.813192969083545  0.4847549810880948  1.0000
  C   C47       1.0  0.41667187557149543  0.8139249605735371  0.5144088848605789  1.0000
  C   C48       1.0  0.5822214599187561  0.18768074941255722  0.5125258001094436  1.0000
  C   C49       1.0  0.4989259758478256  0.23378344454954458  0.4991146275355049  1.0000
  C   C50       1.0  0.4980426659073559  0.767264946208286  0.4997332953276865  1.0000
  C   C51       1.0  0.49926441656758414  0.048945009739092896  0.4993013512295689  1.0000
  C   C52       1.0  0.49901797201152936  0.9520828837494618  0.49941619266348874  1.0000
  C   C53       1.0  0.8956096763822007  0.44232303008774926  0.47177167327142655  1.0000
  C   C54       1.0  0.10543389451314775  0.5767544703020988  0.48840393493831147  1.0000
  C   C55       1.0  0.8943684265807338  0.5587538887567618  0.5306556503307788  1.0000
  C   C56       1.0  0.10561998361963282  0.42579362472093146  0.5158773856133863  1.0000
  C   C57       1.0  0.7952869687592568  0.4443126853289244  0.4718221153871126  1.0000
  C   C58       1.0  0.20570792260189566  0.5734543384563935  0.48881301391963206  1.0000
  C   C59       1.0  0.794153293497587  0.5571748087834081  0.5277977725508052  1.0000
  C   C60       1.0  0.20585146979838245  0.4280281798379733  0.5150780588494327  1.0000
  C   C61       1.0  0.9472142068835085  0.5008027969662265  0.5016760692562838  1.0000
  C   C62       1.0  0.053277758198341  0.5011907183763425  0.5019910275790805  1.0000
  C   C63       1.0  0.9724442025870279  0.40857636801716524  0.39743080971366135  1.0000
  C   C64       1.0  0.8897539291104621  0.42151239898640097  0.3621833081342416  1.0000
  C   C65       1.0  0.9265249752610103  0.4423151595229129  0.3122369094826708  1.0000
  C   C66       1.0  0.021511756381848112  0.6647046167259347  0.4296853611215141  1.0000
  C   C67       1.0  0.09850173487979672  0.6786207465495552  0.3922826858166316  1.0000
  C   C68       1.0  0.0540087638530622  0.7004309990977974  0.3435731866747317  1.0000
  C   C69       1.0  0.9782871673048562  0.5856065679196618  0.6045945774903457  1.0000
  C   C70       1.0  0.9026988007056007  0.5534516633399778  0.6393676491798954  1.0000
  C   C71       1.0  0.9484600659200526  0.5213069841007184  0.6860505477962915  1.0000
  C   C72       1.0  0.036630934928290115  0.3427948393571753  0.5791338849850047  1.0000
  C   C73       1.0  0.0038942160868771004  0.24931251198651685  0.5887209356806904  1.0000
  C   C74       1.0  0.9721674588542587  0.23740995283482388  0.6403579038009182  1.0000
  C   C75       1.0  0.5066954825012645  0.2101011311801244  0.009423408301294999  1.0000
  C   C76       1.0  0.454911380126788  0.15456748840759355  0.04635244096920839  1.0000
  C   C77       1.0  0.3737493871096192  0.10005049996279071  0.023937303306169593  1.0000
  C   C78       1.0  0.20132419780944844  0.609178119448572  0.9837086890953157  1.0000
  C   C79       1.0  0.1326980030689811  0.5815422473830978  0.94380812505117  1.0000
  C   C80       1.0  0.050892654567555005  0.5239329279708044  0.9622088374679548  1.0000
  N   N1        1.0  0.4918016375559518  0.4945597100806581  0.20117183866751984  1.0000
  N   N2        1.0  0.49755777057869477  0.5062367944211772  0.797993503382372  1.0000
  N   N3        1.0  0.7468833293759406  0.5010494491491926  0.49914219734869647  1.0000
  N   N4        1.0  0.2536429910970384  0.500428524171383  0.501578882909534  1.0000
  N   N5        1.0  0.34440173099198296  0.4012060675136695  0.25766917459962  1.0000
  N   N6        1.0  0.6501537107480717  0.6011088128514289  0.7453607959959426  1.0000
  N   N7        1.0  0.35863556588883233  0.4009287583761178  0.6494835997055899  1.0000
  N   N8        1.0  0.6446740586053751  0.5994869982170741  0.3472660428717233  1.0000
  O   O1        1.0  0.41905858464004103  0.3698609859676836  0.4889523236852326  1.0000
  O   O2        1.0  0.5770742244545205  0.630740106491551  0.49150076666003867  1.0000
  O   O3        1.0  0.4184347681404574  0.6309356853067953  0.5093455261791815  1.0000
  O   O4        1.0  0.5776269536075845  0.37072877441400465  0.5087405162409694  1.0000
  O   O5        1.0  0.4213572245762478  0.5196811180347609  0.42618368090308667  1.0000
  O   O6        1.0  0.5860475983447845  0.5185874746778155  0.5738655567121284  1.0000
  O   O7        1.0  0.4278145240452461  0.4799346903124331  0.5724095289440853  1.0000
  O   O8        1.0  0.5809263990203918  0.48464355823214333  0.42556292776790616  1.0000
  O   O9        1.0  0.5506933177687119  0.3538215499861296  0.20301281219262526  1.0000
  O   O10       1.0  0.3789402382079957  0.6108789302548487  0.7951477046421401  1.0000
  O   O11       1.0  0.6254977286153718  0.4111720586681074  0.7992677363964942  1.0000
  O   O12       1.0  0.42184879303068373  0.6311058332147681  0.20191235659271456  1.0000
  O   O13       1.0  0.9415133750371044  0.38114480230827746  0.4444727708902433  1.0000
  O   O14       1.0  0.061276362643589315  0.6546560078064873  0.4774297060492998  1.0000
  O   O15       1.0  0.9367647114149026  0.6189694151077275  0.5603143065337121  1.0000
  O   O16       1.0  0.060774369126839624  0.34949339284516157  0.5290316560888186  1.0000
  O   O17       1.0  0.30973886616816076  0.34097175941786156  0.2817759876096204  1.0000
  O   O18       1.0  0.3166153649587145  0.4221966171980893  0.21703909867450474  1.0000
  O   O19       1.0  0.7279229871189373  0.6079743825813538  0.7244944399918722  1.0000
  O   O20       1.0  0.6316668716040966  0.6350794385260911  0.784346531381338  1.0000
  O   O21       1.0  0.38497482508789477  0.32908258522782313  0.6339605674243103  1.0000
  O   O22       1.0  0.2750670417756497  0.42882607896866193  0.6502165312170901  1.0000
  O   O23       1.0  0.6198318628282852  0.654639451928105  0.37689806807080817  1.0000
  O   O24       1.0  0.7280020806408062  0.5865995743285951  0.3334272026726026  1.0000
  O   O25       1.0  0.5806612751261255  0.2651903430938987  0.03133925232167909  1.0000
  O   O26       1.0  0.2833790416272067  0.6577874325452129  0.9653278588489866  1.0000
