data_image0
_chemical_formula_structural       Cu4H4C4N28
_chemical_formula_sum              "Cu4 H4 C4 N28"
_cell_length_a       6.811984186687082
_cell_length_b       7.485788716088259
_cell_length_c       9.616838871941509
_cell_angle_alpha    89.9998545587885
_cell_angle_beta     90.00155553024098
_cell_angle_gamma    89.99943297969895

_space_group_name_H-M_alt    "P 1"
_space_group_IT_number       1

loop_
  _space_group_symop_operation_xyz
  'x, y, z'

loop_
  _atom_site_type_symbol
  _atom_site_label
  _atom_site_symmetry_multiplicity
  _atom_site_fract_x
  _atom_site_fract_y
  _atom_site_fract_z
  _atom_site_occupancy
  Cu  Cu1       1.0  0.09241982681596993  0.7678802995105656  0.5195139409498921  1.0000
  Cu  Cu2       1.0  0.40757939660574755  0.2321232190203517  0.019514184813161306  1.0000
  Cu  Cu3       1.0  0.5924160021700333  0.7321102428136753  0.48048400079390075  1.0000
  Cu  Cu4       1.0  0.9075831102224685  0.2678842228500783  0.9804842994897526  1.0000
  H   H1        1.0  0.46956119627587617  0.9754447777830463  0.7315287477410664  1.0000
  H   H2        1.0  0.030436084839465107  0.0245740010983795  0.2315326860972036  1.0000
  H   H3        1.0  0.9695717450680377  0.5245502292986614  0.2684773013874207  1.0000
  H   H4        1.0  0.5304425217352603  0.4754343193993903  0.7684639299965144  1.0000
  C   C1        1.0  0.31918777358350786  0.0008680964556547  0.7625986929923344  1.0000
  C   C2        1.0  0.18080632483118822  0.9991412185460006  0.2626016627732782  1.0000
  C   C3        1.0  0.8191965778347737  0.49912681884296717  0.23740333417499226  1.0000
  C   C4        1.0  0.6808179357082907  0.5008631861530404  0.7374000151003275  1.0000
  N   N1        1.0  0.15873942776756422  0.9370401928476395  0.6991877999531227  1.0000
  N   N2        1.0  0.34125658217542565  0.0629613372636513  0.19919021677548443  1.0000
  N   N3        1.0  0.6587449769849911  0.5629550685609244  0.30081450419353933  1.0000
  N   N4        1.0  0.8412632210539713  0.43704138547970917  0.800812223921426  1.0000
  N   N5        1.0  0.33458528742090726  0.6098089525841175  0.5321993101817598  1.0000
  N   N6        1.0  0.1654026906399366  0.3901958557891092  0.032200978123356115  1.0000
  N   N7        1.0  0.8345910669658708  0.8901766382662826  0.4677948509552154  1.0000
  N   N8        1.0  0.6654134186807215  0.10982054518409258  0.9677971273569171  1.0000
  N   N9        1.0  0.9301875651915241  0.59994862875795  0.6289175523655859  1.0000
  N   N10       1.0  0.5698226839754384  0.4000537930578076  0.128912212504467  1.0000
  N   N11       1.0  0.4301783112168565  0.9000520925392621  0.3710846392050797  1.0000
  N   N12       1.0  0.06981564745508001  0.09994346981012818  0.8710830618693208  1.0000
  N   N13       1.0  0.23330909148749163  0.8965557275490708  0.3700751900521837  1.0000
  N   N14       1.0  0.2666804234647985  0.10345319713039199  0.8700752160697789  1.0000
  N   N15       1.0  0.7333242207896121  0.6034495187474532  0.629925392039688  1.0000
  N   N16       1.0  0.7666875361280887  0.39654889179655567  0.12992582711804354  1.0000
  N   N17       1.0  0.003528037485892801  0.0007974337922930998  0.7690749954737086  1.0000
  N   N18       1.0  0.49646925151187565  0.9991958273040422  0.26907452187121095  1.0000
  N   N19       1.0  0.5035336503453041  0.49920045309784183  0.23092319606563902  1.0000
  N   N20       1.0  0.9964747365786268  0.5008042699565037  0.730928911918582  1.0000
  N   N21       1.0  0.3218920967024559  0.4476644623236367  0.5206352422153131  1.0000
  N   N22       1.0  0.17808808688335637  0.5523323728952078  0.0206389436752303  1.0000
  N   N23       1.0  0.8219018386283498  0.05231306128043659  0.4793626762825554  1.0000
  N   N24       1.0  0.6781001655606717  0.9476934312297159  0.9793595637176224  1.0000
  N   N25       1.0  0.3118589383393627  0.2937622387146206  0.5119827516034476  1.0000
  N   N26       1.0  0.18812090511142543  0.7062439789815542  0.0119874113808294  1.0000
  N   N27       1.0  0.8118688905497893  0.206223394519256  0.48801913824463133  1.0000
  N   N28       1.0  0.688126113926245  0.793767036213893  0.9880133636552773  1.0000
