data_image0
_chemical_formula_structural       Cu4H36C34I4N12
_chemical_formula_sum              "Cu4 H36 C34 I4 N12"
_cell_length_a       8.388425561307658
_cell_length_b       10.038749214662577
_cell_length_c       13.5728133631831
_cell_angle_alpha    75.83891911768937
_cell_angle_beta     74.53230225411292
_cell_angle_gamma    66.42589007563997

_space_group_name_H-M_alt    "P 1"
_space_group_IT_number       1

loop_
  _space_group_symop_operation_xyz
  'x, y, z'

loop_
  _atom_site_type_symbol
  _atom_site_label
  _atom_site_symmetry_multiplicity
  _atom_site_fract_x
  _atom_site_fract_y
  _atom_site_fract_z
  _atom_site_occupancy
  Cu  Cu1       1.0  0.5947584521343359  0.0800710068153876  0.4637147582120206  1.0000
  Cu  Cu2       1.0  0.4052502612403828  0.9199187280769079  0.5362858740074046  1.0000
  Cu  Cu3       1.0  0.29313907405934  0.09220842994198357  0.6813536405311635  1.0000
  Cu  Cu4       1.0  0.706866008800262  0.9077868165604314  0.3186436565247063  1.0000
  H   H1        1.0  0.6188134494702524  0.3900546247069413  0.3238209197207594  1.0000
  H   H2        1.0  0.38120342275990293  0.6099362138924319  0.6761840741475352  1.0000
  H   H3        1.0  0.5136137853909234  0.6656200118136439  0.26462175627946033  1.0000
  H   H4        1.0  0.486398423453906  0.3343730171666977  0.7353828738713444  1.0000
  H   H5        1.0  0.23894505058058277  0.8303005119845891  0.3589425196111263  1.0000
  H   H6        1.0  0.7610660667035916  0.16970353793948328  0.6410595879432961  1.0000
  H   H7        1.0  0.0549521255335962  0.7364373075382245  0.5116351980475002  1.0000
  H   H8        1.0  0.9450620755793013  0.26355684199819507  0.48836669586300013  1.0000
  H   H9        1.0  0.017105699050226537  0.34932324661994574  0.7131089281638052  1.0000
  H   H10       1.0  0.982915015815138  0.6506588147890182  0.28689184375035376  1.0000
  H   H11       1.0  0.9105180687433787  0.5196760129176139  0.6381419372956286  1.0000
  H   H12       1.0  0.08949530441393708  0.4803115133780832  0.36186274633931237  1.0000
  H   H13       1.0  0.17446085588664323  0.4739536982395975  0.7730269781367551  1.0000
  H   H14       1.0  0.825542361103338  0.5260315782910608  0.22698124286685567  1.0000
  H   H15       1.0  0.06565192104942251  0.6432818525102063  0.6979740269883193  1.0000
  H   H16       1.0  0.9343709837931868  0.3566979910120054  0.3020312023599487  1.0000
  H   H17       1.0  0.8886743860747756  0.4708476842592331  0.881424534573611  1.0000
  H   H18       1.0  0.11132259771139265  0.5291519112189179  0.11857920743403129  1.0000
  H   H19       1.0  0.771275355327582  0.6272685148719644  0.7997779559958003  1.0000
  H   H20       1.0  0.22874268914106471  0.37271686111717617  0.20021897842097047  1.0000
  H   H21       1.0  0.009861458482539937  0.6195529333295366  0.9396239024601696  1.0000
  H   H22       1.0  0.9901364825398391  0.38044445054615744  0.060382287372064435  1.0000
  H   H23       1.0  0.9336254497084017  0.7692661517175094  0.842257509010629  1.0000
  H   H24       1.0  0.0663872482024459  0.23072582428694935  0.1577376507282011  1.0000
  H   H25       1.0  0.6191541760432105  0.7957219624708923  0.9251014802106851  1.0000
  H   H26       1.0  0.38084873017999854  0.20429535870715648  0.07488413379596885  1.0000
  H   H27       1.0  0.6931720388047253  0.6490569669205538  0.025797467172971295  1.0000
  H   H28       1.0  0.3068109613103618  0.3509492324886379  0.9741985458257643  1.0000
  H   H29       1.0  0.7296195617159213  0.035617057545778194  0.829973759519852  1.0000
  H   H30       1.0  0.2703369569659699  0.9644044358223951  0.1700312305832696  1.0000
  H   H31       1.0  0.7351280546155793  0.2829720651533235  0.8256701121615887  1.0000
  H   H32       1.0  0.26481400141686623  0.717057136125561  0.17432629379013062  1.0000
  H   H33       1.0  0.7350144632593825  0.36310456735429136  0.9839162329166056  1.0000
  H   H34       1.0  0.26494082700475025  0.6369169541569518  0.016082322339364883  1.0000
  H   H35       1.0  0.739487829434296  0.19439384512173769  0.15464215312777432  1.0000
  H   H36       1.0  0.26049180990614923  0.805620042070714  0.8453559868091671  1.0000
  C   C1        1.0  0.3973188364194373  0.41315816844484476  0.4524701406842411  1.0000
  C   C2        1.0  0.6026921404048977  0.5868348704629226  0.5475317423174387  1.0000
  C   C3        1.0  0.4979903869277394  0.46620728082054075  0.3631375911406208  1.0000
  C   C4        1.0  0.5020299930218074  0.5337869138000356  0.6368588624857592  1.0000
  C   C5        1.0  0.4372696442374462  0.6172088069495557  0.3312860110068385  1.0000
  C   C6        1.0  0.5627390010797413  0.38279522275498573  0.6687187151849938  1.0000
  C   C7        1.0  0.2797562031176427  0.7120288855000679  0.38518471705847174  1.0000
  C   C8        1.0  0.7202637583560828  0.2879718694261086  0.6148209504864538  1.0000
  C   C9        1.0  0.17600648612788217  0.6606487556064593  0.47208829299686517  1.0000
  C   C10       1.0  0.8240146454226933  0.33934652578010116  0.5279115277153608  1.0000
  C   C11       1.0  0.23909817222691027  0.5081780940036041  0.5053917431720549  1.0000
  C   C12       1.0  0.760917816239413  0.4918204781004576  0.4946075962197936  1.0000
  C   C13       1.0  0.029846245130471544  0.45443354669767183  0.6716046563159848  1.0000
  C   C14       1.0  0.97016218913668  0.5455539646608399  0.32840010181654106  1.0000
  C   C15       1.0  0.05236958992578179  0.539555106852596  0.7426255360907346  1.0000
  C   C16       1.0  0.9476390463738299  0.4604290879218381  0.2573819904785635  1.0000
  C   C17       1.0  0.8940847291058706  0.5742386799083048  0.8316012614825963  1.0000
  C   C18       1.0  0.10592206114987597  0.4257554344713839  0.16840332556290596  1.0000
  C   C19       1.0  0.9023959608746283  0.6768033465515868  0.8951320897587463  1.0000
  C   C20       1.0  0.0976042479206427  0.3231973631983394  0.10487092561811547  1.0000
  C   C21       1.0  0.7271887534275409  0.7369074108940764  0.9688942028724479  1.0000
  C   C22       1.0  0.2727982254593186  0.2631010004822512  0.031102237962528513  1.0000
  C   C23       1.0  0.7339319068052038  0.977164340240648  0.9958731308399887  1.0000
  C   C24       1.0  0.26605801870374524  0.022842965516794295  0.0041259717377002125  1.0000
  C   C25       1.0  0.7322862892880337  0.0695731086755558  0.8997542486163963  1.0000
  C   C26       1.0  0.26767476349856173  0.9304550291548279  0.10024586765518965  1.0000
  C   C27       1.0  0.7350962725153564  0.20729966191649393  0.8985768675244611  1.0000
  C   C28       1.0  0.26485523884782225  0.7927163201141596  0.1014262409508646  1.0000
  C   C29       1.0  0.736697618839152  0.25249940186194647  0.9892090740170898  1.0000
  C   C30       1.0  0.2632545890373452  0.7475320273232169  0.010788219803593768  1.0000
  C   C31       1.0  0.7385681365097696  0.16122141939325016  0.08420386692718297  1.0000
  C   C32       1.0  0.26142617255640493  0.838781468806303  0.9158004628206979  1.0000
  C   C33       1.0  0.7385412960505419  0.020793075349352794  0.08627732050136673  1.0000
  C   C34       1.0  0.2614553585841793  0.9792186824854309  0.9137162029016607  1.0000
  I   I1        1.0  0.8921530697629835  0.051438556825452494  0.3413697163942756  1.0000
  I   I2        1.0  0.10784487846485305  0.9485588634815154  0.6586290980419134  1.0000
  I   I3        1.0  0.6436854640970325  0.9132546540907495  0.6494999399638173  1.0000
  I   I4        1.0  0.3563135749709119  0.08673174162935739  0.350502134608348  1.0000
  N   N1        1.0  0.4263045366303684  0.2730114861564275  0.5051641263924792  1.0000
  N   N2        1.0  0.573714334352765  0.7269805057871749  0.4948314933790669  1.0000
  N   N3        1.0  0.29694118401771163  0.2760878865229657  0.5858431013584564  1.0000
  N   N4        1.0  0.7030702797110067  0.7239040884795427  0.41415152385006593  1.0000
  N   N5        1.0  0.1807863254531129  0.41708980205308405  0.5870900164582762  1.0000
  N   N6        1.0  0.8192238968880193  0.5829021355161926  0.41291144961598986  1.0000
  N   N7        1.0  0.7302668076276432  0.8378910289173048  0.028609274684434586  1.0000
  N   N8        1.0  0.26972710097635405  0.16211851066604047  0.9713858304918684  1.0000
  N   N9        1.0  0.7332896728116651  0.7969306984877136  0.13080638046912435  1.0000
  N   N10       1.0  0.266718436627322  0.20306899708619133  0.8691837338211597  1.0000
  N   N11       1.0  0.7379316661027603  0.9056146265852547  0.16648196299444606  1.0000
  N   N12       1.0  0.2620730119713884  0.09438724944218539  0.8335105347274661  1.0000
