data_image0
_chemical_formula_structural       Al4H36C60N8O20
_chemical_formula_sum              "Al4 H36 C60 N8 O20"
_cell_length_a       6.669799486020388
_cell_length_b       22.822163235865254
_cell_length_c       25.41077398917883
_cell_angle_alpha    103.60327868976141
_cell_angle_beta     89.99982447881618
_cell_angle_gamma    89.99982667742275

_space_group_name_H-M_alt    "P 1"
_space_group_IT_number       1

loop_
  _space_group_symop_operation_xyz
  'x, y, z'

loop_
  _atom_site_type_symbol
  _atom_site_label
  _atom_site_symmetry_multiplicity
  _atom_site_fract_x
  _atom_site_fract_y
  _atom_site_fract_z
  _atom_site_occupancy
  Al  Al1       1.0  0.0322653541546245  0.49926440559728763  0.49942311326521593  1.0000
  Al  Al2       1.0  0.4657006486092214  0.0013386050096784003  0.00021137335039609996  1.0000
  Al  Al3       1.0  0.5322638791361458  0.5007359996874287  0.5005756677234388  1.0000
  Al  Al4       1.0  0.9657017211375489  0.9986620472232846  0.9997881715158955  1.0000
  H   H1        1.0  0.9431569180161505  0.7316434037541271  0.7041546812554103  1.0000
  H   H2        1.0  0.5510019510304858  0.8051969723563773  0.7679382837625042  1.0000
  H   H3        1.0  0.4431601383316775  0.2683583549335324  0.2958473154789019  1.0000
  H   H4        1.0  0.05100666983281601  0.19480252490292574  0.23206209997401567  1.0000
  H   H5        1.0  0.9583516886710728  0.6461751480418059  0.6233147032666437  1.0000
  H   H6        1.0  0.5347741668304309  0.8869927646295611  0.8517113031272318  1.0000
  H   H7        1.0  0.4583665814534044  0.35382791652351386  0.3766856546104407  1.0000
  H   H8        1.0  0.03477770620618511  0.11300730673120542  0.1482878810242738  1.0000
  H   H9        1.0  0.5862040171432525  0.6241101702957722  0.6507430931887584  1.0000
  H   H10       1.0  0.9181171119507854  0.843741890629204  0.8736922124867874  1.0000
  H   H11       1.0  0.08621601580465213  0.37588787459455386  0.34925523130487324  1.0000
  H   H12       1.0  0.4181174793079664  0.1562590317688475  0.1263081915549336  1.0000
  H   H13       1.0  0.5441101444962939  0.8984881319338032  0.108559842084901  1.0000
  H   H14       1.0  0.9567535460028154  0.6015249905073786  0.3911405465157855  1.0000
  H   H15       1.0  0.0441094560734925  0.10151856442473664  0.8914462058630831  1.0000
  H   H16       1.0  0.4567397396670856  0.3984711959384911  0.6088569910967223  1.0000
  H   H17       1.0  0.5563803209147694  0.8318929639182573  0.17451825105256097  1.0000
  H   H18       1.0  0.9453724515409476  0.6681225453259145  0.3252210224483534  1.0000
  H   H19       1.0  0.05637524964318889  0.1681132800109921  0.825487785039499  1.0000
  H   H20       1.0  0.44536452783017216  0.3318743064615575  0.6747773358786517  1.0000
  H   H21       1.0  0.9126954356303401  0.822505644322149  0.1731526509694348  1.0000
  H   H22       1.0  0.5890273477843451  0.6774996606451253  0.3271217876969316  1.0000
  H   H23       1.0  0.4126887545449804  0.17748863844870041  0.8268425056615669  1.0000
  H   H24       1.0  0.08902253949558771  0.3225066717316167  0.6728813785116827  1.0000
  H   H25       1.0  0.5700676892098073  0.706419806174928  0.7342088217644329  1.0000
  H   H26       1.0  0.9371380839190097  0.7584944837790747  0.7927776551204175  1.0000
  H   H27       1.0  0.0700725127718798  0.2935778198389585  0.26578952036133785  1.0000
  H   H28       1.0  0.4371396299988035  0.24150629915791205  0.20722394472839065  1.0000
  H   H29       1.0  0.9015917095726849  0.8892762224885331  0.10729759657959899  1.0000
  H   H30       1.0  0.5993319492535393  0.6107415091545294  0.3929857298999693  1.0000
  H   H31       1.0  0.40158791502236824  0.11071893926138195  0.8926991902617871  1.0000
  H   H32       1.0  0.09931675818094729  0.3892629523179921  0.6070170242406334  1.0000
  H   H33       1.0  0.7850491247852532  0.5795894807869005  0.5120224150587802  1.0000
  H   H34       1.0  0.7099538828743379  0.9203692169774627  0.9853141611594225  1.0000
  H   H35       1.0  0.2850545275003996  0.4204113848127804  0.48797731732572897  1.0000
  H   H36       1.0  0.2099473529581886  0.0796327201855576  0.0146860523159447  1.0000
  C   C1        1.0  0.7819340042555537  0.43573735096140354  0.5637776518817005  1.0000
  C   C2        1.0  0.7173080263863697  0.06418822788517534  0.9361500265571436  1.0000
  C   C3        1.0  0.28193857615343637  0.5642635183180716  0.4362220837368085  1.0000
  C   C4        1.0  0.21731179286742733  0.9358115209012753  0.0638485632287455  1.0000
  C   C5        1.0  0.7804356566902301  0.4190384705305874  0.4185430699346426  1.0000
  C   C6        1.0  0.7186444009996792  0.0807742481550306  0.08153323632489422  1.0000
  C   C7        1.0  0.2804188419969336  0.5809608727495501  0.5814558601036381  1.0000
  C   C8        1.0  0.2186381669476631  0.9192265788882781  0.9184677805472106  1.0000
  C   C9        1.0  0.08370847802285651  0.7073351385500077  0.693530571435538  1.0000
  C   C10       1.0  0.4132270172520336  0.8123289296447213  0.7917146929137929  1.0000
  C   C11       1.0  0.5837174017713664  0.29266508897407567  0.3064693717004729  1.0000
  C   C12       1.0  0.9132306684087866  0.18767090868490752  0.20828490817707748  1.0000
  C   C13       1.0  0.0917886909681584  0.6600866315310938  0.6477669762181861  1.0000
  C   C14       1.0  0.40437166863296886  0.8586886814987267  0.8382173638777388  1.0000
  C   C15       1.0  0.5917965951481392  0.33991369343162603  0.35223336342203027  1.0000
  C   C16       1.0  0.9043763392204269  0.1413097464894193  0.16178184414913938  1.0000
  C   C17       1.0  0.273292144368007  0.6302094534669751  0.6316797077751204  1.0000
  C   C18       1.0  0.22577535912174082  0.8703397640639707  0.8680260704689005  1.0000
  C   C19       1.0  0.7733025553200292  0.36979044315545917  0.3683196336767551  1.0000
  C   C20       1.0  0.7257700064126738  0.129660616616917  0.1319749398791856  1.0000
  C   C21       1.0  0.44582629182170314  0.647884491249556  0.6629150828420196  1.0000
  C   C22       1.0  0.056554663853276614  0.8346958037607878  0.8504241145936219  1.0000
  C   C23       1.0  0.9458387514148328  0.3521150946082587  0.33708367462323  1.0000
  C   C24       1.0  0.5565547404852467  0.16530521472456883  0.14957707052811034  1.0000
  C   C25       1.0  0.4362437844274467  0.6944545003116361  0.7093213223347234  1.0000
  C   C26       1.0  0.06740857356764711  0.7874900887900864  0.8045919692201052  1.0000
  C   C27       1.0  0.9362557651104028  0.3055452038460943  0.29067784996876606  1.0000
  C   C28       1.0  0.567409129545041  0.2125112478331346  0.19540879886510953  1.0000
  C   C29       1.0  0.25551995930538146  0.7254265597639247  0.7253833029416156  1.0000
  C   C30       1.0  0.24554760356361532  0.7753969126028792  0.774216191491348  1.0000
  C   C31       1.0  0.7555279446247455  0.27457411673525206  0.2746172707542982  1.0000
  C   C32       1.0  0.7455566723353613  0.2246030067768389  0.225784799203737  1.0000
  C   C33       1.0  0.4072139750945921  0.8814180089038645  0.12299607115748758  1.0000
  C   C34       1.0  0.09387003398994412  0.6185898315842167  0.3768401534371719  1.0000
  C   C35       1.0  0.9072118645502132  0.118586730808353  0.8770087927343936  1.0000
  C   C36       1.0  0.5938578054486572  0.38141038395044546  0.6231597791618879  1.0000
  C   C37       1.0  0.41406422345508537  0.8447216215363015  0.15948301727531336  1.0000
  C   C38       1.0  0.0874560804459961  0.6552894650352102  0.34037710181905123  1.0000
  C   C39       1.0  0.9140606787042601  0.1552810373830837  0.8405206283473631  1.0000
  C   C40       1.0  0.5874452864434545  0.34470976520076146  0.6596240547460752  1.0000
  C   C41       1.0  0.23533921041280342  0.8232817969154385  0.1776080145344139  1.0000
  C   C42       1.0  0.2664674579293944  0.6767458658562051  0.3224043909153949  1.0000
  C   C43       1.0  0.7353356657244348  0.17671901040787932  0.8223929850067009  1.0000
  C   C44       1.0  0.7664656616251407  0.32325665645804247  0.6775965727988265  1.0000
  C   C45       1.0  0.04984790772522269  0.8394676523340577  0.15876820216851678  1.0000
  C   C46       1.0  0.4516888867536935  0.6605231984035386  0.3413901153345621  1.0000
  C   C47       1.0  0.549842802407575  0.1605296766225237  0.8412289462776242  1.0000
  C   C48       1.0  0.9516766581102872  0.339480301973893  0.6586118690372444  1.0000
  C   C49       1.0  0.043946712492406406  0.8763088268837579  0.12230851229461588  1.0000
  C   C50       1.0  0.4571417924220214  0.6236963159149483  0.37787570353806643  1.0000
  C   C51       1.0  0.5439430431790628  0.12368850904193349  0.8776886422763609  1.0000
  C   C52       1.0  0.9571296275171906  0.37630805390089256  0.6221262734163914  1.0000
  C   C53       1.0  0.2223568766973472  0.8973524882577594  0.1039793264254101  1.0000
  C   C54       1.0  0.278458757051439  0.602696209899257  0.3960662560120625  1.0000
  C   C55       1.0  0.7223561994877556  0.10264855837358772  0.8960208759293877  1.0000
  C   C56       1.0  0.7784420995264869  0.3973044395212355  0.6039342938856436  1.0000
  C   C57       1.0  0.258692144163355  0.7158043155857643  0.28394024699095866  1.0000
  C   C58       1.0  0.24348484966045453  0.7842756593936716  0.21611094347531432  1.0000
  C   C59       1.0  0.7586857851377857  0.28419690209629783  0.7160607274321932  1.0000
  C   C60       1.0  0.7434858686918986  0.21572569324003152  0.7838888311776202  1.0000
  N   N1        1.0  0.06798032666700492  0.7643342259138706  0.2323929429283709  1.0000
  N   N2        1.0  0.4341786751671678  0.7357790730599305  0.26770476785697633  1.0000
  N   N3        1.0  0.5679753417206186  0.23566384051066797  0.7676054004906874  1.0000
  N   N4        1.0  0.9341738231304291  0.2642236790973627  0.7322976413352008  1.0000
  N   N5        1.0  0.07579612365566392  0.7295385888012051  0.2668764735938822  1.0000
  N   N6        1.0  0.4263718739222001  0.7705886572998112  0.2332143224103973  1.0000
  N   N7        1.0  0.5757896997642789  0.27045946839287177  0.7331218617129379  1.0000
  N   N8        1.0  0.9263684608935847  0.22941355915621398  0.7667876908720858  1.0000
  O   O1        1.0  0.6123509216922329  0.438322325231937  0.4395237890021519  1.0000
  O   O2        1.0  0.8867966046771942  0.06008347904025871  0.061677077371953694  1.0000
  O   O3        1.0  0.112352542059071  0.5616758927325949  0.5604769385810542  1.0000
  O   O4        1.0  0.38679442423225663  0.939916166533877  0.9383233618181066  1.0000
  O   O5        1.0  0.9525313676807629  0.44912620746377035  0.5472462913606648  1.0000
  O   O6        1.0  0.5457556135534389  0.051009033166643306  0.9522029422093681  1.0000
  O   O7        1.0  0.45255087050573917  0.5508734774521005  0.45275286403202847  1.0000
  O   O8        1.0  0.04576543565843851  0.948991239183414  0.0477970403221306  1.0000
  O   O9        1.0  0.9524016412020943  0.43756331998837794  0.43728692552275567  1.0000
  O   O10       1.0  0.5469123061441155  0.0638697749343322  0.0614926274143457  1.0000
  O   O11       1.0  0.4524062259257989  0.5624371439996593  0.562710202921103  1.0000
  O   O12       1.0  0.046914659464853514  0.9361304960539557  0.9385073539203573  1.0000
  O   O13       1.0  0.11237574653117123  0.5485178980064092  0.45139256010026674  1.0000
  O   O14       1.0  0.38597804571119104  0.9517224509224177  0.04821917601462639  1.0000
  O   O15       1.0  0.6123592024179842  0.4514830645708018  0.5486069466434814  1.0000
  O   O16       1.0  0.8859682561042137  0.0482764367386039  0.9517800502342267  1.0000
  O   O17       1.0  0.7829293857336382  0.5360283481517529  0.504341495013513  1.0000
  O   O18       1.0  0.7141996072457458  0.9639378062879445  0.9956152890511233  1.0000
  O   O19       1.0  0.28292676255433247  0.4639724129746626  0.49565783468437974  1.0000
  O   O20       1.0  0.21420113448397166  0.036064135868514306  0.0043832995698593995  1.0000
