data_image0
_chemical_formula_structural       Cd2H40C68S4N20
_chemical_formula_sum              "Cd2 H40 C68 S4 N20"
_cell_length_a       8.548409606000297
_cell_length_b       13.620217656367155
_cell_length_c       13.620214227963624
_cell_angle_alpha    107.95604795386627
_cell_angle_beta     90.00001358230591
_cell_angle_gamma    89.99997010640652

_space_group_name_H-M_alt    "P 1"
_space_group_IT_number       1

loop_
  _space_group_symop_operation_xyz
  'x, y, z'

loop_
  _atom_site_type_symbol
  _atom_site_label
  _atom_site_symmetry_multiplicity
  _atom_site_fract_x
  _atom_site_fract_y
  _atom_site_fract_z
  _atom_site_occupancy
  Cd  Cd1       1.0  0.999999932560826  0.4999994343772938  0.5000002053153236  1.0000
  Cd  Cd2       1.0  0.49999845725700004  0.9999997343321851  0.9999999872635497  1.0000
  H   H1        1.0  0.39384258336274774  0.6652224260685953  0.05473739133476829  1.0000
  H   H2        1.0  0.10615872846712901  0.5547365527401596  0.1652212408115403  1.0000
  H   H3        1.0  0.8938420247509102  0.8347786450898128  0.44526318024953326  1.0000
  H   H4        1.0  0.6061580361888875  0.9452630628021765  0.3347781078314893  1.0000
  H   H5        1.0  0.6061584054759523  0.33477891497815904  0.9452644371201584  1.0000
  H   H6        1.0  0.893842260371571  0.4452640135765193  0.8347788817979305  1.0000
  H   H7        1.0  0.10615779427981661  0.16522114943421687  0.5547367058229752  1.0000
  H   H8        1.0  0.3938417828418395  0.05473673172185299  0.6652217782410259  1.0000
  H   H9        1.0  0.21967466263765803  0.6987663926009663  0.9170896810585061  1.0000
  H   H10       1.0  0.2803256919455066  0.417089803181085  0.19876588374096113  1.0000
  H   H11       1.0  0.7196739950195339  0.8012337729663558  0.5829106188218133  1.0000
  H   H12       1.0  0.780325288458627  0.08291039356111443  0.3012345597149347  1.0000
  H   H13       1.0  0.7803251563930759  0.30123340192307063  0.08291020501400938  1.0000
  H   H14       1.0  0.71967412708495  0.5829107631357714  0.8012342388684741  1.0000
  H   H15       1.0  0.28032582401133505  0.1987660230263089  0.4170900019049738  1.0000
  H   H16       1.0  0.2196745305722416  0.91708940243155  0.6987660610118451  1.0000
  H   H17       1.0  0.1023487407946462  0.6283962183943003  0.7390389449278698  1.0000
  H   H18       1.0  0.3976516701950531  0.23903876050538742  0.12839576126785346  1.0000
  H   H19       1.0  0.602348081906925  0.8716039836485334  0.7609613487480755  1.0000
  H   H20       1.0  0.8976511451648365  0.2609606264998519  0.37160371720123203  1.0000
  H   H21       1.0  0.8976510782360876  0.37160357612973627  0.2609609411446456  1.0000
  H   H22       1.0  0.6023493186436396  0.7609618058112845  0.8716043613416102  1.0000
  H   H23       1.0  0.39765056731556575  0.12839581087568058  0.2390385373244043  1.0000
  H   H24       1.0  0.1023486738660253  0.739038394762737  0.6283951976800919  1.0000
  H   H25       1.0  0.20140117286045012  0.33079177032787044  0.5554399173391075  1.0000
  H   H26       1.0  0.2985995363148461  0.05544105274351809  0.8307921562543111  1.0000
  H   H27       1.0  0.701400751731768  0.1692082615371504  0.9445597613320725  1.0000
  H   H28       1.0  0.7985987820617027  0.44455972069632577  0.6692077640937837  1.0000
  H   H29       1.0  0.7985998159785197  0.6692080241959815  0.4445599687334364  1.0000
  H   H30       1.0  0.7014014525238537  0.9445595135731538  0.16920796635515956  1.0000
  H   H31       1.0  0.29860023710693184  0.8307923047795213  0.055440361277390986  1.0000
  H   H32       1.0  0.20140103696888906  0.555440072359083  0.33079138732446  1.0000
  H   H33       1.0  0.3671840981155087  0.2942662446383579  0.6922054494492469  1.0000
  H   H34       1.0  0.13281658829954074  0.1922056207124214  0.794265729376839  1.0000
  H   H35       1.0  0.8671835949220609  0.20573450894778492  0.8077952091799855  1.0000
  H   H36       1.0  0.6328159616315147  0.3077952042677481  0.7057341822044022  1.0000
  H   H37       1.0  0.6328168907233264  0.7057343231469417  0.3077954078144883  1.0000
  H   H38       1.0  0.867184400539287  0.8077949470728852  0.20573512788690337  1.0000
  H   H39       1.0  0.13281622410880803  0.7942652870448728  0.1922054115468015  1.0000
  H   H40       1.0  0.36718385739921905  0.6922045902562814  0.2942657038681132  1.0000
  C   C1        1.0  0.2962491742314625  0.36745474347376467  0.36745439378800876  1.0000
  C   C2        1.0  0.20374998351129395  0.8674551209362986  0.8674555414079987  1.0000
  C   C3        1.0  0.7962474959030958  0.13254467505672807  0.13254507931872436  1.0000
  C   C4        1.0  0.7037506447992713  0.632545051050272  0.6325454922845067  1.0000
  C   C5        1.0  0.4482927133992619  0.5098829318631033  0.9601645720717255  1.0000
  C   C6        1.0  0.0517065044835903  0.46016378887641446  0.009883971888306944  1.0000
  C   C7        1.0  0.9482930421687216  0.9901171626288842  0.5398357398982936  1.0000
  C   C8        1.0  0.5517062082019208  0.03983570861710461  0.4901169575952195  1.0000
  C   C9        1.0  0.5517071056315999  0.4901168641295612  0.03983604865506148  1.0000
  C   C10       1.0  0.9482921447390426  0.5398360071164346  0.9901166488384515  1.0000
  C   C11       1.0  0.0517067768617281  0.0098834036879722  0.4601643827111416  1.0000
  C   C12       1.0  0.4482924410205698  0.9601640859071098  0.5098829284772676  1.0000
  C   C13       1.0  0.37327170437158946  0.6074468190232167  0.9804204354427523  1.0000
  C   C14       1.0  0.1267286565675647  0.4804193047893079  0.10744812257101435  1.0000
  C   C15       1.0  0.873270936849437  0.8925525269994453  0.5195796360230884  1.0000
  C   C16       1.0  0.6267295100819297  0.0195793975875347  0.3925525743429076  1.0000
  C   C17       1.0  0.6267281146596915  0.39255220664525586  0.0195806834013865  1.0000
  C   C18       1.0  0.8732711624628848  0.5195812615275414  0.8925520000384207  1.0000
  C   C19       1.0  0.1267288821812969  0.10744726752459141  0.48042025004942684  1.0000
  C   C20       1.0  0.3732714787568979  0.9804203954676894  0.6074465770753645  1.0000
  C   C21       1.0  0.2794390242651304  0.6253475533369367  0.9059165197295795  1.0000
  C   C22       1.0  0.22056368914276453  0.4059147100218396  0.12534708150923982  1.0000
  C   C23       1.0  0.7794394695949123  0.8746525936500403  0.5940837833112054  1.0000
  C   C24       1.0  0.7205609644837879  0.0940839617145102  0.3746528857124502  1.0000
  C   C25       1.0  0.7205619645741167  0.3746522441241781  0.09408483565151465  1.0000
  C   C26       1.0  0.7794372996962055  0.5940850845020123  0.8746528045633037  1.0000
  C   C27       1.0  0.22056151924405756  0.12534720087381146  0.4059161027613455  1.0000
  C   C28       1.0  0.27943885454693884  0.9059158328095195  0.6253470003600581  1.0000
  C   C29       1.0  0.16538388617873076  0.5562059852645262  0.7301277599492975  1.0000
  C   C30       1.0  0.33461654322577067  0.23012763356612004  0.05620531350903238  1.0000
  C   C31       1.0  0.6653843404061135  0.9437949689739326  0.7698727735969937  1.0000
  C   C32       1.0  0.8346160380585275  0.2698725448289565  0.4437943981635754  1.0000
  C   C33       1.0  0.834615932851726  0.4437945810523302  0.2698723626601377  1.0000
  C   C34       1.0  0.6653844456129222  0.7698729327505587  0.9437948091004313  1.0000
  C   C35       1.0  0.33461664843257927  0.05620559734274621  0.23012734901247706  1.0000
  C   C36       1.0  0.16538378097206421  0.7301272482264523  0.5562047532546613  1.0000
  C   C37       1.0  0.22099194137000924  0.3888295330509308  0.629804210358891  1.0000
  C   C38       1.0  0.27900873774235185  0.1298043356520537  0.8888290126516833  1.0000
  C   C39       1.0  0.7209915404284645  0.11117049272350238  0.8701954693482816  1.0000
  C   C40       1.0  0.7790080234282116  0.37019567208555776  0.6111706701234991  1.0000
  C   C41       1.0  0.7790078776604403  0.6111710332659257  0.37019591225053716  1.0000
  C   C42       1.0  0.720992251096341  0.8701962306646182  0.11117110995778025  1.0000
  C   C43       1.0  0.2790082786025394  0.8888285300077142  0.12980418018731388  1.0000
  C   C44       1.0  0.22099179560237306  0.629804120969851  0.3888284812947446  1.0000
  C   C45       1.0  0.3128897593022799  0.369456806492785  0.7045368668973778  1.0000
  C   C46       1.0  0.18711090723999751  0.20453738090883178  0.8694567715595836  1.0000
  C   C47       1.0  0.8128904838139166  0.13054319071132167  0.7954628176695235  1.0000
  C   C48       1.0  0.6871102624208093  0.2954634271917556  0.6305431428928256  1.0000
  C   C49       1.0  0.6871100597284467  0.6305429880312515  0.2954630191751375  1.0000
  C   C50       1.0  0.8128900815986952  0.795463185407847  0.13054335104988  1.0000
  C   C51       1.0  0.1871105050249184  0.8694566023439093  0.2045363337487486  1.0000
  C   C52       1.0  0.3128895566095053  0.704537137656473  0.36945624506233776  1.0000
  C   C53       1.0  0.337280245620363  0.4493782844245899  0.7984918353268495  1.0000
  C   C54       1.0  0.16271921163315992  0.2984927467617382  0.9493782567889892  1.0000
  C   C55       1.0  0.8372798313148594  0.050622476989737195  0.7015080870667486  1.0000
  C   C56       1.0  0.6627197845918573  0.20150806892180384  0.5506216563735788  1.0000
  C   C57       1.0  0.6627195734100939  0.5506222818922665  0.20150828728258566  1.0000
  C   C58       1.0  0.8372794375890465  0.7015078195553031  0.05062186582041755  1.0000
  C   C59       1.0  0.16271998771559032  0.9493780893271192  0.29849203554268644  1.0000
  C   C60       1.0  0.33728003443873433  0.7984917241336049  0.4493774950446577  1.0000
  C   C61       1.0  0.259472752637052  0.5454539378594134  0.8116235464664496  1.0000
  C   C62       1.0  0.24052766070424525  0.3116238763959842  0.04545347106316196  1.0000
  C   C63       1.0  0.7594719973181085  0.9545462153350712  0.6883767555184546  1.0000
  C   C64       1.0  0.7405272274017848  0.18837633125041722  0.4545462356338844  1.0000
  C   C65       1.0  0.7405270663935397  0.45454662992607103  0.18837731079725722  1.0000
  C   C66       1.0  0.7594721583262116  0.6883766899208722  0.9545466515462733  1.0000
  C   C67       1.0  0.24052782171261813  0.04545357918896537  0.31162313055406077  1.0000
  C   C68       1.0  0.25947259162894915  0.8116234632736194  0.5454536504386309  1.0000
  S   S1        1.0  0.47842575719241154  0.3407823725121091  0.3407823932198467  1.0000
  S   S2        1.0  0.021573412663038007  0.8407820333501662  0.8407825600148724  1.0000
  S   S3        1.0  0.978426406367689  0.1592177611738705  0.15921732605764294  1.0000
  S   S4        1.0  0.521574061838038  0.6592181938047473  0.6592177293895813  1.0000
  N   N1        1.0  0.1603431885659248  0.38465023798829623  0.38465008947427737  1.0000
  N   N2        1.0  0.33965596136797427  0.8846505717303262  0.8846505096269152  1.0000
  N   N3        1.0  0.6603461972793739  0.1153492242619691  0.11535011109993577  1.0000
  N   N4        1.0  0.8396554606565588  0.6153495565359252  0.6153497965982095  1.0000
  N   N5        1.0  0.43171654596390857  0.4331353324441665  0.872332033751462  1.0000
  N   N6        1.0  0.068282898211713  0.3723326890743693  0.9331353361348247  1.0000
  N   N7        1.0  0.9317160902447129  0.0668646278179992  0.6276676570991524  1.0000
  N   N8        1.0  0.5682835387406088  0.1276673856443225  0.5668650701511593  1.0000
  N   N9        1.0  0.5682832730665482  0.56686523387269  0.12766808885797326  1.0000
  N   N10       1.0  0.9317169208188787  0.6276678787111148  0.06686552112888207  1.0000
  N   N11       1.0  0.06828255897805491  0.9331343949133951  0.3723319924364147  1.0000
  N   N12       1.0  0.4317162802904022  0.8723316370868872  0.4331345793844362  1.0000
  N   N13       1.0  0.1483725493980543  0.48098280162512463  0.6420531790807045  1.0000
  N   N14       1.0  0.3516281060087536  0.14205353339536939  0.9809827688039402  1.0000
  N   N15       1.0  0.6483733903047479  0.0190180185186222  0.8579467333231958  1.0000
  N   N16       1.0  0.8516273670654472  0.3579464517655708  0.51901691781147  1.0000
  N   N17       1.0  0.8516272696323953  0.5190177646917321  0.3579469435287308  1.0000
  N   N18       1.0  0.6483728828300812  0.85794703438993  0.01901808845979495  1.0000
  N   N19       1.0  0.3516275985339448  0.9809825477980567  0.1420533892862679  1.0000
  N   N20       1.0  0.14837245196514462  0.6420533412898376  0.4809822336067737  1.0000
