data_image0
_chemical_formula_structural       Gd4H32C36O32
_chemical_formula_sum              "Gd4 H32 C36 O32"
_cell_length_a       7.765690202665039
_cell_length_b       8.221053132484112
_cell_length_c       18.992061341000895
_cell_angle_alpha    89.99996747450605
_cell_angle_beta     90.00002226416544
_cell_angle_gamma    105.992645654346

_space_group_name_H-M_alt    "P 1"
_space_group_IT_number       1

loop_
  _space_group_symop_operation_xyz
  'x, y, z'

loop_
  _atom_site_type_symbol
  _atom_site_label
  _atom_site_symmetry_multiplicity
  _atom_site_fract_x
  _atom_site_fract_y
  _atom_site_fract_z
  _atom_site_occupancy
  Gd  Gd1       1.0  0.7580623564013892  0.25170967549711076  0.517822177640909  1.0000
  Gd  Gd2       1.0  0.7419405615484114  0.7482893361621877  0.017823730054495  1.0000
  Gd  Gd3       1.0  0.24193990206900656  0.7482897365124688  0.48217612880963406  1.0000
  Gd  Gd4       1.0  0.2580613262984458  0.25170881048408944  0.9821777356109039  1.0000
  H   H1        1.0  0.6082619664272573  0.43384433077508794  0.3698297821179112  1.0000
  H   H2        1.0  0.8917304973148675  0.5661530234661072  0.869827647019008  1.0000
  H   H3        1.0  0.3917305399172123  0.5661525612199299  0.6301727366184693  1.0000
  H   H4        1.0  0.10826237965281393  0.4338451338928095  0.13017065943093806  1.0000
  H   H5        1.0  0.6587153782580658  0.5826705918272168  0.2531315347807848  1.0000
  H   H6        1.0  0.841287312497926  0.41732688420693625  0.7531299548424286  1.0000
  H   H7        1.0  0.34128485169598133  0.4173262909877026  0.7468699308846427  1.0000
  H   H8        1.0  0.15871420472347347  0.5826699970796766  0.24686835160837015  1.0000
  H   H9        1.0  0.3151438037970352  0.14366092713141398  0.15364736295256884  1.0000
  H   H10       1.0  0.18485741954680182  0.8563430601745451  0.6536482824597272  1.0000
  H   H11       1.0  0.684857362635029  0.8563435493837092  0.8463519965688422  1.0000
  H   H12       1.0  0.8151424596174267  0.1436614178697866  0.3463526566689411  1.0000
  H   H13       1.0  0.2593341926438981  0.9960549913890233  0.2711084368071824  1.0000
  H   H14       1.0  0.24065846204410957  0.0039501370787463005  0.771109575370673  1.0000
  H   H15       1.0  0.7406579629098007  0.003949495837225899  0.728890396177718  1.0000
  H   H16       1.0  0.7593336935102217  0.996054350146295  0.22889136375737706  1.0000
  H   H17       1.0  0.5161770322418776  0.24784276148410808  0.6394951019422808  1.0000
  H   H18       1.0  0.9838250432292317  0.7521573773188592  0.13949669206925822  1.0000
  H   H19       1.0  0.4838243095846907  0.7521579174170656  0.36050320450803514  1.0000
  H   H20       1.0  0.016177956491112887  0.2478445654118602  0.8605047735957642  1.0000
  H   H21       1.0  0.3812333350121265  0.16064387144225378  0.578041530381178  1.0000
  H   H22       1.0  0.11876893428505746  0.8393551381951808  0.0780419875835747  1.0000
  H   H23       1.0  0.6187672655657722  0.8393542767353496  0.4219578291409647  1.0000
  H   H24       1.0  0.8812346114542895  0.160644272283065  0.9219584250102244  1.0000
  H   H25       1.0  0.7758574187471653  0.6213888085841647  0.48381371343004537  1.0000
  H   H26       1.0  0.7241406341720239  0.37860967397953255  0.9838147569892186  1.0000
  H   H27       1.0  0.22414134854293627  0.3786118733769328  0.5161851195558498  1.0000
  H   H28       1.0  0.27585739186972086  0.6213884772574046  0.0161861821400819  1.0000
  H   H29       1.0  0.6052615296571348  0.5513825846272769  0.5333233421131639  1.0000
  H   H30       1.0  0.8947410271162116  0.44861514386776946  0.0333228866864772  1.0000
  H   H31       1.0  0.3947407288139006  0.44861682738108755  0.4666770704805288  1.0000
  H   H32       1.0  0.10526177737382628  0.5513817358881214  0.9666764728359922  1.0000
  C   C1        1.0  0.4309045371083116  0.2060994171288257  0.32682129970982743  1.0000
  C   C2        1.0  0.06909402202653327  0.7938993113617485  0.8268222161049296  1.0000
  C   C3        1.0  0.5690925722891365  0.7939000010006153  0.673178059811882  1.0000
  C   C4        1.0  0.930902716746893  0.20609884140530713  0.17317872302426454  1.0000
  C   C5        1.0  0.54206756604669  0.372098737721096  0.32249000473441924  1.0000
  C   C6        1.0  0.95792781400116  0.627899933193021  0.8224889180669736  1.0000
  C   C7        1.0  0.457927885458581  0.6278994165757652  0.6775114609304681  1.0000
  C   C8        1.0  0.04206672085949487  0.3720994879969552  0.1775099149187369  1.0000
  C   C9        1.0  0.5704748054743335  0.4545459341912946  0.2577940179310191  1.0000
  C   C10       1.0  0.9295251381923465  0.545455337162245  0.7577929470477616  1.0000
  C   C11       1.0  0.42952396181656394  0.5454547477682966  0.7422074477338257  1.0000
  C   C12       1.0  0.07047271245409799  0.454546611690148  0.24220641247369198  1.0000
  C   C13       1.0  0.48909107976316346  0.3718225456331013  0.1968274957038858  1.0000
  C   C14       1.0  0.01091016990044124  0.6281813920790429  0.6968268640444608  1.0000
  C   C15       1.0  0.5109084287764106  0.62818066705006  0.8031729168891175  1.0000
  C   C16       1.0  0.9890906259071317  0.3718218190745972  0.30317249547707803  1.0000
  C   C17       1.0  0.3766005284919915  0.20640833756213084  0.20146786700912145  1.0000
  C   C18       1.0  0.12339465828319619  0.7935968678320791  0.701467739088578  1.0000
  C   C19       1.0  0.6233942015986501  0.7935961466032782  0.7985320190475562  1.0000
  C   C20       1.0  0.8766000718074525  0.2064076163333297  0.2985321469681069  1.0000
  C   C21       1.0  0.34656596882977203  0.12452509154071117  0.2661143592487889  1.0000
  C   C22       1.0  0.1534298033700026  0.8754775073498493  0.7661152690152095  1.0000
  C   C23       1.0  0.6534283906360587  0.8754781272638256  0.7338844737364383  1.0000
  C   C24       1.0  0.8465658433647791  0.12452570992336119  0.2338856701132812  1.0000
  C   C25       1.0  0.40934402828892064  0.1101417702913068  0.3946070007347445  1.0000
  C   C26       1.0  0.09065420153985558  0.8898556149822666  0.8946078969207109  1.0000
  C   C27       1.0  0.5906539977523411  0.8898563809465329  0.6053923587871922  1.0000
  C   C28       1.0  0.9093434538773907  0.11014127089318751  0.1053930422087248  1.0000
  C   C29       1.0  0.5217731062973173  0.4590911669272657  0.1269940989560965  1.0000
  C   C30       1.0  0.9782271282654239  0.540911520018497  0.6269930369784691  1.0000
  C   C31       1.0  0.4782264022424131  0.5409120457555902  0.8730068401727067  1.0000
  C   C32       1.0  0.021772380273674175  0.45909169266556665  0.3730057960071776  1.0000
  C   C33       1.0  0.07284194902580052  0.060400731502340904  0.5229774583622417  1.0000
  C   C34       1.0  0.427168926960441  0.9395970653080427  0.0229758340082711  1.0000
  C   C35       1.0  0.9271676624309537  0.9395974059632337  0.47702400730377553  1.0000
  C   C36       1.0  0.5728416011391674  0.060399805267749705  0.9770224724432454  1.0000
  O   O1        1.0  0.5161842264978918  0.17098716292809257  0.44516496821937324  1.0000
  O   O2        1.0  0.9838187567072014  0.8290062949283978  0.94516752186248  1.0000
  O   O3        1.0  0.4838174661180121  0.8290059207445709  0.5548322851603231  1.0000
  O   O4        1.0  0.016184223178619585  0.17098678721112037  0.05483499687521492  1.0000
  O   O5        1.0  0.28796681927227047  0.970828892217611  0.3982657821399442  1.0000
  O   O6        1.0  0.2120266343376827  0.029169760336081697  0.8982658568367796  1.0000
  O   O7        1.0  0.7120260576957308  0.02916926514070181  0.6017335773815802  1.0000
  O   O8        1.0  0.7879675298989569  0.9708283954915089  0.10173455575642981  1.0000
  O   O9        1.0  0.641728463856012  0.599823488442304  0.1230777179995144  1.0000
  O   O10       1.0  0.8582747134796876  0.4001804653046861  0.6230735123255187  1.0000
  O   O11       1.0  0.3582749064896263  0.40017971964838495  0.8769263803443297  1.0000
  O   O12       1.0  0.1417277402195722  0.5998240096824432  0.3769221614454707  1.0000
  O   O13       1.0  0.4285811529701676  0.38889805994426746  0.0742989249476338  1.0000
  O   O14       1.0  0.07142628295382988  0.6111098084618903  0.5742993602422075  1.0000
  O   O15       1.0  0.5714262744086512  0.6111102065348321  0.9257004345738055  1.0000
  O   O16       1.0  0.9285794865324919  0.3888971941852403  0.4257010523508385  1.0000
  O   O17       1.0  0.052752599182468905  0.20539184622180784  0.5356195631748407  1.0000
  O   O18       1.0  0.4472527648117934  0.7946046768277101  0.0356174512400003  1.0000
  O   O19       1.0  0.9472502053082084  0.794605033532875  0.4643819024907927  1.0000
  O   O20       1.0  0.5527535308582118  0.20539093297725938  0.9643803286755459  1.0000
  O   O21       1.0  0.20158891166017417  0.0058181968660378  0.5437593164306734  1.0000
  O   O22       1.0  0.2984240055114853  0.9941821052669155  0.0437597641827949  1.0000
  O   O23       1.0  0.7984234695622379  0.9941850005165519  0.45624004309178906  1.0000
  O   O24       1.0  0.7015885511060774  0.005817294500509701  0.956240648411729  1.0000
  O   O25       1.0  0.49167935323846745  0.2527882845349366  0.5894663013974011  1.0000
  O   O26       1.0  0.008322552398304582  0.7472094466187472  0.0894672901960476  1.0000
  O   O27       1.0  0.5083234512514069  0.7472085952212523  0.41053253158928277  1.0000
  O   O28       1.0  0.9916793354483958  0.2527887000278356  0.9105336489335657  1.0000
  O   O29       1.0  0.6868771343693681  0.5177063942514691  0.5011141055122437  1.0000
  O   O30       1.0  0.813122828234683  0.48229137429726177  0.0011146818081613002  1.0000
  O   O31       1.0  0.313120891671737  0.482291756986676  0.4988847274739073  1.0000
  O   O32       1.0  0.18687777234353584  0.5177067738797448  0.9988857307855598  1.0000
