data_image0
_chemical_formula_structural       Mn2H24C36N4O8
_chemical_formula_sum              "Mn2 H24 C36 N4 O8"
_cell_length_a       8.645351331232456
_cell_length_b       9.960783378196515
_cell_length_c       11.58179990375456
_cell_angle_alpha    91.3794557455743
_cell_angle_beta     112.60743906637954
_cell_angle_gamma    112.90311066281893

_space_group_name_H-M_alt    "P 1"
_space_group_IT_number       1

loop_
  _space_group_symop_operation_xyz
  'x, y, z'

loop_
  _atom_site_type_symbol
  _atom_site_label
  _atom_site_symmetry_multiplicity
  _atom_site_fract_x
  _atom_site_fract_y
  _atom_site_fract_z
  _atom_site_occupancy
  Mn  Mn1       1.0  0.49546758782909733  0.37872151372711477  0.3517300057265872  1.0000
  Mn  Mn2       1.0  0.5045345415379145  0.6212675383068741  0.6482674549086909  1.0000
  H   H1        1.0  0.4854040348897899  0.5518977027568397  0.14227601741707477  1.0000
  H   H2        1.0  0.5146111639767456  0.4480824641026118  0.8577061475729479  1.0000
  H   H3        1.0  0.29395190125791976  0.5381236976352285  0.9144755405879579  1.0000
  H   H4        1.0  0.7060643008088264  0.46186975236359024  0.08551678427170369  1.0000
  H   H5        1.0  0.8361993139675478  0.1765382081445566  0.9457913998367928  1.0000
  H   H6        1.0  0.16379861550824162  0.8235014084644304  0.05421910319697789  1.0000
  H   H7        1.0  0.0512818104977342  0.20529704848729577  0.1716159798444679  1.0000
  H   H8        1.0  0.9487314153286094  0.794726772723344  0.8283831698163269  1.0000
  H   H9        1.0  0.11591669782723811  0.5631403559714555  0.7612087483934644  1.0000
  H   H10       1.0  0.8840945567003828  0.43686665152895193  0.2387867648009632  1.0000
  H   H11       1.0  0.9091844680451688  0.550221148202816  0.541264747994397  1.0000
  H   H12       1.0  0.09082022545225502  0.4497746107465019  0.45873366618854317  1.0000
  H   H13       1.0  0.5108186025005991  0.13771680969760783  0.5212360895639705  1.0000
  H   H14       1.0  0.4891835147649816  0.8623088448774114  0.4787882603339781  1.0000
  H   H15       1.0  0.7046227610822058  0.1250532583884905  0.7392471049167215  1.0000
  H   H16       1.0  0.2953802341085422  0.8749803579284859  0.26077426805614584  1.0000
  H   H17       1.0  0.43357308835375363  0.2201614012383359  0.9599461886571632  1.0000
  H   H18       1.0  0.5664306170945679  0.7797979981444667  0.04006218289794107  1.0000
  H   H19       1.0  0.5735022829117542  0.9361980626320592  0.2156339217244182  1.0000
  H   H20       1.0  0.42650982593530534  0.06377890791141282  0.78438868582883  1.0000
  H   H21       1.0  0.8636505566412751  0.9509171965924492  0.6575419060571761  1.0000
  H   H22       1.0  0.13631645285844482  0.049071660216341705  0.3424423568800918  1.0000
  H   H23       1.0  0.8950885369781857  0.7942482854758308  0.3216111168974294  1.0000
  H   H24       1.0  0.10487546750931638  0.20574405211900879  0.6783714683710969  1.0000
  C   C1        1.0  0.34046980858101256  0.470385995453924  0.09413588309494972  1.0000
  C   C2        1.0  0.6595589716395907  0.5296095057117398  0.905855974634548  1.0000
  C   C3        1.0  0.2320915244261386  0.46218900145683495  0.9671935106281495  1.0000
  C   C4        1.0  0.7679562092545993  0.5378271948233859  0.032815851336110306  1.0000
  C   C5        1.0  0.045510075235185424  0.35561441437668145  0.9087537946488881  1.0000
  C   C6        1.0  0.9545123977660597  0.6444065823652495  0.09126189101216652  1.0000
  C   C7        1.0  0.979530052076946  0.2610337309332351  0.9839913879727078  1.0000
  C   C8        1.0  0.02048371860860958  0.7389919314099201  0.01602438704131972  1.0000
  C   C9        1.0  0.09861899306523009  0.27679219069830907  0.11071558459573787  1.0000
  C   C10       1.0  0.9013945976679948  0.7232214023577227  0.8892859927060357  1.0000
  C   C11       1.0  0.9258755591190705  0.348112239057599  0.7747836534605241  1.0000
  C   C12       1.0  0.07411858757770062  0.6519064972703674  0.22520614583941523  1.0000
  C   C13       1.0  0.9822532832613577  0.46623986677079887  0.714152426075117  1.0000
  C   C14       1.0  0.017748994217058223  0.5337776033143629  0.2858372023531218  1.0000
  C   C15       1.0  0.8665865892726929  0.45992735674367663  0.589809456571956  1.0000
  C   C16       1.0  0.13341829665345983  0.5400797026261587  0.41018845444701674  1.0000
  C   C17       1.0  0.6456728474796235  0.230173670306236  0.5791287025198598  1.0000
  C   C18       1.0  0.35431785427578444  0.7698401297063243  0.42088065519033796  1.0000
  C   C19       1.0  0.753990489513498  0.22569805510850935  0.7027516439589832  1.0000
  C   C20       1.0  0.24598921170808555  0.7743138451762804  0.297250887236892  1.0000
  C   C21       1.0  0.4634255859804029  0.12381893935425128  0.9768514148510548  1.0000
  C   C22       1.0  0.5365614390898159  0.8761613748241714  0.02314470760676809  1.0000
  C   C23       1.0  0.5037179509527973  0.08766177322500822  0.09804256123764077  1.0000
  C   C24       1.0  0.49627105789254966  0.9123345857970335  0.9019424968103422  1.0000
  C   C25       1.0  0.5404787821220584  0.9632596237037845  0.12095124209483299  1.0000
  C   C26       1.0  0.45951253127128666  0.036726162789975106  0.8790489126234533  1.0000
  C   C27       1.0  0.5050694576111355  0.18207559599781578  0.2007121623121222  1.0000
  C   C28       1.0  0.4949471958807052  0.8178980249720526  0.7993056810253308  1.0000
  C   C29       1.0  0.9249990535763288  0.9735675121308276  0.5895366963950153  1.0000
  C   C30       1.0  0.07497480837692191  0.0264335239086222  0.4104525523503852  1.0000
  C   C31       1.0  0.8657485287792213  0.8582097690712657  0.488228578852528  1.0000
  C   C32       1.0  0.13422115881331112  0.1417858553327136  0.5117540823525673  1.0000
  C   C33       1.0  0.941359169261837  0.885469293748024  0.39878720888869174  1.0000
  C   C34       1.0  0.05860659030663129  0.11452406528559317  0.6011985248118279  1.0000
  C   C35       1.0  0.727579079200453  0.7058225502521509  0.4790533961546473  1.0000
  C   C36       1.0  0.2723933687896789  0.29416274434296946  0.5209341406013834  1.0000
  N   N1        1.0  0.2764982521293788  0.37977712830728183  0.16597891105880785  1.0000
  N   N2        1.0  0.7235228318615297  0.6202265892570863  0.8340056608604555  1.0000
  N   N3        1.0  0.6982378282198239  0.3459955676180542  0.5228578797607709  1.0000
  N   N4        1.0  0.301772995969266  0.6540119862561583  0.4771617036692888  1.0000
  O   O1        1.0  0.4135204784519573  0.12262861744606822  0.2637408244180577  1.0000
  O   O2        1.0  0.5864906605745475  0.8773485252842333  0.7362754486205177  1.0000
  O   O3        1.0  0.5969132652469256  0.3235953138241213  0.21861313042177952  1.0000
  O   O4        1.0  0.4030981918777385  0.6763775190948138  0.781394485578943  1.0000
  O   O5        1.0  0.6510548923397651  0.6101057065684757  0.375457317291179  1.0000
  O   O6        1.0  0.3489190051095649  0.3898841504101682  0.624527324058505  1.0000
  O   O7        1.0  0.6996743154884015  0.6784202972564941  0.5780826860423005  1.0000
  O   O8        1.0  0.3003122687000043  0.32157020462331326  0.42191271229444993  1.0000
