data_image0
_chemical_formula_structural       Co3H90C132N18
_chemical_formula_sum              "Co3 H90 C132 N18"
_cell_length_a       9.269191362407128
_cell_length_b       19.109728811473996
_cell_length_c       19.110863944097446
_cell_angle_alpha    117.43675319401669
_cell_angle_beta     99.30655388123971
_cell_angle_gamma    99.3086894635837

_space_group_name_H-M_alt    "P 1"
_space_group_IT_number       1

loop_
  _space_group_symop_operation_xyz
  'x, y, z'

loop_
  _atom_site_type_symbol
  _atom_site_label
  _atom_site_symmetry_multiplicity
  _atom_site_fract_x
  _atom_site_fract_y
  _atom_site_fract_z
  _atom_site_occupancy
  Co  Co1       1.0  1.001806580800086e-06  1.7785009588999906e-06  0.5000008066924695  1.0000
  Co  Co2       1.0  0.5000001482479348  0.49999895069819195  0.5000007314029207  1.0000
  Co  Co3       1.0  0.9999997967225481  0.4999998146082589  0.9999990877198999  1.0000
  H   H1        1.0  0.7487114206853321  0.23272914065893963  0.6542615216850862  1.0000
  H   H2        1.0  0.0945419834527783  0.34570543138113413  0.5784896843753914  1.0000
  H   H3        1.0  0.5160053657219663  0.42151467796446707  0.7672663819607879  1.0000
  H   H4        1.0  0.2512868195284028  0.7672712099763431  0.34573776910949067  1.0000
  H   H5        1.0  0.9054567382779339  0.6542936946192343  0.42151064959929146  1.0000
  H   H6        1.0  0.4839942744123461  0.578486284989637  0.23273434718181824  1.0000
  H   H7        1.0  0.5662589206749118  0.1456885314134979  0.4991102177982967  1.0000
  H   H8        1.0  0.06714292571463429  0.5008339850836877  0.6465496442599135  1.0000
  H   H9        1.0  0.42049229765077467  0.35340158410141254  0.8542895726013598  1.0000
  H   H10       1.0  0.4337404134785388  0.8543118192141109  0.5008907284714823  1.0000
  H   H11       1.0  0.9328554893436873  0.4991645286287892  0.35344933701778575  1.0000
  H   H12       1.0  0.5795089160961523  0.6465981543130679  0.1457096689988119  1.0000
  H   H13       1.0  0.5707896044998079  0.8865186302967983  0.22879325228881722  1.0000
  H   H14       1.0  0.3420258008369785  0.7711844593551689  0.6577105047833173  1.0000
  H   H15       1.0  0.684320088908649  0.342297184072507  0.1135004044075671  1.0000
  H   H16       1.0  0.42921130326625695  0.11348049579118678  0.771206206438535  1.0000
  H   H17       1.0  0.6579746263341519  0.22881589131625193  0.34229000386279307  1.0000
  H   H18       1.0  0.31567815130509297  0.6577031665627686  0.8864988863870098  1.0000
  H   H19       1.0  0.7582646577343723  0.7888578669284882  0.1885098737848524  1.0000
  H   H20       1.0  0.5697904457732292  0.8114767560735885  0.6003493214927504  1.0000
  H   H21       1.0  0.9694788081155039  0.39966784209722317  0.21112644609007  1.0000
  H   H22       1.0  0.24173546345589608  0.21114187141643728  0.8114908519884311  1.0000
  H   H23       1.0  0.43020687603690516  0.18852175760795126  0.39964957413389623  1.0000
  H   H24       1.0  0.0305205255769252  0.6003325085561287  0.7888734536302665  1.0000
  H   H25       1.0  0.38527387738091773  0.9829321887921337  0.41774493102560956  1.0000
  H   H26       1.0  0.9673092858895345  0.5822437375754674  0.5651449076315844  1.0000
  H   H27       1.0  0.4022602870575938  0.4347948268974236  0.01704938141391931  1.0000
  H   H28       1.0  0.6147246692747004  0.017068774143901098  0.5822551891912298  1.0000
  H   H29       1.0  0.03269162233754486  0.41775538848678195  0.4348555976452034  1.0000
  H   H30       1.0  0.597739833441146  0.5652049114861198  0.9829497745352002  1.0000
  H   H31       1.0  0.14846305504845253  0.9867961100949716  0.3413089155936578  1.0000
  H   H32       1.0  0.8069994175957119  0.6587012006480393  0.6454536486859368  1.0000
  H   H33       1.0  0.16158597318555923  0.3545576415576618  0.013239555739943369  1.0000
  H   H34       1.0  0.8515371975086056  0.013206077486380297  0.658692425844045  1.0000
  H   H35       1.0  0.19300070313353507  0.3412985377226293  0.354546030537911  1.0000
  H   H36       1.0  0.8384144535245567  0.6454427091395019  0.9867599063567313  1.0000
  H   H37       1.0  0.3949246773816384  0.0551971413391001  0.19983432748922075  1.0000
  H   H38       1.0  0.1949876196704706  0.8001136239028596  0.8553304983664135  1.0000
  H   H39       1.0  0.33959609018243236  0.14463957652334608  0.9448665284698239  1.0000
  H   H40       1.0  0.6050754433476087  0.9448025970315683  0.8001653517346199  1.0000
  H   H41       1.0  0.8050128075006527  0.1998867267685611  0.14467001027969673  1.0000
  H   H42       1.0  0.6604046432000671  0.8553613864616948  0.05513428632383473  1.0000
  H   H43       1.0  0.6322697997772976  0.049247111887353916  0.2753624047342669  1.0000
  H   H44       1.0  0.35669362915086106  0.7245716378714988  0.7738617982564123  1.0000
  H   H45       1.0  0.5828466540872553  0.2260769202967055  0.9507393615848089  1.0000
  H   H46       1.0  0.3677292277037622  0.9507526264523777  0.7246371888385287  1.0000
  H   H47       1.0  0.6433064918089002  0.27542810048630173  0.2261384042421569  1.0000
  H   H48       1.0  0.4171534664114843  0.7739228180868309  0.04925979436431755  1.0000
  H   H49       1.0  0.009404549921612257  0.9838711738638043  0.2170984565968371  1.0000
  H   H50       1.0  0.7921484130842416  0.7829413619529147  0.7667542973739716  1.0000
  H   H51       1.0  0.025364908306556792  0.23318955949297762  0.016152448348393033  1.0000
  H   H52       1.0  0.9905964894417494  0.0161304014477324  0.7829021410696555  1.0000
  H   H53       1.0  0.20785280112370688  0.21705837643582265  0.23324599077564304  1.0000
  H   H54       1.0  0.9746355186340662  0.766810791191311  0.9838475370229958  1.0000
  H   H55       1.0  0.11004368170340939  0.013379663044347  0.1586042184191356  1.0000
  H   H56       1.0  0.9513511412916529  0.8414375526023149  0.8547479032562251  1.0000
  H   H57       1.0  0.09657918929251247  0.1452055503728786  0.9866583521172103  1.0000
  H   H58       1.0  0.8899576638713214  0.9866225245808169  0.8413966853949051  1.0000
  H   H59       1.0  0.04864897943759419  0.15856218576835351  0.14525177596761552  1.0000
  H   H60       1.0  0.9034220244544142  0.8547941880416017  0.013340889482961325  1.0000
  H   H61       1.0  0.09430794256407178  0.08869794253108408  0.25385238438344265  1.0000
  H   H62       1.0  0.8403434032003074  0.7461938573980407  0.8348208551267294  1.0000
  H   H63       1.0  0.005576705772654077  0.16516969453665098  0.9113500675521636  1.0000
  H   H64       1.0  0.9056909103029154  0.911303632718571  0.746148041980945  1.0000
  H   H65       1.0  0.1596559304921215  0.25380649325531124  0.16517904459360722  1.0000
  H   H66       1.0  0.9944240276098453  0.8348312684483971  0.08865074724149487  1.0000
  H   H67       1.0  0.1797029730811061  0.8158352813523563  0.21707999696403138  1.0000
  H   H68       1.0  0.9626582361493873  0.7829316683721147  0.5987821865734448  1.0000
  H   H69       1.0  0.3638247401455885  0.4012066938929308  0.1841662557299912  1.0000
  H   H70       1.0  0.8202996398948699  0.1841650694195565  0.7829191131600198  1.0000
  H   H71       1.0  0.03734219102174309  0.2170686822993062  0.4012183220726656  1.0000
  H   H72       1.0  0.6361753805836583  0.5987930444777375  0.8158334234938565  1.0000
  H   H73       1.0  0.15204407308952028  0.6864591994749746  0.08716189997223729  1.0000
  H   H74       1.0  0.06500742481421173  0.9128781292902558  0.5993436988099319  1.0000
  H   H75       1.0  0.46554587244676066  0.4006946917049418  0.3135642618988186  1.0000
  H   H76       1.0  0.8479552599113802  0.3135411512169881  0.9128364299239493  1.0000
  H   H77       1.0  0.9349926963760568  0.08712160905466962  0.40065702696335154  1.0000
  H   H78       1.0  0.534450356345694  0.5993038219327929  0.6864350713514967  1.0000
  H   H79       1.0  0.8052932970330814  0.5574662548768927  0.12876215907825644  1.0000
  H   H80       1.0  0.6766081782160356  0.8712311543771778  0.42873613624013296  1.0000
  H   H81       1.0  0.24782167405358274  0.5713087102104096  0.442474745835007  1.0000
  H   H82       1.0  0.19470603642884043  0.4425340957893269  0.8712372173673658  1.0000
  H   H83       1.0  0.3233919429742258  0.12876858396774793  0.5712645895331506  1.0000
  H   H84       1.0  0.7521781406948094  0.4286904158337635  0.557525150516007  1.0000
  H   H85       1.0  0.8177132189553972  0.6814087958515458  0.2601734756545825  1.0000
  H   H86       1.0  0.5576293003243649  0.7397998911246333  0.42124709522248355  1.0000
  H   H87       1.0  0.13639908965969036  0.5787957421273122  0.3185287478256671  1.0000
  H   H88       1.0  0.18228939448159304  0.31859155489462404  0.7398266810189114  1.0000
  H   H89       1.0  0.44236972715669504  0.26019984721509093  0.5787524983503118  1.0000
  H   H90       1.0  0.8636027369709964  0.42120522088867324  0.681472152619044  1.0000
  C   C1        1.0  0.8749627766256793  0.1368809995328917  0.606142336591482  1.0000
  C   C2        1.0  0.2689220438704965  0.3938695953741985  0.5307861976892597  1.0000
  C   C3        1.0  0.7380893909112485  0.4692015973396479  0.8631116156336418  1.0000
  C   C4        1.0  0.1250404492340563  0.8631205758405257  0.39385843237710827  1.0000
  C   C5        1.0  0.73107777133891  0.6061295306442387  0.4692147452111967  1.0000
  C   C6        1.0  0.2619085433216242  0.5307981409691394  0.13688789228810094  1.0000
  C   C7        1.0  0.7574770469720988  0.17744318345033613  0.6032149463319102  1.0000
  C   C8        1.0  0.15437193758597795  0.39676558395031947  0.574270469652582  1.0000
  C   C9        1.0  0.5800367667019515  0.42571999936509297  0.8225317674949937  1.0000
  C   C10       1.0  0.24252508610046408  0.8225583918664013  0.39678678353507024  1.0000
  C   C11       1.0  0.8456278771624068  0.6032335420938537  0.4257294266984317  1.0000
  C   C12       1.0  0.41996615317692215  0.5742809636818291  0.1774692186007697  1.0000
  C   C13       1.0  0.6651707277603904  0.13348688827721134  0.5253072100308032  1.0000
  C   C14       1.0  0.13987134472416335  0.4746497727369389  0.6081711050551493  1.0000
  C   C15       1.0  0.5316257456100358  0.39178619015411437  0.8664915960104196  1.0000
  C   C16       1.0  0.33482611368531673  0.8665128499748888  0.4746932587893229  1.0000
  C   C17       1.0  0.860129257291547  0.525348741011683  0.3918290940740902  1.0000
  C   C18       1.0  0.46837218862284397  0.608213548154673  0.13350791191132327  1.0000
  C   C19       1.0  0.7263624691681939  0.0662494174342285  0.48067430651728676  1.0000
  C   C20       1.0  0.24562321638401124  0.5193014733603148  0.5855382295681012  1.0000
  C   C21       1.0  0.6600485741026673  0.41440844318946546  0.933755543107452  1.0000
  C   C22       1.0  0.27363686521576364  0.9337509331805123  0.5193271630272138  1.0000
  C   C23       1.0  0.7543759864026498  0.48069642803087487  0.41446210103725895  1.0000
  C   C24       1.0  0.33995215997136086  0.5855925197569647  0.06624684151037039  1.0000
  C   C25       1.0  0.6676471275422955  0.0111281635714349  0.3968464505021672  1.0000
  C   C26       1.0  0.2706698056019761  0.6031276354687876  0.6142465403033982  1.0000
  C   C27       1.0  0.6564140529602298  0.385698733592953  0.9888680085652342  1.0000
  C   C28       1.0  0.33235251259201687  0.9888727993826691  0.603154278640446  1.0000
  C   C29       1.0  0.729330490432872  0.3968702659533392  0.38575387595301447  1.0000
  C   C30       1.0  0.3435860668469814  0.6143010048292011  0.011129577559735478  1.0000
  C   C31       1.0  0.7376363203028119  0.9517097871934652  0.3531736145290126  1.0000
  C   C32       1.0  0.38447634975742045  0.6468064453347678  0.5985474214951411  1.0000
  C   C33       1.0  0.7859224256621855  0.40143955653712027  0.048262984962185736  1.0000
  C   C34       1.0  0.26236471906054953  0.04829178811807109  0.64682698313748  1.0000
  C   C35       1.0  0.6155245584696587  0.3531926807274743  0.40145308378163963  1.0000
  C   C36       1.0  0.21407598893511443  0.5985589572011063  0.9517349497660776  1.0000
  C   C37       1.0  0.6747388254708113  0.8907996495292424  0.2677476861560707  1.0000
  C   C38       1.0  0.4070545810046723  0.7322417913680254  0.6230757096805492  1.0000
  C   C39       1.0  0.7839585907511121  0.376935112710143  0.10918077308415526  1.0000
  C   C40       1.0  0.3252605086826392  0.10920070109837351  0.7322532601137085  1.0000
  C   C41       1.0  0.5929449279933579  0.26775672233679154  0.37692492707235203  1.0000
  C   C42       1.0  0.21604013005755715  0.623064013341704  0.8908174677916494  1.0000
  C   C43       1.0  0.7690411721302296  0.8411144967042148  0.2476385954376213  1.0000
  C   C44       1.0  0.5215130842723142  0.7523604243048042  0.5935338397424135  1.0000
  C   C45       1.0  0.9279883950337008  0.4065049490404604  0.15884989014773518  1.0000
  C   C46       1.0  0.23096004207771867  0.1588852416845299  0.7523616927119932  1.0000
  C   C47       1.0  0.4784859436697673  0.2476393140091844  0.40646680037981764  1.0000
  C   C48       1.0  0.07201032600548272  0.5934941769985189  0.841148874002791  1.0000
  C   C49       1.0  0.8894390392359809  0.8713204530072717  0.3209709538407567  1.0000
  C   C50       1.0  0.5686030500238317  0.6790403951410935  0.5504421293035406  1.0000
  C   C51       1.0  0.018168948451993582  0.44959841847109777  0.12861592813911932  1.0000
  C   C52       1.0  0.11056309360607489  0.1286811223223339  0.6790302527515024  1.0000
  C   C53       1.0  0.43139676495506757  0.3209587308902115  0.44955829032219446  1.0000
  C   C54       1.0  0.9818322652949334  0.5504013199433828  0.8713833134610525  1.0000
  C   C55       1.0  0.005885062988923608  0.8342812377755919  0.3245685459585773  1.0000
  C   C56       1.0  0.6813410766845891  0.6754254292310762  0.5097366766015696  1.0000
  C   C57       1.0  0.17161867459480365  0.4902914952861865  0.1656858523361678  1.0000
  C   C58       1.0  0.9941156697020471  0.16571972524806003  0.6754306990109313  1.0000
  C   C59       1.0  0.3186590447361865  0.3245743091009814  0.49026457244642785  1.0000
  C   C60       1.0  0.8283806588671183  0.5097088553800332  0.8343135241094545  1.0000
  C   C61       1.0  0.5259629549989384  0.015838558710179  0.3521012647411794  1.0000
  C   C62       1.0  0.17369756158806374  0.6478626685882531  0.6636902494645228  1.0000
  C   C63       1.0  0.5100214177974108  0.3362447268471484  0.984180255929502  1.0000
  C   C64       1.0  0.4740382592090027  0.9841611796785587  0.647899023408435  1.0000
  C   C65       1.0  0.8263011603731484  0.35213645739924004  0.3363106077848813  1.0000
  C   C66       1.0  0.4899791835267775  0.6637537869400844  0.01581837337558065  1.0000
  C   C67       1.0  0.38801334462593196  0.9989992844485298  0.3700718369203244  1.0000
  C   C68       1.0  0.017751287366671434  0.6299150104604153  0.6288960152614324  1.0000
  C   C69       1.0  0.3889184344730977  0.3710641709043969  0.0010178004363723115  1.0000
  C   C70       1.0  0.6119852022602004  0.0010016784746298  0.6299288065712361  1.0000
  C   C71       1.0  0.9822485276122208  0.37008411557089  0.3711044043643029  1.0000
  C   C72       1.0  0.6110808992193384  0.6289361797489547  0.9989820992839712  1.0000
  C   C73       1.0  0.25416872457892475  0.0010601704316996995  0.32658844043516677  1.0000
  C   C74       1.0  0.9274182863972982  0.6734026745960052  0.6744426981470968  1.0000
  C   C75       1.0  0.25301805584660997  0.3255456274148329  0.9989961290423184  1.0000
  C   C76       1.0  0.7458329274376895  0.9989426294942163  0.6734132928011366  1.0000
  C   C77       1.0  0.0725812226007321  0.3265958391088049  0.32555793860580456  1.0000
  C   C78       1.0  0.7469850379548078  0.6744534987607694  0.0010024544376891567  1.0000
  C   C79       1.0  0.253466529667115  0.021207345508841496  0.2647228471858654  1.0000
  C   C80       1.0  0.9885744647704299  0.735278459412129  0.7564583791879472  1.0000
  C   C81       1.0  0.2321634525157279  0.24353917135799463  0.9788876737080303  1.0000
  C   C82       1.0  0.7465337228899356  0.9787948420725028  0.735278494251844  1.0000
  C   C83       1.0  0.011426443456649277  0.26472066665011335  0.24354212608884043  1.0000
  C   C84       1.0  0.7678361871575703  0.7564617916218525  0.02111200888514031  1.0000
  C   C85       1.0  0.39175417513018823  0.03844302765737951  0.2471434668186845  1.0000
  C   C86       1.0  0.14441401501173343  0.7528009431256706  0.7912795851101678  1.0000
  C   C87       1.0  0.3531703584479616  0.20870331948242443  0.9616187079571361  1.0000
  C   C88       1.0  0.6082445463700096  0.9615560983558494  0.752856343881284  1.0000
  C   C89       1.0  0.8555844002770953  0.24719757057393815  0.2087199194422453  1.0000
  C   C90       1.0  0.6468308552989654  0.7912964189320562  0.03838053364304276  1.0000
  C   C91       1.0  0.5257267546809173  0.0356061236714211  0.2898628235681073  1.0000
  C   C92       1.0  0.23564788255785632  0.7100587163939737  0.7457116461418993  1.0000
  C   C93       1.0  0.4899801345238116  0.2542401241301704  0.9644042744246947  1.0000
  C   C94       1.0  0.4742744592965237  0.9643936147301915  0.710136941306786  1.0000
  C   C95       1.0  0.7643530256692231  0.28994040966826873  0.25428885913488847  1.0000
  C   C96       1.0  0.5100210792231151  0.7457596142843101  0.03559496717547723  1.0000
  C   C97       1.0  0.10916454105722553  0.0266481269288334  0.22089929855894755  1.0000
  C   C98       1.0  0.8881360833144213  0.7791396231450562  0.8057202782474776  1.0000
  C   C99       1.0  0.0824220043363155  0.1942491823604229  0.9734119529660816  1.0000
  C   C100      1.0  0.8908368045175052  0.9733540606963232  0.7791016052550931  1.0000
  C   C101      1.0  0.1118640374148256  0.22086011522561216  0.19427940097636312  1.0000
  C   C102      1.0  0.9175773293561205  0.8057511682929286  0.02658794675426181  1.0000
  C   C103      1.0  0.9999696116529364  0.7587905987765566  0.24897730188412484  1.0000
  C   C104      1.0  0.7510627449337547  0.7510272356187001  0.5098314582692539  1.0000
  C   C105      1.0  0.24125017412831082  0.4902066308515672  0.241185372775263  1.0000
  C   C106      1.0  3.112103803457829e-05  0.2412103642471024  0.7510219430853837  1.0000
  C   C107      1.0  0.24893488354876325  0.24897189035073095  0.49016879005437636  1.0000
  C   C108      1.0  0.7587466668563749  0.509793107426276  0.7588140494954347  1.0000
  C   C109      1.0  0.09572455694354426  0.75948517052732  0.19959028553606126  1.0000
  C   C110      1.0  0.896190520117102  0.8004378367099249  0.5599449056741365  1.0000
  C   C111      1.0  0.3362141765540159  0.4400801554930496  0.24049842843489705  1.0000
  C   C112      1.0  0.9042747762878703  0.24051518015177456  0.8004085676348467  1.0000
  C   C113      1.0  0.10381069455186058  0.19956190165306964  0.4400564290249207  1.0000
  C   C114      1.0  0.6637858116558988  0.5599171337055538  0.7594980187509323  1.0000
  C   C115      1.0  0.08032265875358752  0.6877235267538141  0.12740117635621584  1.0000
  C   C116      1.0  0.9530097742724238  0.8726243816161627  0.5603640342209605  1.0000
  C   C117      1.0  0.3925682767275517  0.43967168053385564  0.3122787996982341  1.0000
  C   C118      1.0  0.9196766742473129  0.3122768239381486  0.8725971535399639  1.0000
  C   C119      1.0  0.04699065312921394  0.12737596904239015  0.4396369976998714  1.0000
  C   C120      1.0  0.6074318442322023  0.5603280578239449  0.6877214028003352  1.0000
  C   C121      1.0  0.8868671557591908  0.6158300885311478  0.15024720251560114  1.0000
  C   C122      1.0  0.7367167554980583  0.8497442025437109  0.46560665935927414  1.0000
  C   C123      1.0  0.27104680335592946  0.5344325270448992  0.38412770097480126  1.0000
  C   C124      1.0  0.11313357693178006  0.3841708744925114  0.8497520424539006  1.0000
  C   C125      1.0  0.2632817916185815  0.15025676036658098  0.5343945074070007  1.0000
  C   C126      1.0  0.7289519183747827  0.465566598955462  0.6158726329998815  1.0000
  C   C127      1.0  0.89409347196036  0.6847705423382493  0.22332618854537153  1.0000
  C   C128      1.0  0.6708842849983866  0.7766494189951275  0.46143410538501695  1.0000
  C   C129      1.0  0.20943346647285915  0.5386046541665265  0.3151960527329224  1.0000
  C   C130      1.0  0.1059069545192415  0.31522980837178244  0.7766727502765819  1.0000
  C   C131      1.0  0.3291161421727438  0.2233509316762934  0.5385664032610934  1.0000
  C   C132      1.0  0.7905655610082077  0.46139508417320485  0.684803540839873  1.0000
  N   N1        1.0  0.8547063064389063  0.06843372571949402  0.5310114834275766  1.0000
  N   N2        1.0  0.3237077177514537  0.4689980843471205  0.537428173588154  1.0000
  N   N3        1.0  0.7862387195392413  0.46254063920247285  0.9315737121170785  1.0000
  N   N4        1.0  0.14529442694359312  0.9315672372655541  0.4689893313660891  1.0000
  N   N5        1.0  0.67629319093664  0.5310010416893859  0.4625733782380763  1.0000
  N   N6        1.0  0.21376201315172938  0.5374603238211789  0.06842553285242305  1.0000
  N   N7        1.0  0.8711406050412549  0.9399413383222638  0.3852075949680015  1.0000
  N   N8        1.0  0.48599344616343376  0.6147866786516829  0.554787430112235  1.0000
  N   N9        1.0  0.9311807357871941  0.4452215103526953  0.060001226432795894  1.0000
  N   N10       1.0  0.12886122135892458  0.0600596247065894  0.6147927822019952  1.0000
  N   N11       1.0  0.5140049698169237  0.38521183500932216  0.4452136442643423  1.0000
  N   N12       1.0  0.06881907803915507  0.5547776157429638  0.9399965768193469  1.0000
  N   N13       1.0  0.977981215678497  0.6168216751184515  0.1025753747682145  1.0000
  N   N14       1.0  0.8755186896576035  0.8974358882106799  0.5142854551473804  1.0000
  N   N15       1.0  0.36114924994341635  0.4857626018187204  0.3831529292652292  1.0000
  N   N16       1.0  0.022017811111034298  0.38317806325989073  0.8974226489804237  1.0000
  N   N17       1.0  0.12448204395540328  0.10256507476149322  0.4857158829209994  1.0000
  N   N18       1.0  0.6388480718667182  0.514235911862819  0.6168459663614172  1.0000
