data_image0
_chemical_formula_structural       In2H18C24O12
_chemical_formula_sum              "In2 H18 C24 O12"
_cell_length_a       5.954225923604195
_cell_length_b       7.508676816048589
_cell_length_c       12.427530366474484
_cell_angle_alpha    89.98394492497144
_cell_angle_beta     89.33045999236933
_cell_angle_gamma    90.00290412456329

_space_group_name_H-M_alt    "P 1"
_space_group_IT_number       1

loop_
  _space_group_symop_operation_xyz
  'x, y, z'

loop_
  _atom_site_type_symbol
  _atom_site_label
  _atom_site_symmetry_multiplicity
  _atom_site_fract_x
  _atom_site_fract_y
  _atom_site_fract_z
  _atom_site_occupancy
  In  In1       1.0  0.0004849081032319016  0.8337201965625737  0.4976489399362123  1.0000
  In  In2       1.0  0.5004681870817934  0.1663133545187634  0.4976584848725026  1.0000
  H   H1        1.0  0.5914089336082355  0.665537144659282  0.2702835989180273  1.0000
  H   H2        1.0  0.1106142160523333  0.3366775070543326  0.7274413369294522  1.0000
  H   H3        1.0  0.09096212283776595  0.3342939818206004  0.2702663654487552  1.0000
  H   H4        1.0  0.6102060518764177  0.6635603638981137  0.7274557233807855  1.0000
  H   H5        1.0  0.7946711673228607  0.6073915547472594  0.0982764172661703  1.0000
  H   H6        1.0  0.30066525308588155  0.3941825876345888  0.8997841161381929  1.0000
  H   H7        1.0  0.29451605011033893  0.3925723569486905  0.098334348264153  1.0000
  H   H8        1.0  0.8005582870146741  0.6059706203987005  0.899724772264733  1.0000
  H   H9        1.0  0.025847029688684107  0.8739483584819254  0.09916877435188098  1.0000
  H   H10       1.0  0.5326746426294663  0.1264181906627542  0.8953030396518499  1.0000
  H   H11       1.0  0.5256722424686587  0.12598275600707612  0.0989813748781003  1.0000
  H   H12       1.0  0.03249688093126219  0.8736126811424113  0.8954762097132303  1.0000
  H   H13       1.0  0.06227078374323722  0.16850366436661093  0.5421401593531314  1.0000
  H   H14       1.0  0.5621399023666173  0.8312500514250443  0.5417817920579822  1.0000
  H   H15       1.0  0.8566930697975582  0.4767283460417032  0.562231718958202  1.0000
  H   H16       1.0  0.33499174057024567  0.5132126027548694  0.4387040762535078  1.0000
  H   H17       1.0  0.3563878472652959  0.5230576470963796  0.562477404930938  1.0000
  H   H18       1.0  0.8346268784027517  0.4870426208672001  0.43850841531390466  1.0000
  C   C1        1.0  0.170683927005399  0.785052003481745  0.2974471436838968  1.0000
  C   C2        1.0  0.692489125464526  0.21611327993590373  0.6970014047740135  1.0000
  C   C3        1.0  0.6701902196348827  0.2147901338798448  0.2972983118147923  1.0000
  C   C4        1.0  0.1920324705440138  0.7839765772966983  0.69712415203891  1.0000
  C   C5        1.0  0.29295814160791883  0.7670309237380762  0.1934465812859187  1.0000
  C   C6        1.0  0.8069294743344603  0.2323291642382799  0.8018605964265504  1.0000
  C   C7        1.0  0.7926716098346633  0.23285396808230976  0.1933439211806487  1.0000
  C   C8        1.0  0.3065997350725099  0.7677686477649955  0.8019576396472701  1.0000
  C   C9        1.0  0.5133215948148689  0.6945939480354895  0.1935164891297205  1.0000
  C   C10       1.0  0.026875802497144705  0.30555192796320085  0.8033783182515323  1.0000
  C   C11       1.0  0.013014277939731802  0.3052833047221242  0.1934765488220052  1.0000
  C   C12       1.0  0.5265582925322719  0.6945948672538406  0.803421650173874  1.0000
  C   C13       1.0  0.6263481743519393  0.6645486150534482  0.09823112098005281  1.0000
  C   C14       1.0  0.13294688210744005  0.3360331899052085  0.899157306146158  1.0000
  C   C15       1.0  0.1262237541437301  0.3354230064413953  0.09822567080856  1.0000
  C   C16       1.0  0.6327908475778516  0.6640840371637609  0.8991580064728097  1.0000
  C   C17       1.0  0.5243413975202742  0.7034737488484878  0.9984458286911462  1.0000
  C   C18       1.0  0.024337479687908115  0.2965488225760565  0.9984081739577988  1.0000
  C   C19       1.0  0.3036140532501649  0.7819145701029129  0.9977914222391532  1.0000
  C   C20       1.0  0.8036456972267916  0.21809724561646246  0.9976872228705318  1.0000
  C   C21       1.0  0.193052847438004  0.8148272521755399  0.0975718183987411  1.0000
  C   C22       1.0  0.699963508838316  0.1852397983597243  0.89741804659635  1.0000
  C   C23       1.0  0.6928879102228225  0.18509951516894324  0.0974384929146552  1.0000
  C   C24       1.0  0.19978078994772372  0.8148010542289869  0.8975507559009587  1.0000
  O   O1        1.0  0.15930895613987422  0.08467693221292902  0.5026236452967368  1.0000
  O   O2        1.0  0.6593388681256941  0.915379603696813  0.502606705858021  1.0000
  O   O3        1.0  0.9839162571643599  0.8646827122065516  0.3064461061049641  1.0000
  O   O4        1.0  0.49354617578111276  0.1575400372419153  0.6891021383708279  1.0000
  O   O5        1.0  0.4835793070762123  0.13495392400695036  0.3062885687504675  1.0000
  O   O6        1.0  0.993222130762803  0.842776293957989  0.6892203400752877  1.0000
  O   O7        1.0  0.26012673476417814  0.7151008959676659  0.3823903426627311  1.0000
  O   O8        1.0  0.7990916306999268  0.2677046791412038  0.6106533296162198  1.0000
  O   O9        1.0  0.7594161271838689  0.28496225261326197  0.3822162678793575  1.0000
  O   O10       1.0  0.29845860833543725  0.7321822450352825  0.6107815322073264  1.0000
  O   O11       1.0  0.8489305481815493  0.5649715553620138  0.5027584235891496  1.0000
  O   O12       1.0  0.34903066417911793  0.4350527879910969  0.5029064306605875  1.0000
