data_image0
_chemical_formula_structural       Zn8H16C80Br16O26F8
_chemical_formula_sum              "Zn8 H16 C80 Br16 O26 F8"
_cell_length_a       23.93985601572098
_cell_length_b       23.941569439800038
_cell_length_c       23.939655068767408
_cell_angle_alpha    66.32312512265251
_cell_angle_beta     72.59599647162943
_cell_angle_gamma    107.41379190090781

_space_group_name_H-M_alt    "P 1"
_space_group_IT_number       1

loop_
  _space_group_symop_operation_xyz
  'x, y, z'

loop_
  _atom_site_type_symbol
  _atom_site_label
  _atom_site_symmetry_multiplicity
  _atom_site_fract_x
  _atom_site_fract_y
  _atom_site_fract_z
  _atom_site_occupancy
  Zn  Zn1       1.0  0.056865644191887534  0.9571192522835902  0.4860289046280144  1.0000
  Zn  Zn2       1.0  0.05686303581639151  0.09974362323141861  0.4571226163426729  1.0000
  Zn  Zn3       1.0  0.9431306604412125  0.9860245064213087  0.457109866343508  1.0000
  Zn  Zn4       1.0  0.9431474142926175  0.9571147387570844  0.5997494171781098  1.0000
  Zn  Zn5       1.0  0.9431365753546858  0.5428816030845239  0.013972314800575768  1.0000
  Zn  Zn6       1.0  0.0568703570512668  0.5139777522875234  0.04288948433696047  1.0000
  Zn  Zn7       1.0  0.943135627768818  0.4002533324264447  0.04288341803521693  1.0000
  Zn  Zn8       1.0  0.056850125358685964  0.5428795606060746  0.9002520978797008  1.0000
  H   H1        1.0  0.9236991796312566  0.7148581299570294  0.17524875332208717  1.0000
  H   H2        1.0  0.0762827542112846  0.6752361002555176  0.21490218680656872  1.0000
  H   H3        1.0  0.9237076601411974  0.8247529072551459  0.28511064523006263  1.0000
  H   H4        1.0  0.07624049238567215  0.7850648296448313  0.32482779505374987  1.0000
  H   H5        1.0  0.0763030766924331  0.4010209885255803  0.7088517678525292  1.0000
  H   H6        1.0  0.9237185518627057  0.20881719807274365  0.90105782405076  1.0000
  H   H7        1.0  0.07624172540396049  0.29117169594687914  0.5989542270956747  1.0000
  H   H8        1.0  0.9237085230702107  0.09895266013840126  0.7911726503765452  1.0000
  H   H9        1.0  0.6098748268710495  0.40103981025094254  0.1752152622622988  1.0000
  H   H10       1.0  0.6098744538770333  0.20882199956532332  0.21490241760545087  1.0000
  H   H11       1.0  0.39012694281539245  0.2911803507739421  0.28508644270425515  1.0000
  H   H12       1.0  0.3901236866410401  0.09897654091441403  0.324704556424983  1.0000
  H   H13       1.0  0.39013417074988144  0.675194502148116  0.9010412346490994  1.0000
  H   H14       1.0  0.39011292161274014  0.7148895008481944  0.7088153141783662  1.0000
  H   H15       1.0  0.609889142313051  0.785100492589386  0.7911848858064444  1.0000
  H   H16       1.0  0.6098643220097484  0.8247258604058768  0.5989744215548926  1.0000
  C   C1        1.0  0.18095284616757815  0.09048301346726359  0.4095298891365928  1.0000
  C   C2        1.0  0.9999973753836573  0.13738360723974793  0.3626161377860271  1.0000
  C   C3        1.0  0.9999921968766259  0.9095248996496111  0.4095270436370413  1.0000
  C   C4        1.0  0.8190502946325964  0.9095199415333892  0.5904876211760379  1.0000
  C   C5        1.0  1.3272775520982237e-06  0.8626113255240712  0.6373866888048524  1.0000
  C   C6        1.0  0.9999970210475622  0.09047182829773716  0.5904817457326602  1.0000
  C   C7        1.0  1.99932241443209e-06  0.5904663411020152  0.09048292595942081  1.0000
  C   C8        1.0  6.2945424019806105e-06  0.3626188942536288  0.1373845104239351  1.0000
  C   C9        1.0  0.8190471951948766  0.4095189990375303  0.09046494363570905  1.0000
  C   C10       1.0  0.9999869522365257  0.4095115104672331  0.9095346521703078  1.0000
  C   C11       1.0  0.99999995060017  0.6373861950767006  0.8626140895027137  1.0000
  C   C12       1.0  0.18094949596765988  0.5904698607466796  0.9095116675811498  1.0000
  C   C13       1.0  1.7128000493857757e-06  0.8051847132118298  0.6948132490555778  1.0000
  C   C14       1.0  5.032693977714908e-07  0.6948133597115174  0.8051869599042476  1.0000
  C   C15       1.0  0.9578965444210681  0.7766541604635008  0.7654480064264819  1.0000
  C   C16       1.0  0.04210652596549359  0.7233441147851064  0.7345523499424758  1.0000
  C   C17       1.0  0.9578945541176722  0.7233418079959648  0.8187606626968175  1.0000
  C   C18       1.0  0.04210716098840813  0.776656150958459  0.6812398094648414  1.0000
  C   C19       1.0  0.9999994164166212  0.19481213188299756  0.30518808588853824  1.0000
  C   C20       1.0  4.931151451606626e-06  0.30519052852676515  0.19481229525829485  1.0000
  C   C21       1.0  0.9578953105044405  0.18124478742651445  0.27664727851536947  1.0000
  C   C22       1.0  0.04210835942868841  0.3187577171440452  0.22335253302746588  1.0000
  C   C23       1.0  0.9578972572018427  0.23455813404505924  0.22333507460070479  1.0000
  C   C24       1.0  0.0421066531449341  0.26544409108823436  0.2766647760249085  1.0000
  C   C25       1.0  0.9999984584033753  0.6279649477496461  0.12798504382330134  1.0000
  C   C26       1.0  0.9573337248720293  0.658110479249558  0.13582857387662278  1.0000
  C   C27       1.0  0.9572138728051769  0.692784477091422  0.17056011087894518  1.0000
  C   C28       1.0  0.9999894705450103  0.6995087980960901  0.19954005473407233  1.0000
  C   C29       1.0  0.04276906627846006  0.6705410941447313  0.1928216373967543  1.0000
  C   C30       1.0  0.042658476774207046  0.6358141973563035  0.15814370419517593  1.0000
  C   C31       1.0  0.9999847021506768  0.7347626286905322  0.23480292339015568  1.0000
  C   C32       1.0  0.9999799166803172  0.765194099175659  0.2652414560810497  1.0000
  C   C33       1.0  0.9999797173984817  0.8004530372519553  0.30049924471511963  1.0000
  C   C34       1.0  0.9572122970398311  0.8294357008686505  0.3072029599739493  1.0000
  C   C35       1.0  0.9573285705198842  0.8641682993317872  0.3418760766115909  1.0000
  C   C36       1.0  0.9999836496081045  0.8720093342644759  0.37204165147524987  1.0000
  C   C37       1.0  0.04262509807279025  0.8418337962185805  0.36422453211793737  1.0000
  C   C38       1.0  0.04274097145717088  0.8071568381132792  0.329498712785842  1.0000
  C   C39       1.0  3.323441511281833e-06  0.3720064775130396  0.8720400100607151  1.0000
  C   C40       1.0  0.04267197023540355  0.4068168327019706  0.7992320166934519  1.0000
  C   C41       1.0  0.042788288628990756  0.37220292754614787  0.7644399989634394  1.0000
  C   C42       1.0  5.665651826850732e-06  0.3004580355480115  0.8004917510506004  1.0000
  C   C43       1.0  0.9572320506583409  0.26440518853967615  0.8722400347328191  1.0000
  C   C44       1.0  0.9573473914092291  0.2991958000298779  0.9068535529089486  1.0000
  C   C45       1.0  0.9999963366578083  0.2652019160395153  0.7652324292133204  1.0000
  C   C46       1.0  0.9999861056862615  0.23477467393828969  0.7347896248319402  1.0000
  C   C47       1.0  0.9999791797954527  0.19952214144824137  0.6995268306683685  1.0000
  C   C48       1.0  0.04274040170307809  0.2355818408080523  0.6277741117544551  1.0000
  C   C49       1.0  0.04262462372029322  0.20079078942559653  0.5931613180578026  1.0000
  C   C50       1.0  0.999983904962306  0.12797660904242047  0.6279766957000277  1.0000
  C   C51       1.0  0.9573273672346333  0.09316067509029564  0.7007895375718717  1.0000
  C   C52       1.0  0.9572110924399767  0.12777358301792666  0.735581939613347  1.0000
  C   C53       1.0  0.7440478229898417  0.3720179185107354  0.12797340951281208  1.0000
  C   C54       1.0  0.7060490758045646  0.4068315628933019  0.13580947359478296  1.0000
  C   C55       1.0  0.6366442847113376  0.37221930353065613  0.1705348063718616  1.0000
  C   C56       1.0  0.6009514307272853  0.3004691009097655  0.19951846028501308  1.0000
  C   C57       1.0  0.6366442976081075  0.2644123730509946  0.19281465902793124  1.0000
  C   C58       1.0  0.706048781128999  0.2992034409212606  0.158139297850262  1.0000
  C   C59       1.0  0.5304355243015523  0.2652157032144871  0.23476526747781173  1.0000
  C   C60       1.0  0.46956648553327074  0.23479362875006152  0.2651876263198857  1.0000
  C   C61       1.0  0.3990504258387304  0.19953849295677625  0.3004414380562679  1.0000
  C   C62       1.0  0.3633570119783657  0.2355920117480608  0.3071625559862312  1.0000
  C   C63       1.0  0.2939529656504902  0.20080136684553196  0.3418417943536269  1.0000
  C   C64       1.0  0.25595291858562064  0.12798902577362273  0.3720012853786443  1.0000
  C   C65       1.0  0.293948977841012  0.09317954782195408  0.3641384703938115  1.0000
  C   C66       1.0  0.3633550370804883  0.12779414562983502  0.32940472319697983  1.0000
  C   C67       1.0  0.25595092220795834  0.6279656833188696  0.872013033971868  1.0000
  C   C68       1.0  0.29395566479972507  0.6357922431469804  0.9068302557850814  1.0000
  C   C69       1.0  0.36335959372283355  0.6705175581291768  0.8722188601884255  1.0000
  C   C70       1.0  0.3990487345722684  0.6995081345170105  0.8004654985016301  1.0000
  C   C71       1.0  0.36334909391587195  0.6928021492040274  0.7644067550091832  1.0000
  C   C72       1.0  0.29394381421805355  0.6581278356586963  0.799197483539153  1.0000
  C   C73       1.0  0.46956551548654335  0.7347624227669342  0.7652143140149477  1.0000
  C   C74       1.0  0.5304355606837917  0.7651927651950529  0.7347958765590833  1.0000
  C   C75       1.0  0.6009514023695459  0.8004528809749516  0.6995418165996624  1.0000
  C   C76       1.0  0.6366525315601519  0.80717700293723  0.7355958087142013  1.0000
  C   C77       1.0  0.7060567188066071  0.8418554259162362  0.7008037709187604  1.0000
  C   C78       1.0  0.7440498063994098  0.8720078884885465  0.627991187850718  1.0000
  C   C79       1.0  0.7060448421417291  0.8641551028962341  0.5931790539253327  1.0000
  C   C80       1.0  0.6366394695047434  0.8294210569792143  0.6277935276186994  1.0000
  Br  Br1       1.0  0.8949890553690381  0.6564923766261684  0.1012887727892321  1.0000
  Br  Br2       1.0  0.10500895591640362  0.6012930360068154  0.1565304749947529  1.0000
  Br  Br3       1.0  0.8949931764358467  0.8987098153562839  0.3434695574773626  1.0000
  Br  Br4       1.0  0.1049361656292687  0.843411382906673  0.398807290880228  1.0000
  Br  Br5       1.0  0.1050267967868307  0.5036856324497164  0.7385113514862098  1.0000
  Br  Br6       1.0  0.8950088121180427  0.23846680550168026  0.003728302646628404  1.0000
  Br  Br7       1.0  0.10494344431565855  0.2615216685092179  0.4962812793111482  1.0000
  Br  Br8       1.0  0.894989975761753  0.9962862273092056  0.7615162985394832  1.0000
  Br  Br9       1.0  0.7421971857582293  0.5037061645650309  0.10126533735051879  1.0000
  Br  Br10      1.0  0.7421950288214488  0.23847213787010438  0.15654771145721474  1.0000
  Br  Br11      1.0  0.2578060177662423  0.26152774734867285  0.34345100862613975  1.0000
  Br  Br12      1.0  0.2577995061957524  0.9963118254442449  0.3986500955361762  1.0000
  Br  Br13      1.0  0.2578162196175313  0.6012385701082296  0.0037104680473305797  1.0000
  Br  Br14      1.0  0.2577916570693546  0.6565365770970217  0.7384602998853396  1.0000
  Br  Br15      1.0  0.7422095996461092  0.8434666551286224  0.7615361199684473  1.0000
  Br  Br16      1.0  0.7421825147711512  0.8986802708245489  0.49630526881394127  1.0000
  O   O1        1.0  0.9999992613253994  0.9999998163939806  0.5000002769765999  1.0000
  O   O2        1.0  0.15163516796597784  0.0253345774291418  0.4352641739626222  1.0000
  O   O3        1.0  0.040079869585596756  0.15573926025072637  0.3843433542469015  1.0000
  O   O4        1.0  0.9605517174755461  0.9352258194132826  0.41313814179700625  1.0000
  O   O5        1.0  0.15163346586466278  0.12630560076983946  0.413139710461607  1.0000
  O   O6        1.0  0.03944785928804635  0.9131587073224524  0.4352186207149556  1.0000
  O   O7        1.0  0.9599144610205742  0.07558432695186192  0.3843319052626341  1.0000
  O   O8        1.0  0.8483638105933621  0.9352465503900758  0.5253391284049727  1.0000
  O   O9        1.0  0.9599279845855974  0.8843374558914903  0.6557452809365075  1.0000
  O   O10       1.0  0.8483728753132095  0.9131202083843915  0.6263165331451647  1.0000
  O   O11       1.0  0.04007867514834376  0.8843303317292311  0.5755842688584848  1.0000
  O   O12       1.0  0.0394357408034836  0.12629520890912  0.5253397610202484  1.0000
  O   O13       1.0  0.9605725599783738  0.025326320453416405  0.626308718700166  1.0000
  O   O14       1.0  3.348651276983423e-07  0.4999984150065586  1.1059931920486647e-06  1.0000
  O   O15       1.0  0.9605711506418191  0.5868652579792625  0.06475998648321006  1.0000
  O   O16       1.0  0.04009215992252291  0.4244185461557067  0.11566353044193528  1.0000
  O   O17       1.0  0.8483656574951581  0.3736965553347246  0.08684907528760985  1.0000
  O   O18       1.0  0.03942988625286856  0.5647506946242371  0.08688691299003888  1.0000
  O   O19       1.0  0.8483666868837787  0.474662398091816  0.06475634867010159  1.0000
  O   O20       1.0  0.9599189036058603  0.34426040303868893  0.11566282128008257  1.0000
  O   O21       1.0  0.9605618265873161  0.37368625555480844  0.9746790777084938  1.0000
  O   O22       1.0  0.040075282608618985  0.6156615340708599  0.8442555668708921  1.0000
  O   O23       1.0  0.03939829671012533  0.47466068126895783  0.873702994495673  1.0000
  O   O24       1.0  0.9599197389632224  0.6156648458798416  0.9244162155739488  1.0000
  O   O25       1.0  0.151636093280878  0.5647771698881385  0.9746537103897593  1.0000
  O   O26       1.0  0.151626147993774  0.5868506189345766  0.873687624238265  1.0000
  F   F1        1.0  0.9152720612803694  0.7992250860591528  0.7854954417103739  1.0000
  F   F2        1.0  0.0847305718778274  0.7007727508357959  0.7145052208044901  1.0000
  F   F3        1.0  0.915270425276077  0.7007656030264611  0.883956557283071  1.0000
  F   F4        1.0  0.08473041538034928  0.7992314822978344  0.6160436905032822  1.0000
  F   F5        1.0  0.9152705659782683  0.11605134037371574  0.2992137895546562  1.0000
  F   F6        1.0  0.08473286354121963  0.38395144363411754  0.20078598290540836  1.0000
  F   F7        1.0  0.9152752625634336  0.21451388418903147  0.20075262262841412  1.0000
  F   F8        1.0  0.08472869138227415  0.2854873437160562  0.2992476123086547  1.0000
