data_image0
_chemical_formula_structural       Yb4H36C60O28
_chemical_formula_sum              "Yb4 H36 C60 O28"
_cell_length_a       14.47873429924624
_cell_length_b       14.737656434504768
_cell_length_c       14.737614676471033
_cell_angle_alpha    89.99919582833728
_cell_angle_beta     89.99956079112985
_cell_angle_gamma    89.99949684015974

_space_group_name_H-M_alt    "P 1"
_space_group_IT_number       1

loop_
  _space_group_symop_operation_xyz
  'x, y, z'

loop_
  _atom_site_type_symbol
  _atom_site_label
  _atom_site_symmetry_multiplicity
  _atom_site_fract_x
  _atom_site_fract_y
  _atom_site_fract_z
  _atom_site_occupancy
  Yb  Yb1       1.0  0.48251634298797086  0.6300144527834987  0.4133354130300899  1.0000
  Yb  Yb2       1.0  0.9825156440862698  0.36998194673949325  0.5866619103499389  1.0000
  Yb  Yb3       1.0  0.23251593865501258  0.5866617997915855  0.6300148713706262  1.0000
  Yb  Yb4       1.0  0.7325213768736418  0.4133387936985572  0.3699816216355669  1.0000
  H   H1        1.0  0.5969664275786356  0.575986797035405  0.25618917070292463  1.0000
  H   H2        1.0  0.09696362685114929  0.42401496677295825  0.7438056295857078  1.0000
  H   H3        1.0  0.34696260602567713  0.7438074299334546  0.5759842412516248  1.0000
  H   H4        1.0  0.8469717892808645  0.2561921754440135  0.424014782039407  1.0000
  H   H5        1.0  0.5744467397009314  0.6827583206614493  0.25039313150745096  1.0000
  H   H6        1.0  0.0744420848131924  0.31724431606444636  0.749608623832678  1.0000
  H   H7        1.0  0.32443809554826686  0.7496028147406053  0.6827552951777847  1.0000
  H   H8        1.0  0.8244474725324054  0.25039427096037775  0.31724457639447207  1.0000
  H   H9        1.0  0.10044732202049288  0.5287235809477836  0.4556449525573355  1.0000
  H   H10       1.0  0.6004495015914486  0.4712754386177879  0.5443545712532794  1.0000
  H   H11       1.0  0.8504524425676081  0.5443613947681242  0.5287216859071576  1.0000
  H   H12       1.0  0.35045562862023155  0.45564089468440033  0.4712712042680422  1.0000
  H   H13       1.0  0.9789148094347836  0.4902596176823551  0.19254099137132386  1.0000
  H   H14       1.0  0.47890936526477645  0.5097388485423978  0.8074583947582069  1.0000
  H   H15       1.0  0.7289207668113845  0.8074664364556768  0.4902520640808205  1.0000
  H   H16       1.0  0.22892185902371406  0.1925402948927015  0.509745134525147  1.0000
  H   H17       1.0  0.2494774746714015  0.6122256656541296  0.21859323231817024  1.0000
  H   H18       1.0  0.7494764795294272  0.38777749553867125  0.7814065255636676  1.0000
  H   H19       1.0  0.9994806595354079  0.7814066737908122  0.612235689763736  1.0000
  H   H20       1.0  0.49948592357537785  0.21858957918825445  0.3877696481943217  1.0000
  H   H21       1.0  0.18059654318499702  0.6967829883994625  0.0988014641530697  1.0000
  H   H22       1.0  0.6805988225532501  0.3032153391849165  0.9011994913230621  1.0000
  H   H23       1.0  0.9305939392786866  0.9011920443918343  0.6967874617917501  1.0000
  H   H24       1.0  0.4305981700136456  0.09879937506643441  0.30321635967703026  1.0000
  H   H25       1.0  0.2128888966434772  0.7048373019417372  0.9326404295548156  1.0000
  H   H26       1.0  0.712894987716041  0.2951648180487823  0.06735824694096237  1.0000
  H   H27       1.0  0.9628801499764349  0.06735235336839912  0.7048446982525076  1.0000
  H   H28       1.0  0.4628839018777028  0.9326401443651664  0.2951663438194102  1.0000
  H   H29       1.0  0.10270932583171088  0.43620982164428324  0.8990205995800551  1.0000
  H   H30       1.0  0.6027141365384807  0.5637939281375568  0.10097619299919808  1.0000
  H   H31       1.0  0.852709814892428  0.10098285592274439  0.436211174583974  1.0000
  H   H32       1.0  0.35271108163867376  0.8990194139348092  0.5637979834492339  1.0000
  H   H33       1.0  0.07066147658064639  0.42729445441725755  0.06419369109234908  1.0000
  H   H34       1.0  0.5706610788479267  0.5727068579261856  0.9358047000847518  1.0000
  H   H35       1.0  0.8206625742915603  0.9358098188029519  0.427296939507471  1.0000
  H   H36       1.0  0.3206650126512328  0.06419204920901932  0.5727104244013856  1.0000
  C   C1        1.0  0.181523697637175  0.57634828530815  0.34262941618993636  1.0000
  C   C2        1.0  0.681524039955029  0.42365342696398045  0.6573694966758052  1.0000
  C   C3        1.0  0.9315251371027101  0.6573718943284349  0.5763531259869976  1.0000
  C   C4        1.0  0.4315310853968271  0.34262630245562065  0.4236459386599236  1.0000
  C   C5        1.0  0.10410811524829458  0.536185916839628  0.3823989762724692  1.0000
  C   C6        1.0  0.6041090996056012  0.4638151067132485  0.617602555551066  1.0000
  C   C7        1.0  0.8541126272902486  0.6176070291698963  0.536186409597299  1.0000
  C   C8        1.0  0.3541144537927606  0.3823972642568449  0.4638112027394568  1.0000
  C   C9        1.0  0.0320054818368121  0.5043586185238454  0.32801075115297346  1.0000
  C   C10       1.0  0.5320057577716709  0.49564167047017804  0.6719899669199448  1.0000
  C   C11       1.0  0.7820074488744453  0.6719947727919047  0.5043521113339651  1.0000
  C   C12       1.0  0.28201089429187226  0.3280067504718289  0.4956467228844302  1.0000
  C   C13       1.0  0.0369109335563778  0.5136701030811396  0.23352319220771275  1.0000
  C   C14       1.0  0.5369077931642393  0.4863308221199888  0.7664761318379688  1.0000
  C   C15       1.0  0.7869176407831516  0.7664805365391205  0.5136690841467126  1.0000
  C   C16       1.0  0.28692131216359223  0.23352501552568578  0.48633107011462323  1.0000
  C   C17       1.0  0.11473125454666899  0.5532014409340248  0.19265779962006485  1.0000
  C   C18       1.0  0.6147295299213197  0.44680016945460477  0.8073429736254167  1.0000
  C   C19       1.0  0.8647341890062845  0.8073419152291237  0.5532033959007023  1.0000
  C   C20       1.0  0.3647378430191495  0.19265821523749344  0.446800921780543  1.0000
  C   C21       1.0  0.1868490824325093  0.5839729314924043  0.24831285853611715  1.0000
  C   C22       1.0  0.6868494480304363  0.4160280562691058  0.7516860142063775  1.0000
  C   C23       1.0  0.9368511185737629  0.751685999066588  0.5839785085470763  1.0000
  C   C24       1.0  0.4368552061042124  0.24831215170566173  0.41602594426128536  1.0000
  C   C25       1.0  0.26067390339752444  0.6064540897586211  0.40027392041397286  1.0000
  C   C26       1.0  0.7606742734924126  0.3935462606236798  0.5997264316501116  1.0000
  C   C27       1.0  0.010671304460835498  0.5997185942218837  0.6064527794124073  1.0000
  C   C28       1.0  0.5106732222276662  0.40028052190437086  0.3935453852780596  1.0000
  C   C29       1.0  0.9498087942467847  0.461312904697408  0.37201946655719803  1.0000
  C   C30       1.0  0.44980863512864744  0.5386864913388649  0.6279781032601901  1.0000
  C   C31       1.0  0.6998107112866095  0.6279857187602716  0.461302343898751  1.0000
  C   C32       1.0  0.19980790254441416  0.3720192283574735  0.5386903243357466  1.0000
  C   C33       1.0  0.12486509061905339  0.5608512081732615  0.09320335016646197  1.0000
  C   C34       1.0  0.6248633494458247  0.43914895767638046  0.9067946325845353  1.0000
  C   C35       1.0  0.8748685787823192  0.9067958935904911  0.5608531515652473  1.0000
  C   C36       1.0  0.3748683461600208  0.09320211379608173  0.43915108978011114  1.0000
  C   C37       1.0  0.16415492556529904  0.6393780391298947  0.05496240578323609  1.0000
  C   C38       1.0  0.6641570409700461  0.3606211089565079  0.9450359594364668  1.0000
  C   C39       1.0  0.9141519223635796  0.945033274244523  0.639381725526057  1.0000
  C   C40       1.0  0.41415333434068197  0.05496303688666162  0.36062629102929816  1.0000
  C   C41       1.0  0.18199339358152858  0.6444131002008292  0.9625277603406912  1.0000
  C   C42       1.0  0.6819977966469536  0.3555879294647256  0.037471148975257086  1.0000
  C   C43       1.0  0.9319890066617446  0.03746620509035381  0.6444214063310909  1.0000
  C   C44       1.0  0.4319906390744562  0.9625279164324922  0.3555878329031542  1.0000
  C   C45       1.0  0.16143758908057038  0.5706542337791448  0.9058685757617082  1.0000
  C   C46       1.0  0.6614402007850799  0.42934697336697536  0.09412980991755397  1.0000
  C   C47       1.0  0.9114340676936266  0.09412846618059231  0.5706574531538847  1.0000
  C   C48       1.0  0.41143424968025494  0.9058678684251975  0.42934990534986633  1.0000
  C   C49       1.0  0.11939475032644249  0.49333657057221825  0.9429132633163204  1.0000
  C   C50       1.0  0.619396960259948  0.5066663566193982  0.057085439156800484  1.0000
  C   C51       1.0  0.8693935669704229  0.05708530864330191  0.4933414247762896  1.0000
  C   C52       1.0  0.36939488713488794  0.9429120674376963  0.5066676075743715  1.0000
  C   C53       1.0  0.10079999835791399  0.48875409426196387  0.0354388322369701  1.0000
  C   C54       1.0  0.6007985440439896  0.5112462793423376  0.9645606889203222  1.0000
  C   C55       1.0  0.85080158104207  0.9645655255126899  0.4887577235206634  1.0000
  C   C56       1.0  0.35080199287934727  0.035435403769668014  0.5112494132966674  1.0000
  C   C57       1.0  0.18743124342348239  0.5748902126714057  0.8086457949436647  1.0000
  C   C58       1.0  0.6874331347938564  0.4251128056592464  0.19135307339208646  1.0000
  C   C59       1.0  0.9374289831357315  0.19135070191377682  0.5748948079000016  1.0000
  C   C60       1.0  0.43743213863382385  0.8086440512086099  0.42510896204549187  1.0000
  O   O1        1.0  0.3382353339962449  0.6194031678913775  0.3616078500593574  1.0000
  O   O2        1.0  0.8382368995953796  0.3805937987394615  0.638389881969587  1.0000
  O   O3        1.0  0.0882441603005617  0.6383939242614218  0.6193925730577658  1.0000
  O   O4        1.0  0.5882499778035067  0.3616031650709317  0.38060297149174716  1.0000
  O   O5        1.0  0.24777184996998605  0.6160622700289126  0.4849829964842057  1.0000
  O   O6        1.0  0.7477736571245684  0.3839436200320493  0.5150140600768509  1.0000
  O   O7        1.0  0.9977814094983585  0.5150169458532262  0.616064507838054  1.0000
  O   O8        1.0  0.4977829425471043  0.48497932186000287  0.383934057579708  1.0000
  O   O9        1.0  0.8741027701035122  0.4595479941771288  0.32813477910730166  1.0000
  O   O10       1.0  0.3740994903258041  0.5404534125657677  0.6718606470301224  1.0000
  O   O11       1.0  0.6241091538094494  0.6718546338981073  0.4595293070628443  1.0000
  O   O12       1.0  0.1241081044735637  0.328144859998119  0.540460538956175  1.0000
  O   O13       1.0  0.9590877531029349  0.42922375756647585  0.45164583957368615  1.0000
  O   O14       1.0  0.45909138163352026  0.5707742012711352  0.5483523388558564  1.0000
  O   O15       1.0  0.709108275463798  0.5483551969604292  0.42920608606133454  1.0000
  O   O16       1.0  0.2091003611644737  0.45164559875782834  0.5707790482673971  1.0000
  O   O17       1.0  0.2258881430259123  0.6458737435452309  0.7763800933893348  1.0000
  O   O18       1.0  0.7258904168541774  0.3541282642378292  0.22361780663284486  1.0000
  O   O19       1.0  0.9758835810778875  0.22361636193703305  0.6458787867001801  1.0000
  O   O20       1.0  0.47589103164961694  0.7763814518110195  0.3541287646567638  1.0000
  O   O21       1.0  0.17311075262897188  0.5065894218576547  0.7554694731216784  1.0000
  O   O22       1.0  0.6731116192192631  0.49341304157435684  0.2445301816665476  1.0000
  O   O23       1.0  0.923112152793415  0.24452591187949932  0.5065896766581088  1.0000
  O   O24       1.0  0.4231111066266422  0.7554676078067077  0.4934128441214226  1.0000
  O   O25       1.0  0.5503840439691103  0.624626923972649  0.27053596702140936  1.0000
  O   O26       1.0  0.050381789598262096  0.37537456346260717  0.7294598628140887  1.0000
  O   O27       1.0  0.30037898869282037  0.7294583325731383  0.6246246818115466  1.0000
  O   O28       1.0  0.8003904950672761  0.27054574618127  0.3753740139239169  1.0000
