data_image0
_chemical_formula_structural       H8Pb2C20N8O8
_chemical_formula_sum              "H8 Pb2 C20 N8 O8"
_cell_length_a       3.9613220254965014
_cell_length_b       9.038830365610313
_cell_length_c       14.49523845362317
_cell_angle_alpha    90.00086520705852
_cell_angle_beta     90.00118883858792
_cell_angle_gamma    90.00004407970766

_space_group_name_H-M_alt    "P 1"
_space_group_IT_number       1

loop_
  _space_group_symop_operation_xyz
  'x, y, z'

loop_
  _atom_site_type_symbol
  _atom_site_label
  _atom_site_symmetry_multiplicity
  _atom_site_fract_x
  _atom_site_fract_y
  _atom_site_fract_z
  _atom_site_occupancy
  H   H1        1.0  0.5554972896799625  0.8905692381609782  0.7839059537288264  1.0000
  H   H2        1.0  0.4444072442753324  0.39054503526411116  0.7160942268531514  1.0000
  H   H3        1.0  0.4444936172867884  0.3905865581336628  0.28391920535307247  1.0000
  H   H4        1.0  0.5555715064505905  0.890578861737474  0.21606983141076347  1.0000
  H   H5        1.0  0.15846125128902602  0.3023085235591623  0.9237020041152919  1.0000
  H   H6        1.0  0.8417275563364441  0.8024112470703033  0.5763102206932447  1.0000
  H   H7        1.0  0.8415431679706842  0.8023572432626624  0.42369734555020244  1.0000
  H   H8        1.0  0.15832406777896324  0.302353929304708  0.0762809672319875  1.0000
  Pb  Pb1       1.0  0.6698556877332678  0.7222315908460646  7.221201883600002e-06  1.0000
  Pb  Pb2       1.0  0.33016418060940117  0.22223871698679434  0.4999943341534135  1.0000
  C   C1        1.0  0.6819616133203253  0.9834313681968396  0.8166697580181579  1.0000
  C   C2        1.0  0.3179487387311113  0.4834314957796834  0.6833226115700202  1.0000
  C   C3        1.0  0.31798179027971685  0.4834408454200273  0.3166973908552393  1.0000
  C   C4        1.0  0.6820588605863519  0.9834300176443097  0.18331211954077284  1.0000
  C   C5        1.0  0.7993348797785272  0.10284240050799551  0.7639385391365183  1.0000
  C   C6        1.0  0.20071165419377476  0.6029120327114726  0.736060748918085  1.0000
  C   C7        1.0  0.2006603606951458  0.6029292698075112  0.26396227174963377  1.0000
  C   C8        1.0  0.7993498601413122  0.10285528847896333  0.23604242881933865  1.0000
  C   C9        1.0  0.8721553221470587  0.09790269707574592  0.9490125976536066  1.0000
  C   C10       1.0  0.12795454974662596  0.5979699269179692  0.5509872822041403  1.0000
  C   C11       1.0  0.1279511050752689  0.5979490451998758  0.44902414389774503  1.0000
  C   C12       1.0  0.8721174052590686  0.09791830104303761  0.050968730235474914  1.0000
  C   C13       1.0  0.0129351902779149  0.21096640627013136  0.8943647974473736  1.0000
  C   C14       1.0  0.9871644230289011  0.7110372454455317  0.6056304325096991  1.0000
  C   C15       1.0  0.9870588342782795  0.7110154055643535  0.3943948589871909  1.0000
  C   C16       1.0  0.012873197650428403  0.21098628678289802  0.10561544109611283  1.0000
  C   C17       1.0  0.7102574777974054  0.1110323327837364  0.6628748079365041  1.0000
  C   C18       1.0  0.289844217390467  0.6110638168058814  0.8371446493853444  1.0000
  C   C19       1.0  0.2897961907145756  0.6110890733138846  0.16288599332804676  1.0000
  C   C20       1.0  0.7102136529029224  0.11103609479861383  0.33709610365589543  1.0000
  N   N1        1.0  0.7156024797492293  0.9824865916913416  0.907960522406299  1.0000
  N   N2        1.0  0.28429529369989837  0.48247115849428474  0.5920187204426598  1.0000
  N   N3        1.0  0.2843092710247603  0.48249132298555963  0.40800519040628563  1.0000
  N   N4        1.0  0.7156430698675749  0.9824799575741707  0.09202223774448731  1.0000
  N   N5        1.0  0.9746564289200847  0.2133430990179264  0.8027777710038606  1.0000
  N   N6        1.0  0.0253446230743322  0.7134255492582755  0.6972306137851662  1.0000
  N   N7        1.0  0.025265661857673604  0.7133873636801342  0.30279005127593456  1.0000
  N   N8        1.0  0.9746157713786588  0.21337932550299143  0.19719890970437606  1.0000
  O   O1        1.0  0.5218720181765094  0.012312956341361304  0.6294063812976846  1.0000
  O   O2        1.0  0.4781660657229665  0.5123074214672414  0.870563510022798  1.0000
  O   O3        1.0  0.47818898896401413  0.5123006854613836  0.12945600532341223  1.0000
  O   O4        1.0  0.5218910408433004  0.012321052935668304  0.37056896995530053  1.0000
  O   O5        1.0  0.8150870108585695  0.22494696865064873  0.6175551811989308  1.0000
  O   O6        1.0  0.18479738449698152  0.7249828616171927  0.8824472246332393  1.0000
  O   O7        1.0  0.1847917360664724  0.724987221182268  0.11757674419387602  1.0000
  O   O8        1.0  0.8151093592425553  0.22495171398620079  0.3824310741104284  1.0000
