data_image0
_chemical_formula_structural       Ni2H26C36N6O14
_chemical_formula_sum              "Ni2 H26 C36 N6 O14"
_cell_length_a       8.5527102984048
_cell_length_b       10.886724713009611
_cell_length_c       11.36802537848513
_cell_angle_alpha    107.30118930995408
_cell_angle_beta     107.82804306381706
_cell_angle_gamma    108.03791693439571

_space_group_name_H-M_alt    "P 1"
_space_group_IT_number       1

loop_
  _space_group_symop_operation_xyz
  'x, y, z'

loop_
  _atom_site_type_symbol
  _atom_site_label
  _atom_site_symmetry_multiplicity
  _atom_site_fract_x
  _atom_site_fract_y
  _atom_site_fract_z
  _atom_site_occupancy
  Ni  Ni1       1.0  0.6724260862278083  0.9639421051267186  0.3526286650906198  1.0000
  Ni  Ni2       1.0  0.32610882631355054  0.043372032063999186  0.651539885457666  1.0000
  H   H1        1.0  0.6888081567881837  0.5187955056302439  0.791264542462187  1.0000
  H   H2        1.0  0.32987148003747535  0.48011414454247586  0.2008987015590192  1.0000
  H   H3        1.0  0.9057625944379168  0.555187982561108  0.6837561795821897  1.0000
  H   H4        1.0  0.10206387838350377  0.4484139495471308  0.29973677516994707  1.0000
  H   H5        1.0  0.8910844234918327  0.6927561977625627  0.5454531875834333  1.0000
  H   H6        1.0  0.10467513108443427  0.31354008935184646  0.4412770456482916  1.0000
  H   H7        1.0  0.6203645409037575  0.05028098758829457  0.12104142740205497  1.0000
  H   H8        1.0  0.38510241847452426  0.9478979729477075  0.8777507762833635  1.0000
  H   H9        1.0  0.7500163236741599  0.05863531308899889  0.9550177911754716  1.0000
  H   H10       1.0  0.2510427301987831  0.9336393997436256  0.041241247991187745  1.0000
  H   H11       1.0  0.1324636862180097  0.9259934381164706  0.16787547068794573  1.0000
  H   H12       1.0  0.8738066423945697  0.07322904751734428  0.83373875743019  1.0000
  H   H13       1.0  0.9743298961736283  0.9085030937304448  0.3135497654441364  1.0000
  H   H14       1.0  0.03538980057967928  0.09608390286533819  0.6910164769719315  1.0000
  H   H15       1.0  0.5197031092384136  0.7018767974019081  0.07549427083954179  1.0000
  H   H16       1.0  0.4680630487582249  0.2977070480299772  0.9201023909627891  1.0000
  H   H17       1.0  0.22291661852769093  0.4978296215429622  0.9173458585383827  1.0000
  H   H18       1.0  0.7665150246409952  0.5003154349061206  0.07658130870083815  1.0000
  H   H19       1.0  0.01136686202386268  0.6617014181095583  0.19953989199349548  1.0000
  H   H20       1.0  0.9766150181578225  0.3254771148885495  0.7982646776824609  1.0000
  H   H21       1.0  0.31704774827584686  0.864839958109037  0.34138165001559156  1.0000
  H   H22       1.0  0.6692493296277175  0.12480595142139347  0.6571861894281099  1.0000
  H   H23       1.0  0.012262371152843288  0.17121523655341514  0.5326337781093925  1.0000
  H   H24       1.0  0.9912347290249596  0.8468549735854151  0.4826893295036496  1.0000
  H   H25       1.0  0.843155299959264  0.2173731222883006  0.5175326249496877  1.0000
  H   H26       1.0  0.1608436819802036  0.7921959250004985  0.49922396748389986  1.0000
  C   C1        1.0  0.6777228544452213  0.7400885623048478  0.5787490346223123  1.0000
  C   C2        1.0  0.31584735159567856  0.2592554650255535  0.41373357995455246  1.0000
  C   C3        1.0  0.5538319287768658  0.7197522631817392  0.6379224934948552  1.0000
  C   C4        1.0  0.4400746227107036  0.2716374909893418  0.3549191022935005  1.0000
  C   C5        1.0  0.5639130235406498  0.6384827537733813  0.7133310775215874  1.0000
  C   C6        1.0  0.43995342937439835  0.3541788260541168  0.28037795395734116  1.0000
  C   C7        1.0  0.6898658128671897  0.5808755983461821  0.7320404115413554  1.0000
  C   C8        1.0  0.31991337159260513  0.41663034737065613  0.2585432495995477  1.0000
  C   C9        1.0  0.8096096942859745  0.601785511212796  0.6728732933349093  1.0000
  C   C10       1.0  0.19460671240434377  0.3987052605309955  0.3131657349060504  1.0000
  C   C11       1.0  0.8007651876419359  0.6793539215119109  0.5951534487337611  1.0000
  C   C12       1.0  0.19621691991344653  0.3227487773015909  0.39233765356782146  1.0000
  C   C13       1.0  0.6823870904220684  0.8276637286213171  0.4991581651121136  1.0000
  C   C14       1.0  0.3082940404332604  0.1855333851751837  0.5059000929792461  1.0000
  C   C15       1.0  0.41786412948371066  0.7831545743876872  0.618784593143566  1.0000
  C   C16       1.0  0.5801326233486748  0.2131112915483228  0.38571622702990277  1.0000
  C   C17       1.0  0.730687435435371  0.019464110391702098  0.12415286191345129  1.0000
  C   C18       1.0  0.2754731173609738  0.9791509118348637  0.8761208044282964  1.0000
  C   C19       1.0  0.8082240504790122  0.027101119856396794  0.03390309658917101  1.0000
  C   C20       1.0  0.19542392537301365  0.9685906191961847  0.9645636865905871  1.0000
  C   C21       1.0  0.9564436187146795  0.9929788843516643  0.04504337022787294  1.0000
  C   C22       1.0  0.0477674159732473  0.003259258163446098  0.9543532889140208  1.0000
  C   C23       1.0  0.015670988635264345  0.9503634882540194  0.1488449707107832  1.0000
  C   C24       1.0  0.9901911852268199  0.04835136643330879  0.8521937247266962  1.0000
  C   C25       1.0  0.928519646992413  0.9418058585585314  0.2330385937379448  1.0000
  C   C26       1.0  0.079238380908663  0.06005944026848199  0.7696966060844446  1.0000
  C   C27       1.0  0.40281086340542777  0.6901716235659235  0.0985122413326067  1.0000
  C   C28       1.0  0.5852563535094006  0.30682004343915276  0.898205894907541  1.0000
  C   C29       1.0  0.23364843927064516  0.5735171133598412  0.01032256149113661  1.0000
  C   C30       1.0  0.7553195257974821  0.42222123157785757  0.9850257617015074  1.0000
  C   C31       1.0  0.0851941571723812  0.5579186934945424  0.04286319720274176  1.0000
  C   C32       1.0  0.9038981565764599  0.4346134801047865  0.9533510788546733  1.0000
  C   C33       1.0  0.11762390110608575  0.6651949771670685  0.16526277950309518  1.0000
  C   C34       1.0  0.8705941407357753  0.32494079134880127  0.8322558799160047  1.0000
  C   C35       1.0  0.2894384157576439  0.7798569903875145  0.24690230958956488  1.0000
  C   C36       1.0  0.697828760689447  0.21153546015549546  0.7507781727112857  1.0000
  N   N1        1.0  0.44000556681049113  0.609449877412814  0.7770724491427855  1.0000
  N   N2        1.0  0.5752217457490189  0.3855137447147356  0.226486790218388  1.0000
  N   N3        1.0  0.7881700784179061  0.9766705455901245  0.222425984933423  1.0000
  N   N4        1.0  0.22021588271397968  0.025696443771977294  0.7804835272992818  1.0000
  N   N5        1.0  0.4312575121284681  0.7923374639534798  0.21473357699322554  1.0000
  N   N6        1.0  0.556051607599649  0.2026860063505467  0.7828981169719356  1.0000
  O   O1        1.0  0.7751364122783497  0.8258681570737065  0.4285133585913742  1.0000
  O   O2        1.0  0.22668602218665504  0.21023633672164266  0.5800531558907877  1.0000
  O   O3        1.0  0.5963222329819473  0.9036248393561479  0.5005469767487938  1.0000
  O   O4        1.0  0.38336089025499115  0.10062304040386748  0.5090461619047274  1.0000
  O   O5        1.0  0.47420117518649363  0.9091964036021948  0.7073069455191713  1.0000
  O   O6        1.0  0.531177320767476  0.08299874518002778  0.30791547657265983  1.0000
  O   O7        1.0  0.26346437899550773  0.7054557337348937  0.5151723694927098  1.0000
  O   O8        1.0  0.7311704761288383  0.3001983475023096  0.48828826066468883  1.0000
  O   O9        1.0  0.3299928116350656  0.6626050376375686  0.7683539293627459  1.0000
  O   O10       1.0  0.6574808414806554  0.3098516481936499  0.21425745600953408  1.0000
  O   O11       1.0  0.4522722426775019  0.5326421649221016  0.8386749384362275  1.0000
  O   O12       1.0  0.601013328251696  0.4884997599184187  0.19570899890963023  1.0000
  O   O13       1.0  0.8847248163481538  0.1400529682514672  0.5235843661975679  1.0000
  O   O14       1.0  0.11952211670157449  0.8723320340019071  0.49460017146646607  1.0000
