data_image0
_chemical_formula_structural       Zn2H18C36S2N6O14F4
_chemical_formula_sum              "Zn2 H18 C36 S2 N6 O14 F4"
_cell_length_a       11.026715295421607
_cell_length_b       15.958742992971093
_cell_length_c       17.298213833840574
_cell_angle_alpha    96.52658148220631
_cell_angle_beta     89.64769318252394
_cell_angle_gamma    91.82364888931869

_space_group_name_H-M_alt    "P 1"
_space_group_IT_number       1

loop_
  _space_group_symop_operation_xyz
  'x, y, z'

loop_
  _atom_site_type_symbol
  _atom_site_label
  _atom_site_symmetry_multiplicity
  _atom_site_fract_x
  _atom_site_fract_y
  _atom_site_fract_z
  _atom_site_occupancy
  Zn  Zn1       1.0  0.49806697125083593  0.41310800681908694  0.501551361126431  1.0000
  Zn  Zn2       1.0  0.5069084658109376  0.5904866620295268  0.5090766630628707  1.0000
  H   H1        1.0  0.391099515154707  0.7184223469714299  0.43000254176038777  1.0000
  H   H2        1.0  0.39223002008380103  0.8752713087830203  0.4298604604106586  1.0000
  H   H3        1.0  0.6732799776442276  0.8924336901099467  0.6057674210423014  1.0000
  H   H4        1.0  0.3430879288817081  0.10890771436440623  0.4019640078671216  1.0000
  H   H5        1.0  0.6243480465401277  0.127853737743493  0.5771167473861708  1.0000
  H   H6        1.0  0.621623973941965  0.28661603046093387  0.5773721556189813  1.0000
  H   H7        1.0  0.48662712408555814  0.6204785772432758  0.26648718614962513  1.0000
  H   H8        1.0  0.48554525673761617  0.6153178607545158  0.1207716640594469  1.0000
  H   H9        1.0  0.4866631129394818  0.343621772500775  0.10361622258104569  1.0000
  H   H10       1.0  0.5082685369302595  0.6577227491953863  0.9058250378955179  1.0000
  H   H11       1.0  0.48809965862906773  0.38623569984218886  0.8912226996566729  1.0000
  H   H12       1.0  0.4931044208458388  0.3795388500617277  0.7452747688922088  1.0000
  H   H13       1.0  0.7804596821186464  0.5939280927303942  0.385420007465889  1.0000
  H   H14       1.0  0.2298921115488852  0.6114365539348584  0.3957864885337371  1.0000
  H   H15       1.0  0.11517804375376528  0.4125410157641484  0.5721744636818684  1.0000
  H   H16       1.0  0.8879038747446371  0.4054680572509143  0.5691033432001689  1.0000
  H   H17       1.0  0.7772624895096099  0.803335111449883  0.349865060050682  1.0000
  H   H18       1.0  0.23891992351286012  0.6318929978442256  0.19956778141167317  1.0000
  C   C1        1.0  0.49363494571812067  0.4945280103149302  0.35427095727893476  1.0000
  C   C2        1.0  0.2664101296007644  0.5107245620341703  0.5027528827558143  1.0000
  C   C3        1.0  0.5050995810933543  0.5041695995017574  0.6560166664277175  1.0000
  C   C4        1.0  0.7384744123036525  0.4948702292725713  0.49611208666903645  1.0000
  C   C5        1.0  0.4508026307776233  0.7595889626305947  0.4683273332011452  1.0000
  C   C6        1.0  0.452057734329358  0.8462199263010106  0.46808418176761524  1.0000
  C   C7        1.0  0.532903127179182  0.8952869553519704  0.5184665604591103  1.0000
  C   C8        1.0  0.60957038914308  0.8560982216328626  0.5663772859469205  1.0000
  C   C9        1.0  0.6003435489727664  0.7685217485932371  0.5617021273397427  1.0000
  C   C10       1.0  0.40594374450039794  0.14587973915399027  0.4415205131434305  1.0000
  C   C11       1.0  0.4834972828588206  0.10744802995630212  0.4892657450492023  1.0000
  C   C12       1.0  0.5636513095566541  0.15725400438272175  0.5396832941298157  1.0000
  C   C13       1.0  0.5624299516671982  0.24385726111920292  0.5399733217655225  1.0000
  C   C14       1.0  0.4125954304899366  0.2335825219486978  0.4468585479612983  1.0000
  C   C15       1.0  0.4874582052299062  0.48649512738631273  0.2672090173702415  1.0000
  C   C16       1.0  0.4848752798685679  0.560467969996644  0.2295732891167859  1.0000
  C   C17       1.0  0.48391321477362953  0.5578695112297894  0.14927477103918824  1.0000
  C   C18       1.0  0.4855575635986611  0.47902299109678387  0.1034142548919661  1.0000
  C   C19       1.0  0.4859311317304745  0.40454255564197444  0.1390614229754377  1.0000
  C   C20       1.0  0.486932038073462  0.4090650488540248  0.21969788159927361  1.0000
  C   C21       1.0  0.5050183968943925  0.5964489764900804  0.8708972938607573  1.0000
  C   C22       1.0  0.49746922989846354  0.5224277444490754  0.9072485335326305  1.0000
  C   C23       1.0  0.4936867361304635  0.4431973093086229  0.862062520160215  1.0000
  C   C24       1.0  0.49676049298859937  0.4398499288875897  0.781812997511679  1.0000
  C   C25       1.0  0.5038824948306058  0.513202819194106  0.7432489640938015  1.0000
  C   C26       1.0  0.508338317399449  0.5910684585345367  0.7902109183843108  1.0000
  C   C27       1.0  0.8742572749648971  0.49722955099591104  0.4893624327536443  1.0000
  C   C28       1.0  0.9386739207566067  0.5507607276501716  0.44121085478176514  1.0000
  C   C29       1.0  0.9384708634291028  0.4472912143342499  0.5340987953098377  1.0000
  C   C30       1.0  0.8788769437316616  0.597750262417151  0.3886268862008464  1.0000
  C   C31       1.0  0.941390934398946  0.6482017566801375  0.3412540286508444  1.0000
  C   C32       1.0  0.13102517735854494  0.506223569293539  0.49374117391163  1.0000
  C   C33       1.0  0.0657199778328561  0.4515223229429425  0.5360960808373603  1.0000
  C   C34       1.0  0.0686781340536626  0.555558800108564  0.4437097792843119  1.0000
  C   C35       1.0  0.1312939762845886  0.6074358592823188  0.3940127886970686  1.0000
  C   C36       1.0  0.0710652278698731  0.6532751625879953  0.344038197823771  1.0000
  S   S1        1.0  0.8474433560801202  0.6999131990373328  0.2780733502561077  1.0000
  S   S2        1.0  0.16631860909630092  0.7184061082686315  0.2894540992142183  1.0000
  N   N1        1.0  0.5240107466724879  0.7209954298698874  0.5151286533251636  1.0000
  N   N2        1.0  0.5446264355584346  0.9846541330360452  0.5254871211158303  1.0000
  N   N3        1.0  0.47292313578770967  0.0181404588551644  0.4823005737022186  1.0000
  N   N4        1.0  0.4873407361438211  0.2818475945138418  0.493878675942355  1.0000
  N   N5        1.0  0.48845118994489667  0.4671335497005131  0.021285984573644605  1.0000
  N   N6        1.0  0.49392644250185913  0.5348302323203526  0.9894163479187412  1.0000
  O   O1        1.0  0.5085340199486907  0.4277287873659433  0.38635220856180297  1.0000
  O   O2        1.0  0.4845424815028849  0.568609275144837  0.38959416994659074  1.0000
  O   O3        1.0  0.3185268075551874  0.5833861986595611  0.5105734508520925  1.0000
  O   O4        1.0  0.31686395177724336  0.44024774273886197  0.5031801747215638  1.0000
  O   O5        1.0  0.5118451998470092  0.5712902747891422  0.6229486212081952  1.0000
  O   O6        1.0  0.4988281688348763  0.4290721852627968  0.6215671945590769  1.0000
  O   O7        1.0  0.6867832602166857  0.4247380127592066  0.5067117304624275  1.0000
  O   O8        1.0  0.6864015354748148  0.5644224077344973  0.4926781823701417  1.0000
  O   O9        1.0  0.8512114277390168  0.796961964958783  0.31838583456879377  1.0000
  O   O10       1.0  0.9038392148568164  0.6996518598700875  0.20348054631033824  1.0000
  O   O11       1.0  0.7243662896292448  0.6685837576424659  0.286370242548763  1.0000
  O   O12       1.0  0.16782324867946843  0.6677128476022887  0.20345144850002578  1.0000
  O   O13       1.0  0.1093636470031356  0.7966381200270691  0.28353796857958  1.0000
  O   O14       1.0  0.2881341523784897  0.717413433794981  0.3197425295348779  1.0000
  F   F1        1.0  0.6722747979644056  0.7280016746178931  0.6061750935835306  1.0000
  F   F2        1.0  0.33929577795885985  0.2732881768633106  0.40271076510043  1.0000
  F   F3        1.0  0.48731318584412253  0.33453792332763754  0.2504299517967468  1.0000
  F   F4        1.0  0.5157889317026374  0.6651841958131471  0.7587951841285587  1.0000
