data_image0
_chemical_formula_structural       Ba2H16C12N16O10
_chemical_formula_sum              "Ba2 H16 C12 N16 O10"
_cell_length_a       6.8845919744183055
_cell_length_b       6.884648907405255
_cell_length_c       13.238059584245944
_cell_angle_alpha    101.44103690987168
_cell_angle_beta     101.45742677906951
_cell_angle_gamma    103.71745137199358

_space_group_name_H-M_alt    "P 1"
_space_group_IT_number       1

loop_
  _space_group_symop_operation_xyz
  'x, y, z'

loop_
  _atom_site_type_symbol
  _atom_site_label
  _atom_site_symmetry_multiplicity
  _atom_site_fract_x
  _atom_site_fract_y
  _atom_site_fract_z
  _atom_site_occupancy
  Ba  Ba1       1.0  0.8403643374860226  0.8403280355878737  2.299977665396895e-05  1.0000
  Ba  Ba2       1.0  0.0903806498009772  0.590340670902549  0.4999988155258494  1.0000
  H   H1        1.0  0.6727555774463597  0.2933658112500908  0.027882480312214897  1.0000
  H   H2        1.0  0.26541096466381475  0.6446333256649125  0.972017055141173  1.0000
  H   H3        1.0  0.8948652950615783  0.015640298693931208  0.472151583441921  1.0000
  H   H4        1.0  0.5436750271133236  0.42285948974509324  0.5279106532872719  1.0000
  H   H5        1.0  0.495428596460549  0.06153901058044651  0.9543284078840206  1.0000
  H   H6        1.0  0.10713209064751789  0.5407933012633137  0.04551070373785388  1.0000
  H   H7        1.0  0.7912757786569172  0.8573843129743467  0.545721250390912  1.0000
  H   H8        1.0  0.3119281610285043  0.24546648568501442  0.45438006871907544  1.0000
  H   H9        1.0  0.29077000651709284  0.25277275235788477  0.061937135115570606  1.0000
  H   H10       1.0  0.19095901480169894  0.2289440307726452  0.9383019562542291  1.0000
  H   H11       1.0  0.4787569370986944  0.9408866163061023  0.43807119999063115  1.0000
  H   H12       1.0  0.5027233451023392  0.0406176711941484  0.5617265537972786  1.0000
  H   H13       1.0  0.48472928589445974  0.9506511646856878  0.7452271927660875  1.0000
  H   H14       1.0  0.20519473073824912  0.7393516633350503  0.2546384641151748  1.0000
  H   H15       1.0  0.9896653310592142  0.9555656593635219  0.7547884947826022  1.0000
  H   H16       1.0  0.200641450260882  0.23478115770602415  0.24529634904781272  1.0000
  C   C1        1.0  0.6466661854328635  0.23404820958619868  0.8707757868413284  1.0000
  C   C2        1.0  0.3631309441886969  0.7756280293736068  0.12912169907666277  1.0000
  C   C3        1.0  0.025994084658798  0.1134898055352522  0.6292700761044474  1.0000
  C   C4        1.0  0.48422344937606  0.3967317652040876  0.37079462052198414  1.0000
  C   C5        1.0  0.7261696558893505  0.40728262887063255  0.7613652826990037  1.0000
  C   C6        1.0  0.6457498056823141  0.9646320921616438  0.23862369045448875  1.0000
  C   C7        1.0  0.214687810653281  0.3962156398775322  0.7387645290722918  1.0000
  C   C8        1.0  0.6572902767851545  0.47591924498986066  0.261276748105118  1.0000
  C   C9        1.0  0.8116408823780363  0.5895928729517906  0.7220790040496612  1.0000
  C   C10       1.0  0.8673614291797449  0.08942791595879382  0.27794404404628653  1.0000
  C   C11       1.0  0.3394591679140079  0.6178145963174729  0.7780583350621415  1.0000
  C   C12       1.0  0.8395935262526208  0.5613557824743437  0.2219879781963386  1.0000
  N   N1        1.0  0.6201353569027647  0.21890213494794616  0.6991151219332753  1.0000
  N   N2        1.0  0.519556100580381  0.9208615058637905  0.3008131340616772  1.0000
  N   N3        1.0  0.17092954673415053  0.2700130430156237  0.80097548747969  1.0000
  N   N4        1.0  0.4688361604483262  0.3698977169612689  0.19909053645483255  1.0000
  N   N5        1.0  0.7471435569924837  0.42380031392991674  0.8679070683104444  1.0000
  N   N6        1.0  0.5558047353983184  0.8790287443594452  0.13207139646662822  1.0000
  N   N7        1.0  0.12924967035965554  0.3061804880235998  0.6322097624288859  1.0000
  N   N8        1.0  0.6739365246520848  0.4970662513822718  0.3678426260538218  1.0000
  N   N9        1.0  0.630289752649901  0.17038171205783936  0.9611918961978606  1.0000
  N   N10       1.0  0.20909650552304263  0.6688353429302437  0.0386855582323591  1.0000
  N   N11       1.0  0.919242043498393  0.9593906027294352  0.5388491826344152  1.0000
  N   N12       1.0  0.42063847619044736  0.3804232197785852  0.46122649826017453  1.0000
  N   N13       1.0  0.5717706319401543  0.1096922727571865  0.7702986082861047  1.0000
  N   N14       1.0  0.3391832316076773  0.8012703648526485  0.22958038240999917  1.0000
  N   N15       1.0  0.05153978917781641  0.08957203723637971  0.729746645128046  1.0000
  N   N16       1.0  0.3597136849488933  0.32172566915408396  0.2703279964429727  1.0000
  O   O1        1.0  0.7987329489502173  0.5680895065363174  0.6234671118721595  1.0000
  O   O2        1.0  0.944470537062344  0.1751446425228949  0.3765573806662062  1.0000
  O   O3        1.0  0.4252491201484078  0.6949683967473778  0.8766573137076182  1.0000
  O   O4        1.0  0.8180840494476128  0.5483468289117539  0.12335832832840053  1.0000
  O   O5        1.0  0.8946361473423252  0.7597704638261862  0.7944700660482628  1.0000
  O   O6        1.0  0.9651077226899362  0.10011536723106221  0.2055691781242787  1.0000
  O   O7        1.0  0.34998307070570417  0.715472605132767  0.7056291062059759  1.0000
  O   O8        1.0  0.009707263802894784  0.6444625700575131  0.2943967586793336  1.0000
  O   O9        1.0  0.17191791420624017  0.17193837548941815  0.00010548080550169933  1.0000
  O   O10       1.0  0.4217499823363369  0.9219047958695087  0.4998851292709008  1.0000
