data_image0
_chemical_formula_structural       Zn4H56C46O13
_chemical_formula_sum              "Zn4 H56 C46 O13"
_cell_length_a       10.849527004769945
_cell_length_b       10.847911507159319
_cell_length_c       15.45182261685495
_cell_angle_alpha    81.57664530342178
_cell_angle_beta     71.18081656967108
_cell_angle_gamma    78.17832120509087

_space_group_name_H-M_alt    "P 1"
_space_group_IT_number       1

loop_
  _space_group_symop_operation_xyz
  'x, y, z'

loop_
  _atom_site_type_symbol
  _atom_site_label
  _atom_site_symmetry_multiplicity
  _atom_site_fract_x
  _atom_site_fract_y
  _atom_site_fract_z
  _atom_site_occupancy
  Zn  Zn1       1.0  0.4244307739370328  0.42504393881394986  0.42149305401141396  1.0000
  Zn  Zn2       1.0  0.5987134829997772  0.35697200984288463  0.5623289719248561  1.0000
  Zn  Zn3       1.0  0.35976922812430706  0.5918570739854161  0.5892646054475036  1.0000
  Zn  Zn4       1.0  0.6217324136590817  0.5985119747910661  0.41506046628587984  1.0000
  H   H1        1.0  0.04905260137321931  0.39578024652437443  0.45283087182123444  1.0000
  H   H2        1.0  0.20400276693438005  0.39022315589144085  0.80683788514839  1.0000
  H   H3        1.0  0.2309445169290854  0.11285764834335052  0.47307025395713964  1.0000
  H   H4        1.0  0.19534597609983712  0.9593307973798206  0.5198811341125521  1.0000
  H   H5        1.0  0.12195581111396339  0.09075384412521711  0.5861473668331671  1.0000
  H   H6        1.0  0.30811405488436344  0.9639442497955674  0.6388686574396943  1.0000
  H   H7        1.0  0.3441184708690841  0.11525270961117681  0.59181412637777  1.0000
  H   H8        1.0  0.7607087954868561  0.15544733955132983  0.3406610705659006  1.0000
  H   H9        1.0  0.8202440332476187  0.0740904119418673  0.43128913818490844  1.0000
  H   H10       1.0  0.8834709837518986  0.0189666671446318  0.3200046183814323  1.0000
  H   H11       1.0  0.7263858680957613  0.8811896934435456  0.42089509796731767  1.0000
  H   H12       1.0  0.3732521358074052  0.24619931934447692  0.1526269587796065  1.0000
  H   H13       1.0  0.6685608415592983  0.9618903993553546  0.33191471784699195  1.0000
  H   H14       1.0  0.9399939050317772  0.22846911682128018  0.15167684727099132  1.0000
  H   H15       1.0  0.022084820303142304  0.21076449889987003  0.2362393970091929  1.0000
  H   H16       1.0  0.8976953975308462  0.3444446452423407  0.2311244447226173  1.0000
  H   H17       1.0  0.1240369111832038  0.40506355868153326  0.1622293386507749  1.0000
  H   H18       1.0  0.04094638509219101  0.42452706494145787  0.07904952654276802  1.0000
  H   H19       1.0  0.16263372106838148  0.21303580945031808  0.024593195460255426  1.0000
  H   H20       1.0  0.24507258931014772  0.1931277781460281  0.1072153302331245  1.0000
  H   H21       1.0  0.8687869037885962  0.38492379926108095  0.6702461161985339  1.0000
  H   H22       1.0  0.9221339166374208  0.4319129195612703  0.7560603809804222  1.0000
  H   H23       1.0  0.5806963705887753  0.676803890442777  0.9136362425038271  1.0000
  H   H24       1.0  0.9383827274135683  0.269304276551992  0.7422361994807929  1.0000
  H   H25       1.0  0.7440529581300482  0.3297585286811824  0.8786965889083191  1.0000
  H   H26       1.0  0.6927695301873769  0.2843260217156712  0.792352090025787  1.0000
  H   H27       1.0  0.6348107291590566  0.5147480646337357  0.7401248380716013  1.0000
  H   H28       1.0  0.6848142507958598  0.5559103575285533  0.8278717608201307  1.0000
  H   H29       1.0  0.6737003425496865  0.8944472795094783  0.14044426254464784  1.0000
  H   H30       1.0  0.6283404167791814  0.799591256211798  0.24551349831509137  1.0000
  H   H31       1.0  0.7816445853070488  0.8548524960361877  0.20913759537654636  1.0000
  H   H32       1.0  0.8228094404890242  0.6294567018437364  0.18031461795724374  1.0000
  H   H33       1.0  0.8638687602120216  0.7240365884620064  0.0761098779407874  1.0000
  H   H34       1.0  0.19741752649347433  0.04717286170905769  0.783333113877923  1.0000
  H   H35       1.0  0.5317511175879376  0.9045722514605288  0.9404650419873308  1.0000
  H   H36       1.0  0.55645413711526  0.9431736996759316  0.04043835673417818  1.0000
  H   H37       1.0  0.6423154684210671  0.009849269302556307  0.9305684787891197  1.0000
  H   H38       1.0  0.7962077675631463  0.8361512121787557  0.9848831987839193  1.0000
  H   H39       1.0  0.767878110862718  0.7949958699379568  0.8878870771572309  1.0000
  H   H40       1.0  0.625425110743862  0.11352992081984331  0.12045591083565203  1.0000
  H   H41       1.0  0.7491937853793188  0.20787544211122375  0.0998134192937314  1.0000
  H   H42       1.0  0.7218409587990351  0.09500925377194853  0.19700903554447552  1.0000
  H   H43       1.0  0.6211752150677013  0.30730403447226706  0.24768497071520565  1.0000
  H   H44       1.0  0.4940209348275816  0.22063532746591358  0.2640238806906439  1.0000
  H   H45       1.0  0.06655890341883723  0.15203293314747413  0.8520668948281412  1.0000
  H   H46       1.0  0.7308034473200709  0.8733087591310069  0.6207795593593631  1.0000
  H   H47       1.0  0.8549881119908634  0.8763096129601139  0.672033686108698  1.0000
  H   H48       1.0  0.842926198268863  0.9812880136664007  0.5744646413247666  1.0000
  H   H49       1.0  0.03109192718714838  0.8007294399578626  0.5284341356947522  1.0000
  H   H50       1.0  0.9076311456904662  0.794802764592845  0.47808942300120083  1.0000
  H   H51       1.0  0.8146123014185349  0.6359516686691933  0.6047208865056675  1.0000
  H   H52       1.0  0.9382494211663399  0.6421003688229661  0.6552104010485851  1.0000
  H   H53       1.0  0.1534651798670623  0.2044809428913795  0.7386414266020367  1.0000
  H   H54       1.0  0.3599848552625176  0.1839202989411675  0.7841405581680051  1.0000
  H   H55       1.0  0.27878432704700634  0.12459490089030112  0.8957307178656322  1.0000
  H   H56       1.0  0.11740667715697839  0.3315719009163588  0.9167090550177834  1.0000
  C   C1        1.0  0.8375728038445517  0.4747238464913723  0.48806239135635127  1.0000
  C   C2        1.0  0.5089219716561786  0.4648778523317105  0.876757636557038  1.0000
  C   C3        1.0  0.31056642169228604  0.3669490970473674  0.905509129200219  1.0000
  C   C4        1.0  0.15295681656020577  0.5303165239968309  0.5262454085783193  1.0000
  C   C5        1.0  0.6260756344413494  0.5424502859299454  0.14856668506343604  1.0000
  C   C6        1.0  0.00986692743174439  0.5495376982730421  0.5325381679782311  1.0000
  C   C7        1.0  0.9747336831003678  0.470860618184858  0.4883539532818446  1.0000
  C   C8        1.0  0.45659796494543065  0.9629171406502766  0.5092152895079209  1.0000
  C   C9        1.0  0.5574147798763394  0.025624643172605495  0.4620314789903617  1.0000
  C   C10       1.0  0.5383658443027031  0.16287672450998508  0.4765502020335788  1.0000
  C   C11       1.0  0.4653989269064524  0.8261528715662649  0.5016056616444687  1.0000
  C   C12       1.0  0.6742818939957188  0.6909384309948834  0.012829416834549143  1.0000
  C   C13       1.0  0.4360794768590139  0.4390540170334774  0.7446046858080777  1.0000
  C   C14       1.0  0.5932007781445422  0.5268259398019453  0.25096732703075736  1.0000
  C   C15       1.0  0.3051230666043452  0.33698174056991104  0.9977413609538389  1.0000
  C   C16       1.0  0.41731292688093896  0.4240414396271108  0.8459736700272701  1.0000
  C   C17       1.0  0.6932592180392445  0.6419825813121208  0.09895774481895372  1.0000
  C   C18       1.0  0.2163588636331468  0.32515379215409723  0.8662512949325959  1.0000
  C   C19       1.0  0.2628525285748395  0.18926870971720425  0.8368753080194581  1.0000
  C   C20       1.0  0.16491955422004878  0.1456738019339383  0.8007871439409371  1.0000
  C   C21       1.0  0.3303084945101205  0.02534118152171061  0.5745346748746982  1.0000
  C   C22       1.0  0.2128104567135267  0.048416218757978406  0.5360400394450764  1.0000
  C   C23       1.0  0.6027350454989603  0.6319965826056305  0.9760828321496788  1.0000
  C   C24       1.0  0.6885423534624808  0.9763548800812387  0.3948370224564997  1.0000
  C   C25       1.0  0.7936390055377134  0.061164418004466405  0.37087550921365425  1.0000
  C   C26       1.0  0.2012684870747492  0.26559263890035123  0.06281500591807543  1.0000
  C   C27       1.0  0.08537519038739559  0.3527376175560093  0.12359926722504616  1.0000
  C   C28       1.0  0.980459529320008  0.28040151618505865  0.1893291863454252  1.0000
  C   C29       1.0  0.6419147667631863  0.48424710763175954  0.8096759547904144  1.0000
  C   C30       1.0  0.7372106772929642  0.357084908736624  0.8085966963054859  1.0000
  C   C31       1.0  0.8740328238908789  0.36142987947417277  0.740611442989966  1.0000
  C   C32       1.0  0.7804747170454717  0.7000656995563403  0.13500352855082556  1.0000
  C   C33       1.0  0.71172565766598  0.8188403994901988  0.18530350434899404  1.0000
  C   C34       1.0  0.555275662871921  0.5191534382253238  0.0164063150175409  1.0000
  C   C35       1.0  0.7204190698292052  0.8113192765160235  0.960856350288303  1.0000
  C   C36       1.0  0.6063592684692763  0.9237990332402862  0.9684543642195961  1.0000
  C   C37       1.0  0.5710584204023094  0.265148996253302  0.2111884665960275  1.0000
  C   C38       1.0  0.6728437186292382  0.16411800951902222  0.15399317697450238  1.0000
  C   C39       1.0  0.9170405745163636  0.6508744200183898  0.5893165689838327  1.0000
  C   C40       1.0  0.928552617090226  0.7857397558815934  0.5440892919208056  1.0000
  C   C41       1.0  0.8342900422227757  0.884642025392303  0.6060023758798325  1.0000
  C   C42       1.0  0.5649016700619783  0.4741381299903865  0.10587402182271427  1.0000
  C   C43       1.0  0.4865858035030328  0.4570160817533732  0.9730646947561256  1.0000
  C   C44       1.0  0.39691374741856583  0.3783649706527187  0.030895802357108003  1.0000
  C   C45       1.0  0.41928320269569497  0.32741201762534194  0.11660853932052363  1.0000
  C   C46       1.0  0.511529137604839  0.36058725199981023  0.14810276481046006  1.0000
  O   O1        1.0  0.5009846299850338  0.49172625049107677  0.4997876056332872  1.0000
  O   O2        1.0  0.5252071581536768  0.35893567104935903  0.6960498200602885  1.0000
  O   O3        1.0  0.6761165986221799  0.5419405011709559  0.2904393294569659  1.0000
  O   O4        1.0  0.3622191500206355  0.5314089848045356  0.7151877127571568  1.0000
  O   O5        1.0  0.47628371249770407  0.5053980113650666  0.2955419777645433  1.0000
  O   O6        1.0  0.47603617731239495  0.23956252264514438  0.4282512976046391  1.0000
  O   O7        1.0  0.5460697683250402  0.7770311459267772  0.42944668767302835  1.0000
  O   O8        1.0  0.7871445096555759  0.37539734523637963  0.5229168529951169  1.0000
  O   O9        1.0  0.18391794807996578  0.5913433147485421  0.5787824877182716  1.0000
  O   O10       1.0  0.7831907541938038  0.5757327458629505  0.45223760165663424  1.0000
  O   O11       1.0  0.23260464143548626  0.4550243550804183  0.4689059362777428  1.0000
  O   O12       1.0  0.5889118052281076  0.18950681043127568  0.5337928077017581  1.0000
  O   O13       1.0  0.38944162411866773  0.7673303055494076  0.5689235121900327  1.0000
