data_image0
_chemical_formula_structural       Ho4H16C24O32
_chemical_formula_sum              "Ho4 H16 C24 O32"
_cell_length_a       6.734101073688966
_cell_length_b       7.138381287078696
_cell_length_c       16.699699080013897
_cell_angle_alpha    90.00001277165062
_cell_angle_beta     90.00014245035105
_cell_angle_gamma    100.22689609672669

_space_group_name_H-M_alt    "P 1"
_space_group_IT_number       1

loop_
  _space_group_symop_operation_xyz
  'x, y, z'

loop_
  _atom_site_type_symbol
  _atom_site_label
  _atom_site_symmetry_multiplicity
  _atom_site_fract_x
  _atom_site_fract_y
  _atom_site_fract_z
  _atom_site_occupancy
  Ho  Ho1       1.0  0.4699931670587461  0.21488462292495578  0.5851874364416432  1.0000
  Ho  Ho2       1.0  0.030003690642253358  0.7851152973541673  0.08518661490165867  1.0000
  Ho  Ho3       1.0  0.5300039069739952  0.785115219493463  0.4148131644060342  1.0000
  Ho  Ho4       1.0  0.9699969151781289  0.21488736122464053  0.9148133871347284  1.0000
  H   H1        1.0  0.2100754864549472  0.45613726530784504  0.6830286008633804  1.0000
  H   H2        1.0  0.2899232028377128  0.5438613767255305  0.18302921605915398  1.0000
  H   H3        1.0  0.7899213036849275  0.543861153697904  0.3169702035445353  1.0000
  H   H4        1.0  0.7100783172163003  0.45613841970011754  0.8169707859775669  1.0000
  H   H5        1.0  0.1719155412064453  0.24784023362865074  0.7213112982183317  1.0000
  H   H6        1.0  0.3280839637116059  0.7521613180227292  0.22130957495353695  1.0000
  H   H7        1.0  0.8280830148301489  0.752159593458032  0.2786881050037167  1.0000
  H   H8        1.0  0.6719163582197824  0.24783991714438977  0.7786898282694634  1.0000
  H   H9        1.0  0.13648915472578685  0.8885726398766212  0.6221496419179926  1.0000
  H   H10       1.0  0.3635091404062081  0.11142590229220423  0.12214909478024082  1.0000
  H   H11       1.0  0.8635073515328457  0.11142435571940011  0.3778509589292724  1.0000
  H   H12       1.0  0.6364906137510715  0.8885724860525103  0.8778503084423406  1.0000
  H   H13       1.0  0.03476959878030069  0.0642572385858031  0.589719029763465  1.0000
  H   H14       1.0  0.4652270043726716  0.935741265715457  0.08971805913948568  1.0000
  H   H15       1.0  0.9652254254705923  0.9357397723409807  0.410281571083054  1.0000
  H   H16       1.0  0.534772749784608  0.0642571226292645  0.9102813440831027  1.0000
  C   C1        1.0  0.5873391703295141  0.9159460457195864  0.6969524146158506  1.0000
  C   C2        1.0  0.9126625749637681  0.08406043253004472  0.19695191431888756  1.0000
  C   C3        1.0  0.41265910182390536  0.08405235795687821  0.30304818623235963  1.0000
  C   C4        1.0  0.0873430446519947  0.9159450268783902  0.8030474889069551  1.0000
  C   C5        1.0  0.5819517839897513  0.8147267323356218  0.6219277022361992  1.0000
  C   C6        1.0  0.9180468580107614  0.18527394453368376  0.12192901278486801  1.0000
  C   C7        1.0  0.41804945217914014  0.18527164067931784  0.378072898613503  1.0000
  C   C8        1.0  0.08195374780962082  0.8147287140451313  0.8780709892515188  1.0000
  C   C9        1.0  0.6283438132598604  0.6456026177083702  0.6632661874017882  1.0000
  C   C10       1.0  0.871659888868578  0.3543923720036801  0.1632680653056724  1.0000
  C   C11       1.0  0.37165799068314  0.3543986021289741  0.336734413448319  1.0000
  C   C12       1.0  0.1283445952047799  0.6456073937614306  0.8367331343589015  1.0000
  C   C13       1.0  0.6305616445907135  0.7492695282659058  0.7411520277010124  1.0000
  C   C14       1.0  0.8694324716238812  0.2507271199302751  0.24114970245975795  1.0000
  C   C15       1.0  0.36943394743816793  0.25073032948425583  0.2588497707722865  1.0000
  C   C16       1.0  0.1305669986444045  0.7492698450027505  0.7588491019494368  1.0000
  C   C17       1.0  0.9251459731048826  0.3771345064643156  0.5289668982830519  1.0000
  C   C18       1.0  0.5748520670317205  0.6228660179167423  0.028969700146006996  1.0000
  C   C19       1.0  0.07485731283810534  0.6228666980402977  0.47103130731505866  1.0000
  C   C20       1.0  0.42514500700295327  0.3771338245021667  0.971031499514858  1.0000
  C   C21       1.0  0.13628193804406408  0.4590257407976637  0.51106318988068  1.0000
  C   C22       1.0  0.3637153539827906  0.5409711957388623  0.011063878799113499  1.0000
  C   C23       1.0  0.8637183838873241  0.5409754943694551  0.48893621334232046  1.0000
  C   C24       1.0  0.6362832020557505  0.45902863134831046  0.9889361232361153  1.0000
  O   O1        1.0  0.5453313387751493  0.08057354922102894  0.7093705442286833  1.0000
  O   O2        1.0  0.9546646214604093  0.9194258783352183  0.20937016037722594  1.0000
  O   O3        1.0  0.45466128923438015  0.9194263391896841  0.2906300566167701  1.0000
  O   O4        1.0  0.04534191239092419  0.08057671892054688  0.7906298416621311  1.0000
  O   O5        1.0  0.5337636684977198  0.8746282712742187  0.5538456156411441  1.0000
  O   O6        1.0  0.9662401768498654  0.12537080918055923  0.05384577154590179  1.0000
  O   O7        1.0  0.46623580177057283  0.1253686936588068  0.4461531887680507  1.0000
  O   O8        1.0  0.033763109098934825  0.8746303953255324  0.9461542304917642  1.0000
  O   O9        1.0  0.64593044390665  0.47917697658161273  0.6460143809436969  1.0000
  O   O10       1.0  0.8540686379245841  0.5208251632087837  0.14601445958400205  1.0000
  O   O11       1.0  0.35406874247846076  0.5208185649411947  0.35398562109165965  1.0000
  O   O12       1.0  0.14593521579832466  0.4791788881197122  0.8539855424540759  1.0000
  O   O13       1.0  0.6467925730648362  0.702442994960258  0.8130072207394361  1.0000
  O   O14       1.0  0.8532067382876249  0.29755514852491427  0.313006679835162  1.0000
  O   O15       1.0  0.3532071811040752  0.29755539338740533  0.1869957753622558  1.0000
  O   O16       1.0  0.14679181775091618  0.7024446785622588  0.6869933222000739  1.0000
  O   O17       1.0  0.8291849566860847  0.23008513831872793  0.5629614681691917  1.0000
  O   O18       1.0  0.6708147855503839  0.7699154264941229  0.06296318169570717  1.0000
  O   O19       1.0  0.17081564913041802  0.7699175202591064  0.4370373362408201  1.0000
  O   O20       1.0  0.3291837704881573  0.23008440059305005  0.9370368203395215  1.0000
  O   O21       1.0  0.3075276254020736  0.4170583741879311  0.5224095860886707  1.0000
  O   O22       1.0  0.1924715059766697  0.5829399890401278  0.022408909436670395  1.0000
  O   O23       1.0  0.6924741785370543  0.5829428456484322  0.477589817135069  1.0000
  O   O24       1.0  0.8075276178359798  0.41706268486944253  0.9775910925989705  1.0000
  O   O25       1.0  0.25146545742142484  0.33028890447108245  0.6809351651156843  1.0000
  O   O26       1.0  0.24853618232503996  0.6697097034647899  0.18093335476382313  1.0000
  O   O27       1.0  0.7485316166055043  0.6697109379458652  0.31906363929243736  1.0000
  O   O28       1.0  0.7514685856256877  0.3302914857090684  0.8190648508350336  1.0000
  O   O29       1.0  0.1569216927750432  0.005936855544618399  0.5881783420736113  1.0000
  O   O30       1.0  0.3430769501862513  0.9940644777213947  0.08817785299201118  1.0000
  O   O31       1.0  0.8430768632673703  0.9940629715435351  0.4118228575879924  1.0000
  O   O32       1.0  0.6569230878619619  0.005935334035505902  0.9118227478571511  1.0000
