data_image0
_chemical_formula_structural       Ag4H16C28O8F4
_chemical_formula_sum              "Ag4 H16 C28 O8 F4"
_cell_length_a       3.683805727571359
_cell_length_b       11.198141648927631
_cell_length_c       15.600435907068283
_cell_angle_alpha    101.08491597769611
_cell_angle_beta     89.99835594040186
_cell_angle_gamma    90.00145301750149

_space_group_name_H-M_alt    "P 1"
_space_group_IT_number       1

loop_
  _space_group_symop_operation_xyz
  'x, y, z'

loop_
  _atom_site_type_symbol
  _atom_site_label
  _atom_site_symmetry_multiplicity
  _atom_site_fract_x
  _atom_site_fract_y
  _atom_site_fract_z
  _atom_site_occupancy
  Ag  Ag1       1.0  0.08529773854158408  0.12076359696629882  0.032545434436848084  1.0000
  Ag  Ag2       1.0  0.4147212555827906  0.6207668248555648  0.03254216367309938  1.0000
  Ag  Ag3       1.0  0.9147535861404279  0.8792541323412804  0.9674564042454462  1.0000
  Ag  Ag4       1.0  0.5853164963151514  0.37925638054323935  0.9674609989251547  1.0000
  H   H1        1.0  0.3022353319207625  0.2216828131811326  0.20839854778715505  1.0000
  H   H2        1.0  0.1977271703123762  0.7216793757676854  0.20840425883401534  1.0000
  H   H3        1.0  0.6977698445392234  0.7783184359125241  0.7915973895998717  1.0000
  H   H4        1.0  0.8021775658156469  0.27832312717404045  0.7916046576723372  1.0000
  H   H5        1.0  0.15687281269827474  0.1932246346104094  0.35938774844859717  1.0000
  H   H6        1.0  0.34317260334425004  0.693204662496953  0.3593827138470899  1.0000
  H   H7        1.0  0.843162224170541  0.8067821595895239  0.640612085801095  1.0000
  H   H8        1.0  0.656829857616856  0.30678223608877186  0.640619127828941  1.0000
  H   H9        1.0  0.6514587609218266  0.5453881588899778  0.4155160510536716  1.0000
  H   H10       1.0  0.8486401044882752  0.04536441776218678  0.41549958339662396  1.0000
  H   H11       1.0  0.3485952782372549  0.45462500411024837  0.5844845771795377  1.0000
  H   H12       1.0  0.1514275066513378  0.9546131762259408  0.5844934045102973  1.0000
  H   H13       1.0  0.805280038558841  0.5760526006883995  0.26405370374342135  1.0000
  H   H14       1.0  0.6947578592496058  0.0760434672803711  0.26404587567201787  1.0000
  H   H15       1.0  0.19474142530948768  0.42394684603758037  0.7359426499953227  1.0000
  H   H16       1.0  0.3052500311721644  0.9239442206171021  0.7359515765376725  1.0000
  C   C1        1.0  0.17748784092500364  0.42540800491568115  0.13991236854228356  1.0000
  C   C2        1.0  0.3224499468976986  0.9254090634590925  0.1399190725338143  1.0000
  C   C3        1.0  0.8225010482773809  0.5745949776737619  0.8600805794162124  1.0000
  C   C4        1.0  0.6774792206368617  0.074593370691268  0.8600872708225322  1.0000
  C   C5        1.0  0.0606731725351324  0.40084318360128895  0.22638091207809197  1.0000
  C   C6        1.0  0.43926866305673684  0.9008441195876314  0.22638744601545813  1.0000
  C   C7        1.0  0.9393184312775273  0.5991570178841811  0.7736097657616126  1.0000
  C   C8        1.0  0.5606469313029051  0.09915750800616512  0.773622643562426  1.0000
  C   C9        1.0  0.15511857564293757  0.2921275757691078  0.2526757737747615  1.0000
  C   C10       1.0  0.3448333129896283  0.7921214343858625  0.2526788631504715  1.0000
  C   C11       1.0  0.8448730281083527  0.7078791149798319  0.7473202009898186  1.0000
  C   C12       1.0  0.6550795668035716  0.2078783391237096  0.747329713028442  1.0000
  C   C13       1.0  0.07399026968208489  0.2750961811068037  0.33669575577593486  1.0000
  C   C14       1.0  0.42603169976732863  0.7750896304890844  0.33669695890133505  1.0000
  C   C15       1.0  0.9260420525510751  0.7249041754746273  0.6633007113646269  1.0000
  C   C16       1.0  0.5739571883833959  0.22490552530079094  0.6633084768013119  1.0000
  C   C17       1.0  0.893203125953633  0.3673773215022251  0.39278075486717506  1.0000
  C   C18       1.0  0.6068124087785519  0.8673547782956276  0.3927731632418768  1.0000
  C   C19       1.0  0.10681562383108908  0.6326366651114839  0.6072167705600862  1.0000
  C   C20       1.0  0.3931927668305164  0.13262932196816019  0.6072257650461521  1.0000
  C   C21       1.0  0.7936921618100498  0.4762100711106783  0.36903359042633344  1.0000
  C   C22       1.0  0.7063537444690553  0.9762017968301109  0.3690258174824378  1.0000
  C   C23       1.0  0.2063455896979605  0.5237948518049579  0.6309640871389205  1.0000
  C   C24       1.0  0.293662289753712  0.02378863777117599  0.6309726182751019  1.0000
  C   C25       1.0  0.8793619148254023  0.4921474199958455  0.28516505369642425  1.0000
  C   C26       1.0  0.620624664828945  0.9921396455742341  0.2851636970644265  1.0000
  C   C27       1.0  0.12063783253322669  0.5078547216816105  0.7148303538720099  1.0000
  C   C28       1.0  0.3793370773864878  0.007853707704811093  0.7148421551200455  1.0000
  O   O1        1.0  0.312103954401195  0.3372233383549528  0.08369309600794847  1.0000
  O   O2        1.0  0.1878309070166964  0.8372262217530064  0.08370030357357186  1.0000
  O   O3        1.0  0.687903936729519  0.6627806402066483  0.9163031816739957  1.0000
  O   O4        1.0  0.8120683999258417  0.16277813524610002  0.9163101263561513  1.0000
  O   O5        1.0  0.1454308320102768  0.5347470693894891  0.12894091870088425  1.0000
  O   O6        1.0  0.3545699179006475  0.03474556492327  0.1289406463000304  1.0000
  O   O7        1.0  0.8545689152063858  0.46525421412221146  0.8710563052408131  1.0000
  O   O8        1.0  0.645465118771902  0.9652502425687858  0.871055253660657  1.0000
  F   F1        1.0  0.8087495704506081  0.3504452947593464  0.474923749152225  1.0000
  F   F2        1.0  0.6912982728525208  0.8504296254528542  0.4749145156726441  1.0000
  F   F3        1.0  0.19128818085144417  0.6495615683214168  0.5250786581661584  1.0000
  F   F4        1.0  0.30875305077707077  0.1495525864518044  0.5250816125316289  1.0000
