data_image0
_chemical_formula_structural       Zn16H32C96S20O80
_chemical_formula_sum              "Zn16 H32 C96 S20 O80"
_cell_length_a       19.64056147120885
_cell_length_b       19.714604733051218
_cell_length_c       33.224859747628635
_cell_angle_alpha    79.09170060035602
_cell_angle_beta     79.34092913408652
_cell_angle_gamma    64.02494286253882

_space_group_name_H-M_alt    "P 1"
_space_group_IT_number       1

loop_
  _space_group_symop_operation_xyz
  'x, y, z'

loop_
  _atom_site_type_symbol
  _atom_site_label
  _atom_site_symmetry_multiplicity
  _atom_site_fract_x
  _atom_site_fract_y
  _atom_site_fract_z
  _atom_site_occupancy
  Zn  Zn1       1.0  0.05546454618037439  0.39898559362498537  0.4793806646518845  1.0000
  Zn  Zn2       1.0  0.986710947593991  0.4808504594501955  0.5609243306301721  1.0000
  Zn  Zn3       1.0  0.05638113591881928  0.5620452331802356  0.48057282480022673  1.0000
  Zn  Zn4       1.0  0.9014878404795893  0.5576464772877474  0.47978441077120937  1.0000
  Zn  Zn5       1.0  0.690491568483786  0.35148799434462324  0.27243520544162436  1.0000
  Zn  Zn6       1.0  0.6884777202578574  0.19182043583383318  0.26678645300839315  1.0000
  Zn  Zn7       1.0  0.770744245183124  0.268029015408601  0.19100307962562366  1.0000
  Zn  Zn8       1.0  0.8476871885346354  0.1984259334806495  0.2727681252492573  1.0000
  Zn  Zn9       1.0  0.26872392042053406  0.7647103466208662  0.6885472628320956  1.0000
  Zn  Zn10      1.0  0.3507060036884652  0.6961995210633488  0.7700358787210462  1.0000
  Zn  Zn11      1.0  0.19077064566189958  0.8459239269045682  0.7703892195365682  1.0000
  Zn  Zn12      1.0  0.19069808944860966  0.6874451483626843  0.7664699550630515  1.0000
  Zn  Zn13      1.0  0.558496745354816  0.06199689166201957  0.9827310688501212  1.0000
  Zn  Zn14      1.0  0.40125562106526047  0.0551153221693356  0.977338053852499  1.0000
  Zn  Zn15      1.0  0.5549692993835363  0.9012566026310296  0.9783132784507843  1.0000
  Zn  Zn16      1.0  0.4830036161558695  0.9844346951057975  0.06054159766958377  1.0000
  H   H1        1.0  0.9520894211766872  0.25588833201315714  0.35055529771483407  1.0000
  H   H2        1.0  0.7411498611336282  0.4568329033567623  0.35307712214272163  1.0000
  H   H3        1.0  0.9989579227899268  0.3071851032187499  0.3978523841072743  1.0000
  H   H4        1.0  0.09336780129761728  0.5995679238068377  0.6982079023723456  1.0000
  H   H5        1.0  0.20583051948835154  0.6983372603111347  0.5971801310256238  1.0000
  H   H6        1.0  0.045842644576182985  0.5557252976129092  0.6475082426001534  1.0000
  H   H7        1.0  0.5560070003531762  0.04826184301188626  0.1532305366899109  1.0000
  H   H8        1.0  0.6491211613854303  0.15698692516255622  0.04750006267239832  1.0000
  H   H9        1.0  0.60793214160838  0.09667674676251885  0.19934651416384236  1.0000
  H   H10       1.0  0.4974114624451147  0.793482069800831  0.899126093475047  1.0000
  H   H11       1.0  0.2973893132622223  0.005204132253005884  0.8974919099346009  1.0000
  H   H12       1.0  0.4437806618446344  0.7495911242827803  0.8515932045412028  1.0000
  H   H13       1.0  0.8430990538454066  0.576196920103385  0.4009330871010519  1.0000
  H   H14       1.0  0.07056645440480477  0.6854747607055529  0.5118109235780395  1.0000
  H   H15       1.0  0.794149204291429  0.1818902515448073  0.12224348208932408  1.0000
  H   H16       1.0  0.1769529205886542  0.906664668881895  0.8477842849313786  1.0000
  H   H17       1.0  0.3244454949800897  0.5398660061225016  0.4018238964109031  1.0000
  H   H18       1.0  0.4224328415621841  0.20847336177435247  0.3535956909875323  1.0000
  H   H19       1.0  0.7578235425019811  0.5411041150166155  0.6850872342022498  1.0000
  H   H20       1.0  0.49814963152766717  0.701458900310051  0.5647463673824548  1.0000
  H   H21       1.0  0.04400684334223119  0.25287363466710394  0.6851259183716608  1.0000
  H   H22       1.0  0.20865563289623876  0.9931170245308966  0.5666523921878408  1.0000
  H   H23       1.0  0.7447911651117067  0.8137475077153982  0.3838868581681183  1.0000
  H   H24       1.0  0.0023017242434591  0.9367219655925467  0.3630156791925003  1.0000
  H   H25       1.0  0.7061579256777292  0.49307959249242145  0.06583925463401392  1.0000
  H   H26       1.0  0.5409812826972882  0.7536258604601543  0.18436199558533423  1.0000
  H   H27       1.0  0.15038058931995119  0.07532716923894613  0.22054946635500267  1.0000
  H   H28       1.0  0.10213273597540248  0.1695362761373005  0.030096261796408893  1.0000
  H   H29       1.0  0.5074443524230077  0.43407924751218024  0.8641002681028097  1.0000
  H   H30       1.0  0.24532940399681985  0.317818488016819  0.8851123601597024  1.0000
  H   H31       1.0  0.9210646142583414  0.7071330419674811  0.8534307498835003  1.0000
  H   H32       1.0  0.8282622141040574  0.03861111898419289  0.8991555380748294  1.0000
  C   C1        1.0  0.0615685600564646  0.31456864363366316  0.5627194729393352  1.0000
  C   C2        1.0  0.0652791434567774  0.5747350979818506  0.5672206266711725  1.0000
  C   C3        1.0  0.18113543354256478  0.4395933372499242  0.43844319758934347  1.0000
  C   C4        1.0  0.9348711685905111  0.6869408020037898  0.4380043716058991  1.0000
  C   C5        1.0  0.9326220451366536  0.43622506435719555  0.4286676104091853  1.0000
  C   C6        1.0  0.8202923952259623  0.5596797548875826  0.562872447395982  1.0000
  C   C7        1.0  0.5645036867752536  0.310376596360179  0.31263861025268364  1.0000
  C   C8        1.0  0.6876017086419351  0.17744718797344214  0.18047394084079119  1.0000
  C   C9        1.0  0.6870374960075977  0.4334200392494125  0.18821273108897432  1.0000
  C   C10       1.0  0.9364761104372405  0.19055919053974432  0.19030242358940794  1.0000
  C   C11       1.0  0.8156158722670239  0.32383026434337847  0.3202028789811778  1.0000
  C   C12       1.0  0.8112470547754568  0.06751016861423423  0.3096207590863429  1.0000
  C   C13       1.0  0.43566933047127065  0.6869875829299731  0.6870666033723437  1.0000
  C   C14       1.0  0.31409923889672337  0.8182960847662389  0.8205342872576081  1.0000
  C   C15       1.0  0.19166432757619836  0.9315051655034878  0.68873429296616  1.0000
  C   C16       1.0  0.06367599916449508  0.8080485750292254  0.8102510826278149  1.0000
  C   C17       1.0  0.18112413593568988  0.6788305804862916  0.6802575755441892  1.0000
  C   C18       1.0  0.31475300575519327  0.5683648860424669  0.8121837423980692  1.0000
  C   C19       1.0  0.4366195746474445  0.18477903488675204  0.9380231492913611  1.0000
  C   C20       1.0  0.43110869486856973  0.9295910138375875  0.9299389242925142  1.0000
  C   C21       1.0  0.6830486654301635  0.9400867753566762  0.9388761889965878  1.0000
  C   C22       1.0  0.5612653910020667  0.8170029655387769  0.0620105293163533  1.0000
  C   C23       1.0  0.5692232398284672  0.0707263055555957  0.06937529593631808  1.0000
  C   C24       1.0  0.31595402148246166  0.06076608858072771  0.060643424964140984  1.0000
  C   C25       1.0  0.8975529891404931  0.4106398642924277  0.4015642351033861  1.0000
  C   C26       1.0  0.8441613838097553  0.35346234962992906  0.3487135046377716  1.0000
  C   C27       1.0  0.8238854341111049  0.4528058042447115  0.3888015662879241  1.0000
  C   C28       1.0  0.9167323499025883  0.3109306047881902  0.36144249212905066  1.0000
  C   C29       1.0  0.7979309942950293  0.4240741169446595  0.36264589811962356  1.0000
  C   C30       1.0  0.9426161501548121  0.33950221243433293  0.3876121088506038  1.0000
  C   C31       1.0  0.09814354557226315  0.6027349088825532  0.5942289149976574  1.0000
  C   C32       1.0  0.15205208878653304  0.651836142456453  0.6507304289305581  1.0000
  C   C33       1.0  0.1439104871852166  0.6433676790865449  0.5800781430169479  1.0000
  C   C34       1.0  0.10716378838841219  0.6114756209897436  0.6651005672084268  1.0000
  C   C35       1.0  0.1703545467292926  0.6674257613891612  0.6082699770581926  1.0000
  C   C36       1.0  0.08083371328858388  0.587301380881172  0.6369675287979104  1.0000
  C   C37       1.0  0.3021520708694253  0.4545461576115528  0.40149052465957163  1.0000
  C   C38       1.0  0.44375592857061  0.29524824261388016  0.35026833232189597  1.0000
  C   C39       1.0  0.2555565631609085  0.415555145682859  0.4139341128959089  1.0000
  C   C40       1.0  0.49007379219044356  0.33431176257906986  0.3373573321442791  1.0000
  C   C41       1.0  0.3752299306439965  0.3393506196802392  0.373648317585662  1.0000
  C   C42       1.0  0.3709311189115069  0.41034124240201214  0.37818658015257267  1.0000
  C   C43       1.0  0.7289092446980872  0.5756184336868558  0.630471783035773  1.0000
  C   C44       1.0  0.5273255224022293  0.6696548372490628  0.6194636436432147  1.0000
  C   C45       1.0  0.7461122939454512  0.583302247152034  0.5876014111778856  1.0000
  C   C46       1.0  0.5100072307827614  0.6621929247003141  0.6623375518913477  1.0000
  C   C47       1.0  0.6074254231270116  0.6375697748300343  0.6079349968214771  1.0000
  C   C48       1.0  0.6489219346881255  0.606955738854758  0.6420052280532643  1.0000
  C   C49       1.0  0.07789711238886807  0.22372720280789352  0.6307139878317258  1.0000
  C   C50       1.0  0.17608219584847962  0.022647697649297537  0.6210758655512193  1.0000
  C   C51       1.0  0.08642493552761008  0.24066230435553845  0.5878122211681215  1.0000
  C   C52       1.0  0.16770766958865116  0.0058132831940937955  0.6639829360292494  1.0000
  C   C53       1.0  0.14347999024982266  0.10235216141923324  0.6090800269857296  1.0000
  C   C54       1.0  0.11100372035345168  0.1439866833443588  0.6427966844936107  1.0000
  C   C55       1.0  0.8415811859773965  0.802442291552133  0.3953847119754029  1.0000
  C   C56       1.0  0.9045366091995459  0.9509710208519094  0.3518423957502392  1.0000
  C   C57       1.0  0.9097862793801709  0.760703583720428  0.4128959254581659  1.0000
  C   C58       1.0  0.8365550746550524  0.9929363922280247  0.3341755085242114  1.0000
  C   C59       1.0  0.9063617374812833  0.8811487120042758  0.3738194267840385  1.0000
  C   C60       1.0  0.8400917027666351  0.8717262593639532  0.3727401476084394  1.0000
  C   C61       1.0  0.6580734148153055  0.15316842955916612  0.14976278873469787  1.0000
  C   C62       1.0  0.5996632604315053  0.09925945455248814  0.09758303366277939  1.0000
  C   C63       1.0  0.6692821866878376  0.1702202075900275  0.10634944436268512  1.0000
  C   C64       1.0  0.5878092494995639  0.08242465391537487  0.14041042031166026  1.0000
  C   C65       1.0  0.6402787863424562  0.14330716012737818  0.0808136176916179  1.0000
  C   C66       1.0  0.6167328686521641  0.10929360342202446  0.16593948833070016  1.0000
  C   C67       1.0  0.6731581902785918  0.5240113308982401  0.1200416247199954  1.0000
  C   C68       1.0  0.5763027527955628  0.7253134935106902  0.1298366887760736  1.0000
  C   C69       1.0  0.6633613954419386  0.5072088076772375  0.16293436341589998  1.0000
  C   C70       1.0  0.5856694081222783  0.7426996855637568  0.08701835651449133  1.0000
  C   C71       1.0  0.6081526965666484  0.6455083326857506  0.14169820383272486  1.0000
  C   C72       1.0  0.6410376658050365  0.6038911897493835  0.10799733149747939  1.0000
  C   C73       1.0  0.08343595398185498  0.12406326334223651  0.17867536275772267  1.0000
  C   C74       1.0  0.16886814195240157  0.12402775029158163  0.07234031833122151  1.0000
  C   C75       1.0  0.010889140258875296  0.16378198190113122  0.1657542626102568  1.0000
  C   C76       1.0  0.241467470699753  0.085382162974618  0.08532190242538458  1.0000
  C   C77       1.0  0.11122485937651307  0.13799819266911587  0.10656635802085647  1.0000
  C   C78       1.0  0.14097620653549817  0.10962614409572777  0.14447916411634756  1.0000
  C   C79       1.0  0.34072734475453353  0.8516401424573206  0.8481048505383199  1.0000
  C   C80       1.0  0.4005912512642027  0.9018042542881801  0.901402503174225  1.0000
  C   C81       1.0  0.2995093575232274  0.924621790785544  0.8612991469733373  1.0000
  C   C82       1.0  0.44205489571791645  0.829784197703333  0.8883909934870144  1.0000
  C   C83       1.0  0.3295069921575474  0.9489091359277354  0.8876354796452829  1.0000
  C   C84       1.0  0.4121718643100038  0.8054946747910068  0.8620362345178306  1.0000
  C   C85       1.0  0.40826882487489496  0.4505585403407509  0.8540702713976599  1.0000
  C   C86       1.0  0.3437093028445091  0.3025285755372239  0.8960279388886432  1.0000
  C   C87       1.0  0.3400650768013164  0.49386984394848105  0.8368143209925236  1.0000
  C   C88       1.0  0.4118250722158692  0.25936181512258116  0.9133937643373642  1.0000
  C   C89       1.0  0.34272699262405126  0.37227439917366933  0.874310098622139  1.0000
  C   C90       1.0  0.40946742936841213  0.38064497164035066  0.8756410647861587  1.0000
  C   C91       1.0  0.9434444478701849  0.7934293732957871  0.8494254045966014  1.0000
  C   C92       1.0  0.8046513014676789  0.9534762260208324  0.9010381360053471  1.0000
  C   C93       1.0  0.9899881721528627  0.8320638088000724  0.8356180196949409  1.0000
  C   C94       1.0  0.7576389649281408  0.9152042507074686  0.9142848531959161  1.0000
  C   C95       1.0  0.8724859479542459  0.9088269276843947  0.8772707182364241  1.0000
  C   C96       1.0  0.8758155363665096  0.8379607060951247  0.8732747405545707  1.0000
  S   S1        1.0  0.29560719798480045  0.32570626018234367  0.3972519957514605  1.0000
  S   S2        1.0  0.44996126363063377  0.4243244701077912  0.3537874432779163  1.0000
  S   S3        1.0  0.6650401634370552  0.6278082556844778  0.5615951185340506  1.0000
  S   S4        1.0  0.5911112354402376  0.6164120115074215  0.6883312141341733  1.0000
  S   S5        1.0  0.1346862322056026  0.15953788625464685  0.5624663628788298  1.0000
  S   S6        1.0  0.12060292212324698  0.0868035680180199  0.6894391917721591  1.0000
  S   S7        1.0  0.9716090136385985  0.8056412909444574  0.40173753512154775  1.0000
  S   S8        1.0  0.7753561392292099  0.9472591909747056  0.3445028859616599  1.0000
  S   S9        1.0  0.6157157343640307  0.5883552688413758  0.1882876567320579  1.0000
  S   S10       1.0  0.6333767578472304  0.6616412062363964  0.06153504170262639  1.0000
  S   S11       1.0  0.013126150267034098  0.18287824496411534  0.11210322737996138  1.0000
  S   S12       1.0  0.2391792451148475  0.06609731702096164  0.1389614194032021  1.0000
  S   S13       1.0  0.2780356587098751  0.44912628419815814  0.8467719479306978  1.0000
  S   S14       1.0  0.4740702568159277  0.3038382739059529  0.9032867512512651  1.0000
  S   S15       1.0  0.9513003813517925  0.9221790766929487  0.8518633158316219  1.0000
  S   S16       1.0  0.7963837264749002  0.8251052843514655  0.8980623416269109  1.0000
  S   S17       1.0  0.7552846043565608  0.5419365688886445  0.4060537525935857  1.0000
  S   S18       1.0  0.1772224964914386  0.6631402869682006  0.5267619961898901  1.0000
  S   S19       1.0  0.7147984656740645  0.2309167572606087  0.07990258839582512  1.0000
  S   S20       1.0  0.21015001659501553  0.9944480570937982  0.8442273163524587  1.0000
  O   O1        1.0  0.0008630589182416997  0.4981344981077099  0.5003354211387148  1.0000
  O   O2        1.0  0.0793583076269613  0.313630524146511  0.5235016781794782  1.0000
  O   O3        1.0  0.047651933506536195  0.5200626080104627  0.5832955668263009  1.0000
  O   O4        1.0  0.1544272306978911  0.5040672289404426  0.4518107831359827  1.0000
  O   O5        1.0  0.024629818686776193  0.37323984635448676  0.5816130417910514  1.0000
  O   O6        1.0  0.14929293907444927  0.3931118105000663  0.44432013877317894  1.0000
  O   O7        1.0  0.054806150167884496  0.6079643277016942  0.5301874492564594  1.0000
  O   O8        1.0  0.0035660414151052994  0.6586167458536564  0.4472113326161207  1.0000
  O   O9        1.0  0.9076713249353073  0.5077630975673699  0.4308144412469731  1.0000
  O   O10       1.0  0.887419629685361  0.6567960013514382  0.4488174002559261  1.0000
  O   O11       1.0  0.9870183708750557  0.38493107248471875  0.4473313974734411  1.0000
  O   O12       1.0  0.8794443816165864  0.532515719643428  0.5818440284115667  1.0000
  O   O13       1.0  0.818687247489933  0.5692294067231601  0.5235975151780322  1.0000
  O   O14       1.0  0.7482429710329582  0.25265069400286694  0.2510566011827322  1.0000
  O   O15       1.0  0.5936231586022558  0.35913005956197724  0.3045302734873871  1.0000
  O   O16       1.0  0.654337190693802  0.1783410061458782  0.21706674588203603  1.0000
  O   O17       1.0  0.7214606212936799  0.3742533161984128  0.16947083959679785  1.0000
  O   O18       1.0  0.5937741776262015  0.24398691558177177  0.3013703888648465  1.0000
  O   O19       1.0  0.6707489530361099  0.4352356123875368  0.22739546897680193  1.0000
  O   O20       1.0  0.745318180632175  0.19403352134480664  0.16888731426222847  1.0000
  O   O21       1.0  0.8788800079248132  0.22668889558681124  0.16963183265055187  1.0000
  O   O22       1.0  0.8605607528962976  0.25874499204606144  0.30919105296158017  1.0000
  O   O23       1.0  0.9343914862178264  0.17651573354953606  0.22950794586326137  1.0000
  O   O24       1.0  0.7494350614213798  0.36616530573826384  0.30949309134751257  1.0000
  O   O25       1.0  0.7469344939457441  0.09145584764529263  0.29537795543892287  1.0000
  O   O26       1.0  0.8545238165203272  0.10203182523413551  0.30465714561018586  1.0000
  O   O27       1.0  0.250728099595328  0.7481211005981763  0.7491744541482247  1.0000
  O   O28       1.0  0.37679144242984813  0.7209020865616083  0.6678453076973836  1.0000
  O   O29       1.0  0.3650902158480775  0.7650769528220992  0.8013114024450374  1.0000
  O   O30       1.0  0.1767430538964732  0.932084262600867  0.7280814381508733  1.0000
  O   O31       1.0  0.43671332997271856  0.6720333173002261  0.7264111239530422  1.0000
  O   O32       1.0  0.22453331274864743  0.8732782116985618  0.6693697446134904  1.0000
  O   O33       1.0  0.24215668362300133  0.8432576867544699  0.8185110803057539  1.0000
  O   O34       1.0  0.0922415128495615  0.8573815136415565  0.8013785599169978  1.0000
  O   O35       1.0  0.16439660458335936  0.6617210824855563  0.718628175734949  1.0000
  O   O36       1.0  0.09328727890090957  0.741603164582429  0.7990837706170311  1.0000
  O   O37       1.0  0.21994736792785116  0.7166482333099042  0.6641630167344559  1.0000
  O   O38       1.0  0.35840006153747334  0.6028929824712463  0.8060084151672767  1.0000
  O   O39       1.0  0.2496428498906481  0.5921661903909695  0.7990036474971588  1.0000
  O   O40       1.0  0.49985875169812016  0.9999814331050915  0.9998799313072125  1.0000
  O   O41       1.0  0.5027645678401242  0.15895815399648683  0.9502943464508038  1.0000
  O   O42       1.0  0.3884608292082489  0.9954263980355623  0.9404712648788232  1.0000
  O   O43       1.0  0.6525175685029792  0.8924780237076605  0.9462928423744331  1.0000
  O   O44       1.0  0.3912781681670622  0.15220896247603832  0.9450996480577628  1.0000
  O   O45       1.0  0.6551837741349259  0.0059383339498496855  0.9505884070639751  1.0000
  O   O46       1.0  0.49663306363232324  0.8851896441091258  0.9411132555481883  1.0000
  O   O47       1.0  0.5762899560915926  0.8158675724120243  0.022752421543806606  1.0000
  O   O48       1.0  0.531637981981106  0.031922863090230374  0.08640217312942872  1.0000
  O   O49       1.0  0.5276002636692994  0.875722194935669  0.08103627033353435  1.0000
  O   O50       1.0  0.5837357396024955  0.08789603557650597  0.030836683472863103  1.0000
  O   O51       1.0  0.3167283179833332  0.07398361866997058  0.021529847177788504  1.0000
  O   O52       1.0  0.37402056579442433  0.027903786905099537  0.0810610328794112  1.0000
  O   O53       1.0  0.7953230356688791  0.5976379658357657  0.3870565755966524  1.0000
  O   O54       1.0  0.6890669489261539  0.5680922161589521  0.3849918938527919  1.0000
  O   O55       1.0  0.7484357255781332  0.5328790049188327  0.4504796420855541  1.0000
  O   O56       1.0  0.09980264781258798  0.7178544683781071  0.5077518526361473  1.0000
  O   O57       1.0  0.21824074387793496  0.7088931015431541  0.5246752924567559  1.0000
  O   O58       1.0  0.21259001963921514  0.5925878867299161  0.5090663075840923  1.0000
  O   O59       1.0  0.7998077028461735  0.18448100693142797  0.09126514488615811  1.0000
  O   O60       1.0  0.7192791013841385  0.23099678806798368  0.036274563802088336  1.0000
  O   O61       1.0  0.6786350041764279  0.3012872630603312  0.0977803121224952  1.0000
  O   O62       1.0  0.1542864678260898  0.9541204208530235  0.8619367215039658  1.0000
  O   O63       1.0  0.18418907146613608  0.059033889860003796  0.8662048266512556  1.0000
  O   O64       1.0  0.21933799398021847  0.003629473192866344  0.7997598873994036  1.0000
  O   O65       1.0  0.282067183570561  0.5252247931584719  0.4105652544555127  1.0000
  O   O66       1.0  0.4628877415678259  0.22445850799305608  0.34119009644696513  1.0000
  O   O67       1.0  0.7827629170136419  0.5421072201356552  0.6568918905405071  1.0000
  O   O68       1.0  0.473615302232467  0.7035186539214354  0.5930931285626002  1.0000
  O   O69       1.0  0.042416092809681095  0.27749191510793736  0.6567424013599635  1.0000
  O   O70       1.0  0.21094907593263196  0.9687978836001249  0.5950849813617012  1.0000
  O   O71       1.0  0.7857620440460308  0.7780481027574524  0.39998073980329  1.0000
  O   O72       1.0  0.9607306993993062  0.974790055675065  0.3480209348723449  1.0000
  O   O73       1.0  0.7093599606390909  0.469839626580601  0.09444322979157252  1.0000
  O   O74       1.0  0.5410119497410193  0.7787473421358725  0.15612092204157335  1.0000
  O   O75       1.0  0.09574496424997388  0.1029151951335905  0.21888657645832407  1.0000
  O   O76       1.0  0.15675973934952475  0.1451474931477749  0.032179214812799686  1.0000
  O   O77       1.0  0.46513887094380374  0.4735269913573818  0.8501587087304614  1.0000
  O   O78       1.0  0.2869264211036793  0.2795331239379237  0.8999920540933458  1.0000
  O   O79       1.0  0.9616450279874297  0.722685198017345  0.840613452467636  1.0000
  O   O80       1.0  0.7863321927337097  0.024007061831838452  0.9100369223930753  1.0000
