data_image0
_chemical_formula_structural       Cd2H28C24Br4N4
_chemical_formula_sum              "Cd2 H28 C24 Br4 N4"
_cell_length_a       3.9961667241022862
_cell_length_b       11.472117582304772
_cell_length_c       14.850193722085196
_cell_angle_alpha    90.00035513818301
_cell_angle_beta     89.99991007577722
_cell_angle_gamma    88.03256055297899

_space_group_name_H-M_alt    "P 1"
_space_group_IT_number       1

loop_
  _space_group_symop_operation_xyz
  'x, y, z'

loop_
  _atom_site_type_symbol
  _atom_site_label
  _atom_site_symmetry_multiplicity
  _atom_site_fract_x
  _atom_site_fract_y
  _atom_site_fract_z
  _atom_site_occupancy
  Cd  Cd1       1.0  1.0096694985900002e-05  1.8179127856400004e-05  7.407350686599998e-06  1.0000
  Cd  Cd2       1.0  1.3681180107000154e-05  0.5000008768200317  0.4999973178796963  1.0000
  H   H1        1.0  0.7463179664527784  0.9028991496480928  0.8062392326907711  1.0000
  H   H2        1.0  0.7463353734032764  0.4029021184589964  0.6937661523921433  1.0000
  H   H3        1.0  0.25367072664732865  0.097092200373865  0.19375118559820237  1.0000
  H   H4        1.0  0.25366337385364085  0.5970978227289052  0.3062276328741973  1.0000
  H   H5        1.0  0.0156679704864189  0.13600052095694076  0.5913178478092148  1.0000
  H   H6        1.0  0.0156423655425257  0.6360194309516986  0.9086818579991628  1.0000
  H   H7        1.0  0.9844058425502525  0.8639871503812414  0.40869277221290895  1.0000
  H   H8        1.0  0.9843088507161895  0.36399069269948103  0.0913119272989604  1.0000
  H   H9        1.0  0.263292228584838  0.2625243842351637  0.706688979693233  1.0000
  H   H10       1.0  0.2632800243850539  0.7625430344123603  0.793315932563317  1.0000
  H   H11       1.0  0.7367865612486568  0.7374562514684868  0.2933209669199853  1.0000
  H   H12       1.0  0.7367337847632813  0.23746543536913836  0.20668323985503173  1.0000
  H   H13       1.0  0.2388976016516438  0.20217060605566672  0.8705378865787239  1.0000
  H   H14       1.0  0.238896550864105  0.7021633407118414  0.6294741647000419  1.0000
  H   H15       1.0  0.761083568142446  0.7978182230403161  0.1294754270300231  1.0000
  H   H16       1.0  0.7610946692746268  0.29783320785614353  0.3705277012625173  1.0000
  H   H17       1.0  0.9071477008520717  0.8862667744183597  0.5767721258431422  1.0000
  H   H18       1.0  0.9071357772815888  0.3862624387452982  0.9232344727458324  1.0000
  H   H19       1.0  0.0928585734871703  0.11373655942929864  0.4232230062134262  1.0000
  H   H20       1.0  0.0928253963982968  0.6137344853137066  0.07676874000669187  1.0000
  H   H21       1.0  0.5305665004660014  0.9718830308617686  0.5781144589495425  1.0000
  H   H22       1.0  0.5305521180618129  0.4718865598050285  0.921889298842366  1.0000
  H   H23       1.0  0.46944728548411524  0.02812020911740379  0.42188134649737197  1.0000
  H   H24       1.0  0.469419098215468  0.5281163404746465  0.07810515982752969  1.0000
  H   H25       1.0  0.588600157796627  0.853631283866015  0.6545259752383429  1.0000
  H   H26       1.0  0.588598879827707  0.35363488221517503  0.8454758727420424  1.0000
  H   H27       1.0  0.4114036088132096  0.14637120962935768  0.3454664632491883  1.0000
  H   H28       1.0  0.4113673016354369  0.6463619792174098  0.15451656573922884  1.0000
  C   C1        1.0  0.85999612865929  0.98155092306596  0.7806518479703966  1.0000
  C   C2        1.0  0.8600283719590822  0.4815556636296918  0.7193511640894386  1.0000
  C   C3        1.0  0.1400025953584318  0.0184437883651469  0.2193493445947325  1.0000
  C   C4        1.0  0.13996035592682432  0.5184435311085593  0.28064733492018945  1.0000
  C   C5        1.0  0.8618023193911597  0.0067303087116457  0.6884851574401338  1.0000
  C   C6        1.0  0.8618324729310062  0.5067328914016116  0.8115129822086471  1.0000
  C   C7        1.0  0.1381738852654024  0.993268170853156  0.3115146883538458  1.0000
  C   C8        1.0  0.1381737743235831  0.49326434103228667  0.1884834966177138  1.0000
  C   C9        1.0  0.008648159321872101  0.11043152175246722  0.6620502010158091  1.0000
  C   C10       1.0  0.0086179956339905  0.6104298490738813  0.8379581440315531  1.0000
  C   C11       1.0  0.9913881536879999  0.8895696933983855  0.33795705208458315  1.0000
  C   C12       1.0  0.9913632012959682  0.3895650813789473  0.16204035496962627  1.0000
  C   C13       1.0  0.1450429341962121  0.18244349883198646  0.7268299683483121  1.0000
  C   C14       1.0  0.1450508793575835  0.6824538837762192  0.7731719248383015  1.0000
  C   C15       1.0  0.8549832898684854  0.8175412804394709  0.2731665104459466  1.0000
  C   C16       1.0  0.8549453949736617  0.3175530617557669  0.22682253383644013  1.0000
  C   C17       1.0  0.13178016698996942  0.1500175143301661  0.8169977436281357  1.0000
  C   C18       1.0  0.1318112786523001  0.6500146528194577  0.6830087192134895  1.0000
  C   C19       1.0  0.8682085570376756  0.8499808087653449  0.1829980618119365  1.0000
  C   C20       1.0  0.868214972479123  0.34997622788567634  0.31699112655419975  1.0000
  C   C21       1.0  0.7140316823983143  0.9254024200795142  0.621317796648327  1.0000
  C   C22       1.0  0.7140502099211544  0.4254121501360686  0.8786755820636711  1.0000
  C   C23       1.0  0.2859645532632554  0.07459580912190938  0.3786726216550917  1.0000
  C   C24       1.0  0.2859360334566219  0.5745914340266083  0.12131752982135419  1.0000
  Br  Br1       1.0  0.48631580970269533  0.168609084646782  0.0323561074789396  1.0000
  Br  Br2       1.0  0.4862996286080801  0.6685961174409343  0.46764989230171483  1.0000
  Br  Br3       1.0  0.5136405457326845  0.8314306119946621  0.9676625933859879  1.0000
  Br  Br4       1.0  0.5137191843961162  0.3314114181482424  0.5323539938568231  1.0000
  N   N1        1.0  0.9917579329930105  0.05087010735322651  0.8434704192348619  1.0000
  N   N2        1.0  0.9917943040483974  0.550878290741423  0.6565352841931967  1.0000
  N   N3        1.0  0.0082307561720043  0.9491203711113626  0.1565375072412252  1.0000
  N   N4        1.0  0.0082395012371919  0.4491220840514528  0.3434679285543751  1.0000
