data_image0
_chemical_formula_structural       Cd2H32C32I4N16
_chemical_formula_sum              "Cd2 H32 C32 I4 N16"
_cell_length_a       8.151027919012229
_cell_length_b       8.798889342415762
_cell_length_c       16.53739017600367
_cell_angle_alpha    90.00006787028192
_cell_angle_beta     90.00000249964974
_cell_angle_gamma    116.06261400847335

_space_group_name_H-M_alt    "P 1"
_space_group_IT_number       1

loop_
  _space_group_symop_operation_xyz
  'x, y, z'

loop_
  _atom_site_type_symbol
  _atom_site_label
  _atom_site_symmetry_multiplicity
  _atom_site_fract_x
  _atom_site_fract_y
  _atom_site_fract_z
  _atom_site_occupancy
  Cd  Cd1       1.0  0.9999998340659886  0.49999923065845314  0.4999998510040555  1.0000
  Cd  Cd2       1.0  0.9999988685710548  1.4291481349003741e-06  6.150914516000001e-07  1.0000
  H   H1        1.0  0.523708867715122  0.3282973510814387  0.44644903061531244  1.0000
  H   H2        1.0  0.4762923058409426  0.17170327333214888  0.9464492774522456  1.0000
  H   H3        1.0  0.4762933395553974  0.6717025185216913  0.5535500771036083  1.0000
  H   H4        1.0  0.523708677907223  0.8282966032252332  0.0535504349570033  1.0000
  H   H5        1.0  0.8642808942312854  0.08499716330458539  0.4214897586946479  1.0000
  H   H6        1.0  0.13571841378141866  0.41500213339804753  0.9214895481749324  1.0000
  H   H7        1.0  0.13571642894388708  0.9150001968876893  0.5785099537137699  1.0000
  H   H8        1.0  0.8642813464439668  0.5849977501127339  0.07851016423430932  1.0000
  H   H9        1.0  0.2214854355286064  0.06334451565054879  0.4201461232142308  1.0000
  H   H10       1.0  0.7785144773498587  0.4366560424451933  0.9201459398084995  1.0000
  H   H11       1.0  0.7785137179339185  0.93665410272596  0.5798547985752693  1.0000
  H   H12       1.0  0.22148588963966634  0.5633451062023981  0.0798543772914755  1.0000
  H   H13       1.0  0.23214963532640803  0.8726380946580575  0.3948183207898239  1.0000
  H   H14       1.0  0.7678504171534114  0.6273619916488684  0.8948185455490858  1.0000
  H   H15       1.0  0.7678495181352645  0.12736052371676723  0.6051813916190059  1.0000
  H   H16       1.0  0.23215117335846705  0.37263915004447057  0.10518116686057513  1.0000
  H   H17       1.0  0.5041893080667562  0.08273015797134779  0.2378241354307633  1.0000
  H   H18       1.0  0.49581034727084733  0.41726989224023475  0.7378245385308446  1.0000
  H   H19       1.0  0.4958080151088425  0.9172672022217726  0.7621761816679823  1.0000
  H   H20       1.0  0.5041918500051707  0.5827325145898994  0.2621757785695494  1.0000
  H   H21       1.0  0.39487071828872183  0.09090692041349509  0.0987610818645095  1.0000
  H   H22       1.0  0.6051281238545059  0.4090940145066568  0.5987614820491843  1.0000
  H   H23       1.0  0.6051284351733698  0.909091697962168  0.9012392352346553  1.0000
  H   H24       1.0  0.39487224313501923  0.5909071341409348  0.40123883505079055  1.0000
  H   H25       1.0  0.8786374605839598  0.9995720991040359  0.180470156724688  1.0000
  H   H26       1.0  0.12136288588347101  0.5004311924645535  0.6804696827839578  1.0000
  H   H27       1.0  0.1213616828827853  0.0004290564969550999  0.8195301603752796  1.0000
  H   H28       1.0  0.8786387046284075  0.49956994922877834  0.319530029625696  1.0000
  H   H29       1.0  0.9622103033031164  0.9723834984953045  0.32352295081803834  1.0000
  H   H30       1.0  0.037788414949318366  0.5276189333863924  0.8235230970850724  1.0000
  H   H31       1.0  0.0377882333994819  0.02761639196888409  0.6764767615911892  1.0000
  H   H32       1.0  0.9622119520402066  0.47238221526119156  0.17647722001490962  1.0000
  C   C1        1.0  0.578341289345417  0.23908573240507278  0.4316407412673869  1.0000
  C   C2        1.0  0.4216586397702571  0.260914857711306  0.931641043588961  1.0000
  C   C3        1.0  0.42165786411624845  0.7609128859697519  0.5683589711414427  1.0000
  C   C4        1.0  0.5783429507416215  0.7390862839820257  0.06835866882069301  1.0000
  C   C5        1.0  0.7465681783211053  0.11160741074193942  0.4174758314733893  1.0000
  C   C6        1.0  0.2534317307857989  0.38839313991609004  0.9174762112039263  1.0000
  C   C7        1.0  0.2534309751409936  0.8883912076337309  0.5825244856257754  1.0000
  C   C8        1.0  0.7465686362037188  0.611608008731494  0.0825241058960557  1.0000
  C   C9        1.0  0.28683402292711685  0.007468708720693901  0.3792926224619322  1.0000
  C   C10       1.0  0.7131646087208805  0.4925317425258483  0.8792930778505765  1.0000
  C   C11       1.0  0.7131639070117757  0.9925299166075376  0.6207070899468904  1.0000
  C   C12       1.0  0.28683575826821783  0.5074694061208973  0.1207066345590704  1.0000
  C   C13       1.0  0.24087270975608274  0.025956809360373298  0.2927487424634521  1.0000
  C   C14       1.0  0.7591264164023029  0.47404212871595774  0.7927491870735964  1.0000
  C   C15       1.0  0.7591258369418766  0.9740405438784946  0.7072509699449727  1.0000
  C   C16       1.0  0.24087273705978873  0.5259564896597126  0.2072511300255684  1.0000
  C   C17       1.0  0.3633520435668912  0.061323970158120696  0.22845505512760414  1.0000
  C   C18       1.0  0.6366482053000266  0.4386773190904805  0.7284554747438323  1.0000
  C   C19       1.0  0.6366471098943478  0.9386746482158657  0.7715440525908905  1.0000
  C   C20       1.0  0.36335338521185173  0.5613238226028585  0.27154423766582175  1.0000
  C   C21       1.0  0.3028262901517992  0.06722296538990949  0.1501706362637734  1.0000
  C   C22       1.0  0.6971714010878927  0.4327781196926209  0.6501710533949422  1.0000
  C   C23       1.0  0.6971716397875126  0.9327756599391676  0.8498296808353772  1.0000
  C   C24       1.0  0.30282896590120595  0.5672230289541176  0.34982865901470467  1.0000
  C   C25       1.0  0.014871964988984097  0.013759814932385001  0.1960333547353983  1.0000
  C   C26       1.0  0.9851270145570579  0.48624139095336716  0.6960332070982673  1.0000
  C   C27       1.0  0.9851265717140407  0.9862400755326489  0.8039669623641645  1.0000
  C   C28       1.0  0.014873352432466912  0.5137597576942169  0.3039671100017146  1.0000
  C   C29       1.0  0.0631212418948479  0.0025619411870963  0.2754533802384884  1.0000
  C   C30       1.0  0.9368796801230488  0.4974407441166449  0.775452634014961  1.0000
  C   C31       1.0  0.9368791250946773  0.9974392074604881  0.7245469368614935  1.0000
  C   C32       1.0  0.06312191038882994  0.502560397576687  0.2245470783946928  1.0000
  I   I1        1.0  0.802724409308759  0.7038161248023372  0.4583923914849066  1.0000
  I   I2        1.0  0.19727694650092084  0.7961866688716484  0.958392711524745  1.0000
  I   I3        1.0  0.19727352063012651  0.2961825005258944  0.541607320923916  1.0000
  I   I4        1.0  0.8027246340160302  0.20381701004784955  0.0416076055760541  1.0000
  N   N1        1.0  0.4801575777382681  0.08582275857666839  0.39852603481228505  1.0000
  N   N2        1.0  0.5198423046008713  0.414177739293919  0.8985264364495862  1.0000
  N   N3        1.0  0.5198415757233974  0.9141758597981564  0.6014736775965446  1.0000
  N   N4        1.0  0.48015806238865366  0.5858234093536653  0.10147388065039561  1.0000
  N   N5        1.0  0.5856008475095678  0.0019688521757287997  0.38875723694214065  1.0000
  N   N6        1.0  0.4143990310259226  0.49802908125717227  0.8887576896059104  1.0000
  N   N7        1.0  0.4143989227111646  0.9980284941097324  0.6112424754662912  1.0000
  N   N8        1.0  0.5856019527222429  0.5019707953002097  0.11124202280333861  1.0000
  N   N9        1.0  0.7483377248448234  0.2590398661832438  0.44457930845855037  1.0000
  N   N10       1.0  0.25166283930644784  0.24095948788605168  0.9445795945790324  1.0000
  N   N11       1.0  0.2516620353801287  0.7409600173266994  0.5554197992603491  1.0000
  N   N12       1.0  0.7483381444417176  0.7590403886713304  0.055420117830209406  1.0000
  N   N13       1.0  0.13165630789051616  0.043440566128275286  0.13389901472086763  1.0000
  N   N14       1.0  0.8683444141733504  0.45656172485556823  0.6338988458169653  1.0000
  N   N15       1.0  0.8683434523357221  0.9565593173841904  0.8661019070690373  1.0000
  N   N16       1.0  0.1316577930980217  0.5434381447492457  0.3661014712826329  1.0000
