data_image0
_chemical_formula_structural       Cd4H36C60N12O16
_chemical_formula_sum              "Cd4 H36 C60 N12 O16"
_cell_length_a       9.06496652900199
_cell_length_b       11.356974909597534
_cell_length_c       13.618510231780094
_cell_angle_alpha    95.8043366222933
_cell_angle_beta     89.99998836018436
_cell_angle_gamma    89.99992646342048

_space_group_name_H-M_alt    "P 1"
_space_group_IT_number       1

loop_
  _space_group_symop_operation_xyz
  'x, y, z'

loop_
  _atom_site_type_symbol
  _atom_site_label
  _atom_site_symmetry_multiplicity
  _atom_site_fract_x
  _atom_site_fract_y
  _atom_site_fract_z
  _atom_site_occupancy
  Cd  Cd1       1.0  0.051409591393877505  0.40480620579352694  0.6083563915167362  1.0000
  Cd  Cd2       1.0  0.5514094384409205  0.09519416064053131  0.8916440685076524  1.0000
  Cd  Cd3       1.0  0.9485909407639356  0.5951947146454729  0.3916439577241989  1.0000
  Cd  Cd4       1.0  0.44859109371762435  0.9048058747709575  0.10835621175063183  1.0000
  H   H1        1.0  0.4681558446937403  0.3271309394277965  0.4078388676698026  1.0000
  H   H2        1.0  0.9681567588715442  0.17286902901145854  0.0921612005518995  1.0000
  H   H3        1.0  0.5318424811694556  0.6728682109573398  0.5921613436060867  1.0000
  H   H4        1.0  0.0318404638413341  0.8271327832767027  0.9078399525201492  1.0000
  H   H5        1.0  0.2723170207299503  0.6625343388185243  0.3605102858837982  1.0000
  H   H6        1.0  0.7723165526207865  0.8374664357672759  0.13948992365322976  1.0000
  H   H7        1.0  0.7276813051359879  0.33746212238450113  0.6394860442037286  1.0000
  H   H8        1.0  0.22768287638827905  0.16253536969981042  0.8605104945704911  1.0000
  H   H9        1.0  0.6436864188808542  0.5352276342591652  0.18623640585656182  1.0000
  H   H10       1.0  0.14368531102828547  0.9647714985735905  0.31376296010127913  1.0000
  H   H11       1.0  0.35631742272311584  0.4647706379154855  0.813764471284131  1.0000
  H   H12       1.0  0.8563163242786302  0.03522851637756472  0.6862351156126325  1.0000
  H   H13       1.0  0.7276493823789281  0.33520155964327364  0.19083925622084055  1.0000
  H   H14       1.0  0.2276487589665166  0.16479688456473704  0.30915999384802023  1.0000
  H   H15       1.0  0.27235335607663563  0.6647975770997122  0.8091594853583788  1.0000
  H   H16       1.0  0.7723517731929732  0.8352022521794072  0.6908387477314477  1.0000
  H   H17       1.0  0.7845232560992841  0.34473926718160197  0.31601332674664934  1.0000
  H   H18       1.0  0.2845226852725133  0.15526089415747893  0.183986783209761  1.0000
  H   H19       1.0  0.21547727605986472  0.6552598900222932  0.6839876193770708  1.0000
  H   H20       1.0  0.7154778468861381  0.8447391344340929  0.8160127622004439  1.0000
  H   H21       1.0  0.5551739554906591  0.8498250767650862  0.3507651422090775  1.0000
  H   H22       1.0  0.05517230004132052  0.650175047714278  0.14923578254403944  1.0000
  H   H23       1.0  0.4448265766693282  0.1501731885913813  0.6492350000839056  1.0000
  H   H24       1.0  0.9448304384116142  0.34982677139090873  0.8507661053754634  1.0000
  H   H25       1.0  0.720918599958175  0.8701946817264035  0.496806095321226  1.0000
  H   H26       1.0  0.22091922704028386  0.6298070318784212  0.003194194879739614  1.0000
  H   H27       1.0  0.27908082905317144  0.12980446183824063  0.5031933811064491  1.0000
  H   H28       1.0  0.7790802019707215  0.37019213214597363  0.9968074860921803  1.0000
  H   H29       1.0  0.8534657901082524  0.0606948047660794  0.5460020464644018  1.0000
  H   H30       1.0  0.3534657847076162  0.4393052443693578  0.9539983449110636  1.0000
  H   H31       1.0  0.14653363890347043  0.9393034742308048  0.4539995655248675  1.0000
  H   H32       1.0  0.646532541155203  0.5606947705835383  0.04599973080322433  1.0000
  H   H33       1.0  0.8239961681369579  0.2336097399917493  0.45303909675205034  1.0000
  H   H34       1.0  0.3239954591027256  0.2663903730626984  0.046960269385202515  1.0000
  H   H35       1.0  0.17600215772528574  0.7663903090607319  0.5469626532026484  1.0000
  H   H36       1.0  0.6760039699087345  0.7336087636820282  0.9530384721943934  1.0000
  C   C1        1.0  0.5693332154642547  0.4196280451372091  0.2931034562685043  1.0000
  C   C2        1.0  0.06933275842347801  0.0803714572232579  0.2068966336119047  1.0000
  C   C3        1.0  0.4306684198436486  0.5803702270385999  0.7068974208724371  1.0000
  C   C4        1.0  0.9306655674376643  0.9196303414244938  0.7931030497638576  1.0000
  C   C5        1.0  0.4670250610473802  0.4052694696507048  0.3674624888755532  1.0000
  C   C6        1.0  0.9670249859012402  0.0947304999769116  0.1325375796032517  1.0000
  C   C7        1.0  0.5329743679638455  0.5947296807338489  0.6325377224002012  1.0000
  C   C8        1.0  0.03297333996062691  0.905270413643322  0.8674620347898525  1.0000
  C   C9        1.0  0.3597714197585162  0.49224063878084945  0.3923841420830386  1.0000
  C   C10       1.0  0.859772595228698  0.007759429872152202  0.10761448107520982  1.0000
  C   C11       1.0  0.6402302155502255  0.5077567415475315  0.6076159312271657  1.0000
  C   C12       1.0  0.14022683377987016  0.9922432469826107  0.8923845364349959  1.0000
  C   C13       1.0  0.3547807036575534  0.5938720661324481  0.34238649544366245  1.0000
  C   C14       1.0  0.8547790164390463  0.9061277299816058  0.15761289152109012  1.0000
  C   C15       1.0  0.6452187253548587  0.4061261719449263  0.657610707457124  1.0000
  C   C16       1.0  0.1452193094226999  0.09387319045855241  0.8423874577201007  1.0000
  C   C17       1.0  0.45554114214566255  0.6075386381731889  0.26664881839678156  1.0000
  C   C18       1.0  0.9555405575584359  0.8924610589151952  0.2333512805158976  1.0000
  C   C19       1.0  0.544460493163193  0.3924587353352749  0.7333505200653436  1.0000
  C   C20       1.0  0.044459974599611506  0.10753984788397024  0.7666475990288718  1.0000
  C   C21       1.0  0.5632547955009743  0.5211129828902374  0.24323538048163584  1.0000
  C   C22       1.0  0.0632525787222846  0.9788862412533774  0.2567647386042681  1.0000
  C   C23       1.0  0.4367479429558045  0.4788843974375681  0.7567646928284477  1.0000
  C   C24       1.0  0.9367468502868949  0.021115557393791604  0.7432349447713662  1.0000
  C   C25       1.0  0.6892079762582597  0.32939686310300703  0.2666404466089817  1.0000
  C   C26       1.0  0.18920736604117397  0.1706025133336624  0.23335961602727207  1.0000
  C   C27       1.0  0.31079365904964357  0.670601409072802  0.7333604305319599  1.0000
  C   C28       1.0  0.8107931661174846  0.8293975152579094  0.766639929382933  1.0000
  C   C29       1.0  0.6776515413228311  0.136093222306954  0.3458744999531619  1.0000
  C   C30       1.0  0.17765284967525471  0.3639061662683077  0.15412556530932872  1.0000
  C   C31       1.0  0.3223456813907717  0.8639077049537036  0.6541265841362361  1.0000
  C   C32       1.0  0.8223454761880619  0.6360929772969116  0.8458739111184814  1.0000
  C   C33       1.0  0.6027092702022827  0.029091341035972107  0.31643963227473654  1.0000
  C   C34       1.0  0.10270929433909261  0.4709081330838815  0.18356118486825326  1.0000
  C   C35       1.0  0.39729126195687303  0.970907816167923  0.6835613138489834  1.0000
  C   C36       1.0  0.8972923409680931  0.5290910241194311  0.8164397612553316  1.0000
  C   C37       1.0  0.6145177350358821  0.9315331898245423  0.37178194699450984  1.0000
  C   C38       1.0  0.11451732056690395  0.5684659736484363  0.1282174255924744  1.0000
  C   C39       1.0  0.3854805908268163  0.0684668319482711  0.6282168635678645  1.0000
  C   C40       1.0  0.885479902145747  0.4315358522795593  0.8717851971757329  1.0000
  C   C41       1.0  0.705817552535784  0.9452065606276252  0.45372385033808643  1.0000
  C   C42       1.0  0.205817184454709  0.5547942906331969  0.04627710916047083  1.0000
  C   C43       1.0  0.2941807733280228  0.05479171154991751  0.5462770268032318  1.0000
  C   C44       1.0  0.794183347702159  0.4452075284731408  0.9537247787592805  1.0000
  C   C45       1.0  0.7813022744393052  0.05255926390422871  0.4818591025344007  1.0000
  C   C46       1.0  0.28130128241554087  0.44744267087361334  0.018141146119397423  1.0000
  C   C47       1.0  0.21869605142233442  0.9474416633558395  0.5181419815548695  1.0000
  C   C48       1.0  0.7186948371493004  0.5525591414151307  0.9818600069527791  1.0000
  C   C49       1.0  0.7677048004429636  0.15077266940146933  0.42977907723769715  1.0000
  C   C50       1.0  0.26770284794534394  0.3492257463703865  0.07022163342400492  1.0000
  C   C51       1.0  0.23229793801430534  0.8492238395386595  0.5702223967858944  1.0000
  C   C52       1.0  0.7322987873615788  0.6507742685807686  0.9297764422899065  1.0000
  C   C53       1.0  0.24994972743296273  0.4730290254515739  0.470510860699207  1.0000
  C   C54       1.0  0.7499497920511118  0.026972935440454603  0.029488660231940907  1.0000
  C   C55       1.0  0.7500485984298566  0.5269709895013223  0.529487215015081  1.0000
  C   C56       1.0  0.250048533809192  0.973029755054718  0.9705118269745514  1.0000
  C   C57       1.0  0.44524979707795614  0.7136761014846441  0.21017985626142632  1.0000
  C   C58       1.0  0.9452482634688836  0.7863244846224903  0.28981957912486683  1.0000
  C   C59       1.0  0.5547529413776078  0.28632303525833447  0.7898188853178001  1.0000
  C   C60       1.0  0.05475226868905031  0.21367642899658532  0.7101800352679889  1.0000
  N   N1        1.0  0.530599792963585  0.0448256976551917  0.22945700101033145  1.0000
  N   N2        1.0  0.030599816568553703  0.45517473042051654  0.2705431666556848  1.0000
  N   N3        1.0  0.46939963604680923  0.9551743445767902  0.77054401409616  1.0000
  N   N4        1.0  0.969401818738142  0.5448252981704799  0.7294563787543924  1.0000
  N   N5        1.0  0.5558662127934684  0.15211830272950524  0.20483212156980105  1.0000
  N   N6        1.0  0.05586529870888061  0.34788121377777514  0.29516797137132766  1.0000
  N   N7        1.0  0.4441354225131064  0.847881732681408  0.7951681586883553  1.0000
  N   N8        1.0  0.9441363365984189  0.6521179366056203  0.7048322399041853  1.0000
  N   N9        1.0  0.6432001809509346  0.20806084013829465  0.27418171864825075  1.0000
  N   N10       1.0  0.14320048072811892  0.29193858462733857  0.22581835444417925  1.0000
  N   N11       1.0  0.3567992480594598  0.7919392020936943  0.7258192964582407  1.0000
  N   N12       1.0  0.8568000514305326  0.7080614439642333  0.7741811909660259  1.0000
  O   O1        1.0  0.15096529009174736  0.5522339436925563  0.4951943383114569  1.0000
  O   O2        1.0  0.6509635812651028  0.9477678297569412  0.004804498092042327  1.0000
  O   O3        1.0  0.8490363452151685  0.44776607125859874  0.5048037374024618  1.0000
  O   O4        1.0  0.3490347445960397  0.052233968890803305  0.9951951852837128  1.0000
  O   O5        1.0  0.25583950575976644  0.37728068618173444  0.5116618003282483  1.0000
  O   O6        1.0  0.7558414860173671  0.1227212355603768  0.9883387512000186  1.0000
  O   O7        1.0  0.7441599232507415  0.62271934923033  0.48833847993016394  1.0000
  O   O8        1.0  0.24415904613900352  0.8772814549336448  0.011661736006225033  1.0000
  O   O9        1.0  0.35600063785630454  0.796089454394327  0.23952004501514076  1.0000
  O   O10       1.0  0.8560003488378883  0.7039112118251651  0.2604779409586797  1.0000
  O   O11       1.0  0.644000997451947  0.20390879732172354  0.7604786275815557  1.0000
  O   O12       1.0  0.1440001833194344  0.2960905800015041  0.7395210075687404  1.0000
  O   O13       1.0  0.5285154180010566  0.7185557570565352  0.13428893755499163  1.0000
  O   O14       1.0  0.0285134867762835  0.7814452736343401  0.3657113273914661  1.0000
  O   O15       1.0  0.4714895267497283  0.2814442715327203  0.8657106078547091  1.0000
  O   O16       1.0  0.9714870453809256  0.2185565250122465  0.6342883559840474  1.0000
