data_image0
_chemical_formula_structural       Cd2H32C40N4Cl4O4
_chemical_formula_sum              "Cd2 H32 C40 N4 Cl4 O4"
_cell_length_a       8.421931188388431
_cell_length_b       12.175089386933209
_cell_length_c       12.804100011889917
_cell_angle_alpha    95.22568286951778
_cell_angle_beta     97.22396609392338
_cell_angle_gamma    103.01341600734214

_space_group_name_H-M_alt    "P 1"
_space_group_IT_number       1

loop_
  _space_group_symop_operation_xyz
  'x, y, z'

loop_
  _atom_site_type_symbol
  _atom_site_label
  _atom_site_symmetry_multiplicity
  _atom_site_fract_x
  _atom_site_fract_y
  _atom_site_fract_z
  _atom_site_occupancy
  Cd  Cd1       1.0  0.9838876719579017  0.1343107668029759  0.942607419922361  1.0000
  Cd  Cd2       1.0  0.016117288897298594  0.8656932378392102  0.05739647754266744  1.0000
  H   H1        1.0  0.5773758071238718  0.08618286414715469  0.9093435241123518  1.0000
  H   H2        1.0  0.422626785109138  0.91381772466184  0.09065915835021343  1.0000
  H   H3        1.0  0.9454173705540682  0.3819036939731717  0.9468677855274594  1.0000
  H   H4        1.0  0.054583219284410255  0.6180942318120514  0.05312985628309971  1.0000
  H   H5        1.0  0.3569085455542976  0.19028709335481864  0.8680270950428127  1.0000
  H   H6        1.0  0.6430938477514161  0.8097125111009834  0.1319700386691026  1.0000
  H   H7        1.0  0.7441911443496777  0.5003015436725775  0.9090913518989014  1.0000
  H   H8        1.0  0.25580988142495903  0.4996970384454968  0.09089855826206164  1.0000
  H   H9        1.0  0.2777342221248134  0.36015384967189595  0.8345313887850526  1.0000
  H   H10       1.0  0.7222693501951483  0.6398423950183628  0.16546721072530352  1.0000
  H   H11       1.0  0.5585254662909732  0.580574797732325  0.8810548356549649  1.0000
  H   H12       1.0  0.4414779980266346  0.419424979775215  0.11894944125737794  1.0000
  H   H13       1.0  0.09144393319498081  0.4539614154555379  0.7858676131492859  1.0000
  H   H14       1.0  0.9085570053982366  0.5460339039796693  0.2141275564098991  1.0000
  H   H15       1.0  0.4993766809121354  0.7523585549444007  0.8589782487922196  1.0000
  H   H16       1.0  0.5006287227584565  0.2476393298258088  0.14101828021946267  1.0000
  H   H17       1.0  0.9114675658381657  0.5824429042874257  0.7308613292224353  1.0000
  H   H18       1.0  0.08853300652738484  0.4175516623383616  0.2691376659862784  1.0000
  H   H19       1.0  0.2999060750764285  0.8685208788631369  0.8001455642506843  1.0000
  H   H20       1.0  0.7000960460622706  0.131474459261284  0.19985049890880194  1.0000
  H   H21       1.0  0.030865090973122764  0.8821317050514496  0.7681659116015499  1.0000
  H   H22       1.0  0.9691356384946344  0.11786390381347189  0.23184097595785158  1.0000
  H   H23       1.0  0.8685416780687802  0.7591294859166524  0.7314132751043235  1.0000
  H   H24       1.0  0.1314584758335471  0.24086778353572666  0.2685920983558462  1.0000
  H   H25       1.0  0.8087522722823266  0.6617435458816914  0.5456213062868189  1.0000
  H   H26       1.0  0.1912548233219127  0.33825617192160706  0.45438096422633845  1.0000
  H   H27       1.0  0.19843042689077353  0.9655195696357523  0.6355838637041489  1.0000
  H   H28       1.0  0.8015610063777957  0.0344836888640785  0.3644226230072648  1.0000
  H   H29       1.0  0.8267883961449699  0.6813276118157673  0.3550519292361899  1.0000
  H   H30       1.0  0.1732136065809087  0.3186746568759986  0.6449500203271585  1.0000
  H   H31       1.0  0.21353630539692875  0.9840648857609297  0.4439311131190068  1.0000
  H   H32       1.0  0.7864559930770126  0.015944337642267208  0.5560766048459274  1.0000
  C   C1        1.0  0.6080913067025479  0.17772424697390926  0.9065166783212394  1.0000
  C   C2        1.0  0.39191222732355874  0.8222754340570546  0.09348369259102902  1.0000
  C   C3        1.0  0.8132522005850404  0.3436238296922126  0.9277520503127977  1.0000
  C   C4        1.0  0.18675225088198744  0.656378360606098  0.07224699925106393  1.0000
  C   C5        1.0  0.4861550876075142  0.23596941032119642  0.8833280245763294  1.0000
  C   C6        1.0  0.5138454882892701  0.7640285347593403  0.11667039843424483  1.0000
  C   C7        1.0  0.7001521342345993  0.4084277379778952  0.9060592659729709  1.0000
  C   C8        1.0  0.29984994861023756  0.5915710364872311  0.09393856858842753  1.0000
  C   C9        1.0  0.5310086951066922  0.35423435700530354  0.8820975787258621  1.0000
  C   C10       1.0  0.46899068430291635  0.6457635886813335  0.11790073188443277  1.0000
  C   C11       1.0  0.402649676320756  0.4142273000480614  0.8559272132891496  1.0000
  C   C12       1.0  0.597350616998547  0.5857697764511726  0.14407034817087094  1.0000
  C   C13       1.0  0.43314902623811236  0.5283687332263795  0.8564315901455688  1.0000
  C   C14       1.0  0.5668503531714891  0.4716292124602574  0.14356672046472604  1.0000
  C   C15       1.0  0.313698914525844  0.5925859806651914  0.8253855291296406  1.0000
  C   C16       1.0  0.686303154377299  0.40741281309524885  0.17461308663176575  1.0000
  C   C17       1.0  0.14415589858975147  0.5449798337203333  0.7893923071753408  1.0000
  C   C18       1.0  0.8558464911847281  0.45501639228071866  0.2106053987347139  1.0000
  C   C19       1.0  0.3702356009355229  0.7115497934848778  0.8295527884035397  1.0000
  C   C20       1.0  0.6297632133191158  0.2884464150391395  0.17044379910564092  1.0000
  C   C21       1.0  0.04280172870237921  0.6142446362695964  0.7581921236716769  1.0000
  C   C22       1.0  0.9572025063644247  0.3857532105160786  0.2418027305396891  1.0000
  C   C23       1.0  0.2633038889538356  0.7765883050564993  0.7969226944149032  1.0000
  C   C24       1.0  0.7366951939365834  0.22340879134414143  0.20307553584484597  1.0000
  C   C25       1.0  0.9932936319198689  0.799613970828432  0.7184494737264091  1.0000
  C   C26       1.0  0.0067077881781259  0.20038320154127828  0.2815521061339724  1.0000
  C   C27       1.0  0.004420498498106396  0.8113764142621773  0.6033202562339144  1.0000
  C   C28       1.0  0.9955713009981225  0.1886275970470734  0.3966824048279707  1.0000
  C   C29       1.0  0.8998043987782651  0.7316800256795659  0.5238202576005977  1.0000
  C   C30       1.0  0.1001966760962176  0.2683231314949168  0.4761832223130399  1.0000
  C   C31       1.0  0.11907244865500395  0.9015778149853587  0.5742532395869305  1.0000
  C   C32       1.0  0.8809159917216148  0.09843052235950012  0.4257524984265758  1.0000
  C   C33       1.0  0.9092802987731332  0.7421748101066256  0.41727025839522025  1.0000
  C   C34       1.0  0.09072050746557643  0.25782745919124045  0.5827315787678418  1.0000
  C   C35       1.0  0.1280590587460113  0.9125815067522043  0.46761370409587516  1.0000
  C   C36       1.0  0.8719267200204683  0.0874259439282312  0.53239016636649  1.0000
  C   C37       1.0  0.023025927488255726  0.833043395788252  0.3882434625475641  1.0000
  C   C38       1.0  0.9769683068074287  0.1669605564228647  0.611757079714849  1.0000
  C   C39       1.0  0.026097039136345795  0.8468451792515025  0.2730155514659885  1.0000
  C   C40       1.0  0.9739016288220836  0.15315799843049396  0.7269884848470839  1.0000
  N   N1        1.0  0.7690183471118386  0.23017141352229928  0.927718478115253  1.0000
  N   N2        1.0  0.23098459740713648  0.7698299473914288  0.07228115989779842  1.0000
  N   N3        1.0  0.10240431050827682  0.7279648166606661  0.7603881157044656  1.0000
  N   N4        1.0  0.897595982811019  0.2720322598385678  0.23960944575555496  1.0000
  Cl  Cl1       1.0  0.18037389299823303  0.29025010906538284  0.07376685593968092  1.0000
  Cl  Cl2       1.0  0.8196343886827221  0.7097530058818929  0.9262357359756382  1.0000
  Cl  Cl3       1.0  0.8047293980074528  0.9967521173752373  0.05229438860734353  1.0000
  Cl  Cl4       1.0  0.19527329181743616  0.0032483363665605056  0.9477028254551175  1.0000
  O   O1        1.0  0.9390996890227753  0.7651908945946531  0.20463545150430926  1.0000
  O   O2        1.0  0.060905564820373605  0.2348105808787793  0.7953690985094045  1.0000
  O   O3        1.0  0.11083477100746127  0.9379188518279381  0.2474207519964296  1.0000
  O   O4        1.0  0.889161842320888  0.062085118466299605  0.7525807962665713  1.0000
