data_image0
_chemical_formula_structural       Zn2H32C42N4O10
_chemical_formula_sum              "Zn2 H32 C42 N4 O10"
_cell_length_a       9.30290107851981
_cell_length_b       10.286766316130727
_cell_length_c       13.355442778636997
_cell_angle_alpha    82.95907214500643
_cell_angle_beta     70.74170468079656
_cell_angle_gamma    71.91017197330174

_space_group_name_H-M_alt    "P 1"
_space_group_IT_number       1

loop_
  _space_group_symop_operation_xyz
  'x, y, z'

loop_
  _atom_site_type_symbol
  _atom_site_label
  _atom_site_symmetry_multiplicity
  _atom_site_fract_x
  _atom_site_fract_y
  _atom_site_fract_z
  _atom_site_occupancy
  Zn  Zn1       1.0  0.6678387282731322  0.12405329619065952  0.44423411676499575  1.0000
  Zn  Zn2       1.0  0.33216020817249625  0.8759458662883332  0.5557663814114874  1.0000
  H   H1        1.0  0.7291212957178318  0.933793127942863  0.9430661767334314  1.0000
  H   H2        1.0  0.2708795800698098  0.0662070523489859  0.05693303138266971  1.0000
  H   H3        1.0  0.4519988261828019  0.19480227570370798  0.9907876818743515  1.0000
  H   H4        1.0  0.5480023887255996  0.8051968816635693  0.009211543843846919  1.0000
  H   H5        1.0  0.6319368650635228  0.5894779960748409  0.4680143227528077  1.0000
  H   H6        1.0  0.36806468793778907  0.4105201398235608  0.5319841719086325  1.0000
  H   H7        1.0  0.03931604523312163  0.7446649168018808  0.36263597700656897  1.0000
  H   H8        1.0  0.9606840330135216  0.2553342394819609  0.6373657565879113  1.0000
  H   H9        1.0  0.36667159608026634  0.2882960244027757  0.17299057539904786  1.0000
  H   H10       1.0  0.6333289395587658  0.7117051802693694  0.8270078664560998  1.0000
  H   H11       1.0  0.4411935459664989  0.24021175088713417  0.6551997335446414  1.0000
  H   H12       1.0  0.5588061911036777  0.759788431232721  0.3448004851300296  1.0000
  H   H13       1.0  0.4439227561767539  0.2985668970170536  0.33171948485497166  1.0000
  H   H14       1.0  0.5560769798655798  0.7014332865585188  0.6682799851608434  1.0000
  H   H15       1.0  0.09774562453310413  0.31659116384208363  0.32896943430055353  1.0000
  H   H16       1.0  0.902255249198831  0.6834090193611998  0.6710282764978358  1.0000
  H   H17       1.0  0.8910656749222315  0.9621420944777627  0.5714870991589577  1.0000
  H   H18       1.0  0.1089340621479522  0.03785808764209261  0.4285131195157134  1.0000
  H   H19       1.0  0.8647931432451587  0.9921855976199364  0.2243417876066402  1.0000
  H   H20       1.0  0.13520659382502492  0.007814584499918502  0.7756584310680238  1.0000
  H   H21       1.0  0.4052395455118046  0.1926249368620532  0.8465786519518372  1.0000
  H   H22       1.0  0.5947587137201538  0.80737627001038  0.1534225596793064  1.0000
  H   H23       1.0  0.8781383246772737  0.9053219688626014  0.7574298265524387  1.0000
  H   H24       1.0  0.1218594730508968  0.09467719544439748  0.2425716821826071  1.0000
  H   H25       1.0  0.8082729605262813  0.968026276409908  0.058840529006211374  1.0000
  H   H26       1.0  0.19172597591935414  0.031972886069084404  0.9411599691702645  1.0000
  H   H27       1.0  0.2862572446606606  0.685659045920758  0.24258695160159488  1.0000
  H   H28       1.0  0.7137424934373655  0.3143411347433798  0.757414015731932  1.0000
  H   H29       1.0  0.4536926155360349  0.5473891967101493  0.2561283446718363  1.0000
  H   H30       1.0  0.5463067834412385  0.4526120068785673  0.743872605059586  1.0000
  H   H31       1.0  0.3043297044091489  0.6277859498016412  0.3719644544637004  1.0000
  H   H32       1.0  0.6956703707539448  0.3722132108493454  0.6280350331542052  1.0000
  C   C1        1.0  0.5104197084220418  0.09616085261648517  0.0222935593277569  1.0000
  C   C2        1.0  0.48958150648635984  0.9038383047507922  0.9777056663904417  1.0000
  C   C3        1.0  0.7593752698623959  0.5733760972717548  0.4306224648148458  1.0000
  C   C4        1.0  0.2406259450460056  0.4266230600955155  0.5693767609033527  1.0000
  C   C5        1.0  0.9914216928070447  0.6586250106114804  0.37070137244970164  1.0000
  C   C6        1.0  0.00857838338389886  0.3413741485837959  0.6292988638270599  1.0000
  C   C7        1.0  0.4796248107470548  0.22065104618162928  0.17954887777273132  1.0000
  C   C8        1.0  0.5203757248919776  0.7793501584905227  0.8204495640824162  1.0000
  C   C9        1.0  0.6374460798405507  0.0413021991705662  0.8206076612612987  1.0000
  C   C10       1.0  0.36255251645646774  0.9586979876887226  0.17939207065422383  1.0000
  C   C11       1.0  0.6135540476149403  0.9921228841519889  0.9335218923570279  1.0000
  C   C12       1.0  0.3864456894552362  0.007877297967866096  0.06647832631764314  1.0000
  C   C13       1.0  0.5775714680893104  0.1222627161335197  0.10310634661729517  1.0000
  C   C14       1.0  0.4224294076983314  0.877737464158336  0.8968928614988059  1.0000
  C   C15       1.0  0.5344002402147439  0.1661491962743824  0.6818707013520535  1.0000
  C   C16       1.0  0.46559915773467275  0.8338520087700516  0.3181294997205199  1.0000
  C   C17       1.0  0.5218113892012256  0.2279161394082365  0.2687142231180386  1.0000
  C   C18       1.0  0.4781891474656562  0.7720850638081985  0.7312849673959646  1.0000
  C   C19       1.0  0.7912342367915316  0.3232795652481926  0.41169365734268837  1.0000
  C   C20       1.0  0.20876731723763003  0.6767185691944986  0.5883055859776077  1.0000
  C   C21       1.0  0.0217188521011238  0.41954611821171994  0.3518277453383475  1.0000
  C   C22       1.0  0.9782794061029848  0.5804550901164377  0.6481727176339402  1.0000
  C   C23       1.0  0.7856421180720262  0.012688679023717996  0.6344456993547851  1.0000
  C   C24       1.0  0.21435795914675995  0.9873104787158339  0.36555528558083233  1.0000
  C   C25       1.0  0.8580512966231952  0.4421628776231115  0.39704775971033246  1.0000
  C   C26       1.0  0.14194991931305626  0.5578362782884483  0.6029522146667148  1.0000
  C   C27       1.0  0.8266703282839674  0.6811967802862782  0.4167419577101014  1.0000
  C   C28       1.0  0.17333088868013397  0.3188023741695645  0.5832587653258088  1.0000
  C   C29       1.0  0.7571205865725402  0.057274579413132194  0.20811348980316777  1.0000
  C   C30       1.0  0.2428791504976362  0.9427256027067231  0.7918867288714961  1.0000
  C   C31       1.0  0.0884636719530221  0.5274171631848718  0.3387385077135718  1.0000
  C   C32       1.0  0.9115368657417092  0.47258403857584597  0.6612614314592804  1.0000
  C   C33       1.0  0.5162503922048814  0.1392213586615583  0.7890078772713875  1.0000
  C   C34       1.0  0.48374900574453517  0.8607798463828827  0.21099232380117877  1.0000
  C   C35       1.0  0.7766234609518392  0.9808218946817105  0.740394830092164  1.0000
  C   C36       1.0  0.22337513637303627  0.0191782907218609  0.2596056504822143  1.0000
  C   C37       1.0  0.7232208344710217  0.04392487611777799  0.11633233531203041  1.0000
  C   C38       1.0  0.2767792417199147  0.9560742830774911  0.883667900964738  1.0000
  C   C39       1.0  0.3261255603852221  0.5959571357035783  0.29134162191163426  1.0000
  C   C40       1.0  0.6738749773095093  0.4040440660571463  0.7086583172612249  1.0000
  C   C41       1.0  0.7241088695847324  0.8238657842766345  0.45024301812207995  1.0000
  C   C42       1.0  0.2758912066062039  0.17613337491864198  0.5497572181546885  1.0000
  N   N1        1.0  0.655676556383341  0.1439318182836971  0.28488330489677327  1.0000
  N   N2        1.0  0.34432317965898573  0.8560683652918754  0.7151161651190348  1.0000
  N   N3        1.0  0.6650595506111542  0.10153965102662003  0.6055060368204366  1.0000
  N   N4        1.0  0.334940525579782  0.898459508168656  0.39449419945633213  1.0000
  O   O1        1.0  0.6406691672829937  0.3444195939133791  0.446702760331668  1.0000
  O   O2        1.0  0.35933204762540805  0.6555795634538981  0.5532964653865305  1.0000
  O   O3        1.0  0.7902414832558979  0.9200310971569361  0.4168268124270823  1.0000
  O   O4        1.0  0.20975711406897093  0.07996908824663508  0.5831736681472961  1.0000
  O   O5        1.0  0.886552541489664  0.20322050777900097  0.38988582345928785  1.0000
  O   O6        1.0  0.11344787279418271  0.7967776299474068  0.6101136817607224  1.0000
  O   O7        1.0  0.581913642677918  0.8407303872433262  0.508486948975019  1.0000
  O   O8        1.0  0.418086772633785  0.15926774902736437  0.4915133049038402  1.0000
  O   O9        1.0  0.25015686649950913  0.4939753361550813  0.29348611369869093  1.0000
  O   O10       1.0  0.7498436711952225  0.5060258656056362  0.7065138254741682  1.0000
