data_image0
_chemical_formula_structural       Er4H48C60O36
_chemical_formula_sum              "Er4 H48 C60 O36"
_cell_length_a       9.964005343
_cell_length_b       12.147814258244047
_cell_length_c       13.753
_cell_angle_alpha    105.33753402380029
_cell_angle_beta     90.0
_cell_angle_gamma    90.0

_space_group_name_H-M_alt    "P 1"
_space_group_IT_number       1

loop_
  _space_group_symop_operation_xyz
  'x, y, z'

loop_
  _atom_site_type_symbol
  _atom_site_label
  _atom_site_symmetry_multiplicity
  _atom_site_fract_x
  _atom_site_fract_y
  _atom_site_fract_z
  _atom_site_occupancy
  Er  Er1       1.0  0.21184051265918674  0.0597115090963953  0.0770415468423025  1.0000
  Er  Er2       1.0  0.7118402445441134  0.4402867000192713  0.9229571622109418  1.0000
  Er  Er3       1.0  0.7881599547231417  0.9402883235136839  0.9229581232042391  1.0000
  Er  Er4       1.0  0.2881602228382079  0.5597139861854927  0.07704270726356552  1.0000
  H   H1        1.0  0.2256983936264021  0.4259207014474811  0.3340761766436557  1.0000
  H   H2        1.0  0.7256961182863934  0.0740800684522469  0.665924584921669  1.0000
  H   H3        1.0  0.7743010701434515  0.5740799847572831  0.6659236928308587  1.0000
  H   H4        1.0  0.2743033454834602  0.9259206177525242  0.3340760116669229  1.0000
  H   H5        1.0  0.2547901082553636  0.543404352512816  0.5110298084565343  1.0000
  H   H6        1.0  0.7547878329153549  0.9565953964023066  0.4889711508414507  1.0000
  H   H7        1.0  0.745209355514497  0.4565954800972634  0.4889705887040918  1.0000
  H   H8        1.0  0.2452116308544987  0.0434044362077799  0.5110292463191755  1.0000
  H   H9        1.0  0.4181521242285413  0.2526298833812604  0.5939205428318033  1.0000
  H   H10       1.0  0.9181498488885326  0.24736832573440637  0.40607889333552555  1.0000
  H   H11       1.0  0.5818473395413122  0.7473699492288188  0.4060798543288229  1.0000
  H   H12       1.0  0.081849614881321  0.752631506875673  0.5939215038251006  1.0000
  H   H13       1.0  0.384941584028212  0.13338099850449228  0.4159051810972656  1.0000
  H   H14       1.0  0.8849393086882033  0.3666180642058663  0.584093000269867  1.0000
  H   H15       1.0  0.6150588833541165  0.8666179805109024  0.5840942895213033  1.0000
  H   H16       1.0  0.11506115869412531  0.6333817684042202  0.4159066697766747  1.0000
  H   H17       1.0  0.4798913524629144  0.6581923515585615  0.7043972008699555  1.0000
  H   H18       1.0  0.9798900807353805  0.8418065437618764  0.2956050132282185  1.0000
  H   H19       1.0  0.5201081113069392  0.3418074810515179  0.2956024691765862  1.0000
  H   H20       1.0  0.0201093830344803  0.1581941424428948  0.7043955833603732  1.0000
  H   H21       1.0  0.3761680038272104  0.8452618950523457  0.7986110906463182  1.0000
  H   H22       1.0  0.8761667320996764  0.6547361466734074  0.20139165113797466  1.0000
  H   H23       1.0  0.6238324635551109  0.15473708396304886  0.20138910708633523  1.0000
  H   H24       1.0  0.123833735282652  0.3452645395313638  0.7986089454506242  1.0000
  H   H25       1.0  0.993279274679729  0.6794528344122455  0.7901074639430449  1.0000
  H   H26       1.0  0.49327853918233444  0.8205477680975619  0.20989078632656796  1.0000
  H   H27       1.0  0.0067221963150672  0.3205461446031491  0.2098920066755241  1.0000
  H   H28       1.0  0.5067209245875262  0.17945206451251744  0.7901088837199737  1.0000
  H   H29       1.0  0.0971828061774644  0.4931361614318561  0.6987997830234677  1.0000
  H   H30       1.0  0.5971835416748661  0.0068637548731871  0.3012000519998068  1.0000
  H   H31       1.0  0.902817661204864  0.5068636711782304  0.3011998870230741  1.0000
  H   H32       1.0  0.4028159220949945  0.993136077736892  0.6988003451608193  1.0000
  H   H33       1.0  0.0319841257636284  0.8635049206896781  0.08367672631015205  1.0000
  H   H34       1.0  0.5319848612610302  0.6364948282254517  0.9163227787596568  1.0000
  H   H35       1.0  0.9680153380062251  0.1364949119204084  0.9163222166223051  1.0000
  H   H36       1.0  0.46801560612129833  0.3635058579793196  0.0836770907148576  1.0000
  H   H37       1.0  0.1669398944239404  0.8420984731446168  0.1397181532447789  1.0000
  H   H38       1.0  0.6669386226963994  0.6579012757705058  0.8602813518250301  1.0000
  H   H39       1.0  0.8330615765708558  0.1579005058707779  0.8602805902597055  1.0000
  H   H40       1.0  0.333061844685929  0.3420994104342654  0.1397185176494844  1.0000
  H   H41       1.0  0.12626247745680533  0.2726671650493628  0.017445803634217282  1.0000
  H   H42       1.0  0.6262632129541998  0.2273336048503651  0.9825542308170299  1.0000
  H   H43       1.0  0.8737369863130553  0.7273335211554083  0.9825540658402971  1.0000
  H   H44       1.0  0.37373825804059635  0.7726670813544061  0.017445638657484587  1.0000
  H   H45       1.0  0.2047309219312226  0.1904079523122206  0.9283371231309303  1.0000
  H   H46       1.0  0.7047306538161494  0.3095928175875073  0.07166291132030977  1.0000
  H   H47       1.0  0.7952675382261702  0.8095918802978659  0.07166254691561139  1.0000
  H   H48       1.0  0.29526880995371135  0.6904078686172568  0.9283369581542047  1.0000
  C   C1        1.0  0.2819117316083535  0.19965835792852715  0.2606670145225181  1.0000
  C   C2        1.0  0.781912467105748  0.3003415583765161  0.7393320933866646  1.0000
  C   C3        1.0  0.7180877321615071  0.8003414746815523  0.7393326555240236  1.0000
  C   C4        1.0  0.2180880002765804  0.6996582742335702  0.2606675766598698  1.0000
  C   C5        1.0  0.3009382167891488  0.27132104622894093  0.3646852939443619  1.0000
  C   C6        1.0  0.8009359414491399  0.22867972367078687  0.6353140133927937  1.0000
  C   C7        1.0  0.6990622505931726  0.7286804935705149  0.6353140478440409  1.0000
  C   C8        1.0  0.19906352232071362  0.7713209625339842  0.3646865831957983  1.0000
  C   C9        1.0  0.2650901830211936  0.3871675026857986  0.3912789634450604  1.0000
  C   C10       1.0  0.7650879076811847  0.11283156002455999  0.6087213992643258  1.0000
  C   C11       1.0  0.7349132951985382  0.6128340371136574  0.6087218325715114  1.0000
  C   C12       1.0  0.2349115560886759  0.8871674189908347  0.3912780713542432  1.0000
  C   C13       1.0  0.2814039036992142  0.4532434137638433  0.48998631530544406  1.0000
  C   C14       1.0  0.7814056428090765  0.0467556489465082  0.5100147745180195  1.0000
  C   C15       1.0  0.718592549233243  0.5467564188462362  0.5100148089692667  1.0000
  C   C16       1.0  0.218593820960777  0.9532450372582629  0.4899858220705724  1.0000
  C   C17       1.0  0.335529727746355  0.4031715494607511  0.5620368707321362  1.0000
  C   C18       1.0  0.8355304632437496  0.09682751324960748  0.4379649462054118  1.0000
  C   C19       1.0  0.6644707396359735  0.5968274295546436  0.4379640541146017  1.0000
  C   C20       1.0  0.1644700041385789  0.903172319360479  0.5620354509552143  1.0000
  C   C21       1.0  0.37468466459854  0.2882691687270338  0.5362156481575155  1.0000
  C   C22       1.0  0.8746823892585311  0.2117298939833248  0.46378398743778604  1.0000
  C   C23       1.0  0.6253147991713206  0.7117306638830525  0.46378402188902607  1.0000
  C   C24       1.0  0.1253180781237972  0.7882699386267547  0.53621640972284  1.0000
  C   C25       1.0  0.35618206512637585  0.2230861176909329  0.4379924741929244  1.0000
  C   C26       1.0  0.8561807933988348  0.276914652208795  0.5620068331442312  1.0000
  C   C27       1.0  0.6438173986434776  0.7769145685138312  0.5620066681674984  1.0000
  C   C28       1.0  0.1438206775959543  0.723086033995976  0.43799376344436775  1.0000
  C   C29       1.0  0.2944890030655642  0.5670036848071901  0.6986563871053804  1.0000
  C   C30       1.0  0.7944877313380232  0.9329960641079322  0.3013445721925976  1.0000
  C   C31       1.0  0.7055114643167643  0.4329952942082045  0.30134381062727306  1.0000
  C   C32       1.0  0.20551072881936963  0.0670046220968317  0.6986567515100859  1.0000
  C   C33       1.0  0.3738125253632774  0.6649220920659857  0.7237263440452537  1.0000
  C   C34       1.0  0.8738092464108007  0.8350768032544522  0.2762751429388359  1.0000
  C   C35       1.0  0.6261859347941154  0.335076886949409  0.2762753079155686  1.0000
  C   C36       1.0  0.1261892137465921  0.1649230293556343  0.7237237999936212  1.0000
  C   C37       1.0  0.3157816452005875  0.768031208612669  0.7752609675082596  1.0000
  C   C38       1.0  0.8157803734730465  0.7319676867077689  0.22474051947583715  1.0000
  C   C39       1.0  0.684217818569266  0.2319677704027256  0.22473923022440093  1.0000
  C   C40       1.0  0.1842190902968071  0.2680329994970023  0.7752593499986774  1.0000
  C   C41       1.0  0.1791357931430611  0.7732056996015118  0.8004508494807538  1.0000
  C   C42       1.0  0.67913452141552  0.7267940493136109  0.19954938270314673  1.0000
  C   C43       1.0  0.8208646742392673  0.22679242581919817  0.1995491488239338  1.0000
  C   C44       1.0  0.3208649423543335  0.2732057832964685  0.8004510144574793  1.0000
  C   C45       1.0  0.0994178511451622  0.6746411211651163  0.7702659177138358  1.0000
  C   C46       1.0  0.5994175830300962  0.8253577741553144  0.22973411504208485  1.0000
  C   C47       1.0  0.9005826162371591  0.3253587114449629  0.2297308438763679  1.0000
  C   C48       1.0  0.40058188073976453  0.174642058454765  0.7702662821185413  1.0000
  C   C49       1.0  0.1570252068460789  0.5709481458529523  0.7195430422843215  1.0000
  C   C50       1.0  0.6570239351185378  0.92905160306217  0.28045718989957175  1.0000
  C   C51       1.0  0.8429742569237818  0.4290508331624423  0.2804564283342472  1.0000
  C   C52       1.0  0.34297352142638  0.0709482295479091  0.7195432072610545  1.0000
  C   C53       1.0  0.1211410430292474  0.8805426706298363  0.8659551345444854  1.0000
  C   C54       1.0  0.6211397713017064  0.6194570782852864  0.13404509763941522  1.0000
  C   C55       1.0  0.8788604279655488  0.11945716198024309  0.1340452626161408  1.0000
  C   C56       1.0  0.37886069608062206  0.380542754324793  0.8659545724071266  1.0000
  C   C57       1.0  0.4962984091005254  0.9409447378275146  0.011177359850137202  1.0000
  C   C58       1.0  0.9962971373729843  0.5590541574929233  0.988823400019875  1.0000
  C   C59       1.0  0.5037010546693352  0.0590559483772566  0.9888239638525462  1.0000
  C   C60       1.0  0.0037033300093441  0.4409448215224713  0.011175343484609373  1.0000
  O   O1        1.0  0.2945462089762785  0.0909820968372728  0.24103611360032318  1.0000
  O   O2        1.0  0.7945459408612053  0.4090178194677705  0.7589629943088596  1.0000
  O   O3        1.0  0.7054532547935821  0.9090177357728138  0.7589635564462186  1.0000
  O   O4        1.0  0.20545251929618763  0.5909820131423089  0.24103594862359756  1.0000
  O   O5        1.0  0.25023471126012714  0.24549297820843205  0.18917525164606272  1.0000
  O   O6        1.0  0.7502364503699966  0.2545077916912959  0.8108247828051773  1.0000
  O   O7        1.0  0.7497657561221942  0.7545077079963391  0.8108246178284516  1.0000
  O   O8        1.0  0.2497650206247997  0.7454920409187835  0.1891748872413643  1.0000
  O   O9        1.0  0.358415102869138  0.4630682886040915  0.6600611248409791  1.0000
  O   O10       1.0  0.8584158383665398  0.036930774106267  0.3399399649824915  1.0000
  O   O11       1.0  0.6415853645131905  0.5369323976006797  0.33993947174761985  1.0000
  O   O12       1.0  0.1415826217908531  0.9630690585038195  0.6600604321781346  1.0000
  O   O13       1.0  0.9947585994585282  0.8872450961072997  0.8762325968172605  1.0000
  O   O14       1.0  0.4947578639611336  0.6127563599971992  0.12376730710849419  1.0000
  O   O15       1.0  0.0052408643113253  0.1127547365027866  0.12376780034336582  1.0000
  O   O16       1.0  0.5052426034211948  0.387244326207572  0.8762318352519287  1.0000
  O   O17       1.0  0.2017341350998123  0.9582095439542542  0.9119273427916711  1.0000
  O   O18       1.0  0.7017348705972069  0.5417910585555602  0.08807236170611077  1.0000
  O   O19       1.0  0.7982643250575805  0.0417894350611476  0.08807140071281341  1.0000
  O   O20       1.0  0.2982645931726466  0.45820962764921086  0.9119275077684038  1.0000
  O   O21       1.0  0.3910003925014962  0.9195399974718299  0.0549091441952001  1.0000
  O   O22       1.0  0.8910021316113587  0.5804606050379846  0.9450905603025815  1.0000
  O   O23       1.0  0.6090010784933  0.0804598351382566  0.9450912529654262  1.0000
  O   O24       1.0  0.109002350220841  0.4195400811667866  0.05490930917193281  1.0000
  O   O25       1.0  0.5941917729057948  0.8741364425085506  0.9835109979688069  1.0000
  O   O26       1.0  0.0941930446333359  0.625863306406572  0.016489234215086364  1.0000
  O   O27       1.0  0.4058096980890014  0.1258625365068511  0.016489199763846295  1.0000
  O   O28       1.0  0.9058104335863959  0.37413908698756865  0.9835103070012821  1.0000
  O   O29       1.0  0.1194660138190571  0.896800235026646  0.1091157606323918  1.0000
  O   O30       1.0  0.6194657457039838  0.6031986602937919  0.8908835450094515  1.0000
  O   O31       1.0  0.8805344535632714  0.103197890394064  0.8908827834441269  1.0000
  O   O32       1.0  0.3805347216783375  0.3968020259109792  0.109116324465063  1.0000
  O   O33       1.0  0.138442318376427  0.1902039431821763  0.9806591246462164  1.0000
  O   O34       1.0  0.6384430538738215  0.30979597312286694  0.01934071037705109  1.0000
  O   O35       1.0  0.8615571453934338  0.809796743022595  0.019340744828291224  1.0000
  O   O36       1.0  0.3615574135085069  0.6902038594872122  0.9806589596694907  1.0000
