data_image0
_chemical_formula_structural       Ni2H36C36N8O8
_chemical_formula_sum              "Ni2 H36 C36 N8 O8"
_cell_length_a       8.882873541324287
_cell_length_b       8.882880519714012
_cell_length_c       12.75754375849976
_cell_angle_alpha    77.6923678574532
_cell_angle_beta     77.6923066481681
_cell_angle_gamma    64.03836961309227

_space_group_name_H-M_alt    "P 1"
_space_group_IT_number       1

loop_
  _space_group_symop_operation_xyz
  'x, y, z'

loop_
  _atom_site_type_symbol
  _atom_site_label
  _atom_site_symmetry_multiplicity
  _atom_site_fract_x
  _atom_site_fract_y
  _atom_site_fract_z
  _atom_site_occupancy
  Ni  Ni1       1.0  0.9999986332448572  1.1827206449959007e-06  0.5000003728741829  1.0000
  Ni  Ni2       1.0  1.0259819303859469e-07  0.9999988681731581  1.6284873541762888e-07  1.0000
  H   H1        1.0  0.09409314738299204  0.08730846721260122  0.24218305439345755  1.0000
  H   H2        1.0  0.9126871769402458  0.9059080240363926  0.25781856315990825  1.0000
  H   H3        1.0  0.9059072560678134  0.9126898154122571  0.7578181394605961  1.0000
  H   H4        1.0  0.08731049174174643  0.0940940373256538  0.7421816879281093  1.0000
  H   H5        1.0  0.4498541905062084  0.20147321634663481  0.11150457954600765  1.0000
  H   H6        1.0  0.7985241877759609  0.5501469817369795  0.38849826425612827  1.0000
  H   H7        1.0  0.5501456948752477  0.7985263392678378  0.88849806713808  1.0000
  H   H8        1.0  0.20147348999647363  0.44985508871724994  0.6115035517986768  1.0000
  H   H9        1.0  0.2596753097827361  0.19673335445473578  0.0910404880889999  1.0000
  H   H10       1.0  0.8032654469104515  0.7403231596858434  0.40896261082385627  1.0000
  H   H11       1.0  0.7403228951494967  0.8032674521020409  0.9089614401025725  1.0000
  H   H12       1.0  0.1967332897267866  0.25967638751958333  0.5910402119878667  1.0000
  H   H13       1.0  0.4196306450181595  0.8865361713594596  0.07455118034823724  1.0000
  H   H14       1.0  0.11346475042117281  0.5803684475151983  0.4254493105325564  1.0000
  H   H15       1.0  0.5803698483120528  0.11346464292324042  0.9254488306212634  1.0000
  H   H16       1.0  0.8865345088306356  0.4196298312466951  0.5745528419325366  1.0000
  H   H17       1.0  0.6079946748148045  0.8977866946415463  0.09145039425907699  1.0000
  H   H18       1.0  0.10221319217210116  0.39200560241741306  0.40854923609718696  1.0000
  H   H19       1.0  0.3920064355546202  0.1022153874015501  0.908548545962624  1.0000
  H   H20       1.0  0.8977850036696822  0.6079951950471952  0.5914511271275911  1.0000
  H   H21       1.0  0.5649511774359867  0.49615530623236026  0.4310159725464046  1.0000
  H   H22       1.0  0.5038500300284953  0.43504140241161343  0.06898153929834192  1.0000
  H   H23       1.0  0.43504197705810543  0.5038492440591755  0.5689822352008207  1.0000
  H   H24       1.0  0.4961559101132309  0.5649518316662638  0.9310164447862659  1.0000
  H   H25       1.0  0.3883045872272816  0.9554071390031355  0.4942679365516722  1.0000
  H   H26       1.0  0.04459167792920483  0.6116951700084315  0.005735155606082307  1.0000
  H   H27       1.0  0.6116958207687446  0.044591148167811  0.5057340397857785  1.0000
  H   H28       1.0  0.9554087346120428  0.3883031217085957  0.9942676032147657  1.0000
  H   H29       1.0  0.320872427376642  0.7123573957347986  0.3420000530486432  1.0000
  H   H30       1.0  0.28764966941454156  0.6791302803529008  0.15799030702728337  1.0000
  H   H31       1.0  0.6791293580948405  0.28764845390394106  0.6579911561569458  1.0000
  H   H32       1.0  0.71235829251318  0.32087181122969355  0.8420005340780389  1.0000
  H   H33       1.0  0.5695927790446333  0.03111661058870401  0.2984919415174615  1.0000
  H   H34       1.0  0.9688827131558284  0.4304080493110335  0.20151057421597318  1.0000
  H   H35       1.0  0.43040762440617186  0.9688816720361546  0.7015092523365993  1.0000
  H   H36       1.0  0.031116649611057253  0.5695927747469653  0.7984927428147441  1.0000
  C   C1        1.0  0.7982461873091468  0.21500046203995282  0.3716569203641242  1.0000
  C   C2        1.0  0.7850008186931704  0.20174895750583488  0.12834458122696188  1.0000
  C   C3        1.0  0.2017491929748517  0.7850015915961848  0.6283452479459581  1.0000
  C   C4        1.0  0.2149994948782208  0.7982467934611819  0.871657795511652  1.0000
  C   C5        1.0  0.670339071473066  0.3447699090275408  0.30246138495510877  1.0000
  C   C6        1.0  0.6552299382161169  0.3296574769400848  0.19753706408731378  1.0000
  C   C7        1.0  0.3296591152782682  0.6552308793448918  0.6975374133028749  1.0000
  C   C8        1.0  0.3447686812703737  0.6703395113309795  0.8024622467086003  1.0000
  C   C9        1.0  0.19651722145331973  0.06070096820899809  0.28673514579908493  1.0000
  C   C10       1.0  0.9392962140267971  0.8034846234184555  0.21326687976521438  1.0000
  C   C11       1.0  0.8034831819974856  0.9392973144158603  0.7132660480549758  1.0000
  C   C12       1.0  0.060700310456198274  0.19651743408063996  0.7867343299338357  1.0000
  C   C13       1.0  0.3812520030698892  0.12131649792565473  0.12201175914864847  1.0000
  C   C14       1.0  0.8786823151010029  0.6187477531177024  0.37799108222737476  1.0000
  C   C15       1.0  0.6187478777663458  0.8786830531427228  0.8779901050520421  1.0000
  C   C16       1.0  0.12131588983123008  0.3812530534390817  0.6220108459641904  1.0000
  C   C17       1.0  0.4855803658354533  0.970287696984265  0.06057148650923233  1.0000
  C   C18       1.0  0.029712768494555144  0.5144190239018158  0.4394298178689836  1.0000
  C   C19       1.0  0.5144196048801961  0.029714385741968403  0.939429194806898  1.0000
  C   C20       1.0  0.970285963597462  0.48558051875752284  0.5605722224593421  1.0000
  C   C21       1.0  0.5494342329125741  0.4850995013332665  0.3511248346238317  1.0000
  C   C22       1.0  0.5149038868270923  0.45056252713007433  0.14887077110269328  1.0000
  C   C23       1.0  0.450561737139303  0.514903792786754  0.6488715680380891  1.0000
  C   C24       1.0  0.48509940388001405  0.5494370127967514  0.8511243048479213  1.0000
  C   C25       1.0  0.3544383140480108  0.993085579365136  0.4131179206496823  1.0000
  C   C26       1.0  0.006914620637957066  0.645562431302814  0.0868848323552598  1.0000
  C   C27       1.0  0.6455615622430032  0.0069139671571605  0.586883161067618  1.0000
  C   C28       1.0  0.9930852647435063  0.3544371243116585  0.9131178143288278  1.0000
  C   C29       1.0  0.41262925523563615  0.6061052126698385  0.3008216297046572  1.0000
  C   C30       1.0  0.39389759520064166  0.5873719965857022  0.19917110747368127  1.0000
  C   C31       1.0  0.5873724449016535  0.39389810985714047  0.6991715448688821  1.0000
  C   C32       1.0  0.6061074567446668  0.4126288149644851  0.8008219391181014  1.0000
  C   C33       1.0  0.4453133828643915  0.029588865980493  0.31709675328210085  1.0000
  C   C34       1.0  0.970408563296502  0.5546878292820451  0.18290602972183473  1.0000
  C   C35       1.0  0.5546875477462053  0.9704081527469199  0.6829045527087201  1.0000
  C   C36       1.0  0.02958964618095192  0.4453129818208268  0.8170966809531277  1.0000
  N   N1        1.0  0.3428021722084439  0.07287386051013561  0.2382281860565242  1.0000
  N   N2        1.0  0.9271236378509402  0.657200075810799  0.2617736892401437  1.0000
  N   N3        1.0  0.6571993754413582  0.9271244259776809  0.7617720491865041  1.0000
  N   N4        1.0  0.07287403992149422  0.3428019946434305  0.7382281268146682  1.0000
  N   N5        1.0  0.1990240039494111  0.0135164113907607  0.39319630374996706  1.0000
  N   N6        1.0  0.9864809408247198  0.8009768401889872  0.10680583314799454  1.0000
  N   N7        1.0  0.8009763995013941  0.9864818712340907  0.6068048901040937  1.0000
  N   N8        1.0  0.013517791267297201  0.19902270247035153  0.8931962071803382  1.0000
  O   O1        1.0  0.8486370205571205  0.0571151848185067  0.367738143658208  1.0000
  O   O2        1.0  0.9428860392753435  0.15136039378406  0.13226295776993877  1.0000
  O   O3        1.0  0.15136118437510512  0.9428856217382773  0.6322637845333643  1.0000
  O   O4        1.0  0.057114355085019455  0.8486378797486226  0.8677366711173276  1.0000
  O   O5        1.0  0.8480949694075406  0.2634253992274864  0.43983116581869536  1.0000
  O   O6        1.0  0.7365754354882411  0.15190313393494392  0.0601683851825285  1.0000
  O   O7        1.0  0.15190093349103512  0.7365753859651181  0.5601703321447573  1.0000
  O   O8        1.0  0.26342558045654846  0.8480964119042227  0.9398309554403423  1.0000
