data_image0
_chemical_formula_structural       Zn2H12C44N6O8
_chemical_formula_sum              "Zn2 H12 C44 N6 O8"
_cell_length_a       13.938202654976546
_cell_length_b       14.163141671406715
_cell_length_c       15.356979719940819
_cell_angle_alpha    86.805230822558
_cell_angle_beta     89.9956273509664
_cell_angle_gamma    89.9792030636156

_space_group_name_H-M_alt    "P 1"
_space_group_IT_number       1

loop_
  _space_group_symop_operation_xyz
  'x, y, z'

loop_
  _atom_site_type_symbol
  _atom_site_label
  _atom_site_symmetry_multiplicity
  _atom_site_fract_x
  _atom_site_fract_y
  _atom_site_fract_z
  _atom_site_occupancy
  Zn  Zn1       1.0  0.6010064840386209  0.4999754801133136  0.4999884533839916  1.0000
  Zn  Zn2       1.0  0.39899261023963123  0.5000261018169212  0.5000117917823558  1.0000
  H   H1        1.0  0.34593066641823367  0.5019951124245451  0.22052716502941647  1.0000
  H   H2        1.0  0.24727424109676832  0.4428139371601532  0.626899409758849  1.0000
  H   H3        1.0  0.752738275459784  0.4427923071990135  0.6268814934527995  1.0000
  H   H4        1.0  0.24726081947251544  0.5572079169379975  0.3731174691172541  1.0000
  H   H5        1.0  0.6540691455950451  0.4980057629143318  0.7794730909323773  1.0000
  H   H6        1.0  0.6540647696660287  0.5009906542455553  0.2205607581247903  1.0000
  H   H7        1.0  0.3459343254148593  0.4990087801264523  0.7794401715228716  1.0000
  H   H8        1.0  0.7442233189033234  0.5007258054315642  0.0806420315013199  1.0000
  H   H9        1.0  0.2557764936747803  0.4992736566798968  0.9193582460520557  1.0000
  H   H10       1.0  0.7441973801380756  0.49759961239696077  0.9194111926106031  1.0000
  H   H11       1.0  0.25580243239542  0.5023998219974076  0.0805897370367106  1.0000
  H   H12       1.0  0.7527248537909159  0.5571862592597583  0.3731002049051426  1.0000
  C   C1        1.0  0.4999978692877606  0.4968883618506156  0.6727739101890293  1.0000
  C   C2        1.0  0.32316695412544766  0.5010853063539998  0.04447990635027568  1.0000
  C   C3        1.0  0.7969803606974325  0.5324700531523803  0.42844101495403913  1.0000
  C   C4        1.0  0.20301873419025904  0.4675301432675312  0.5715585997099523  1.0000
  C   C5        1.0  0.7969877257354483  0.4675035262344167  0.5715401079269569  1.0000
  C   C6        1.0  0.20301136919685095  0.5324966979025945  0.4284588546430966  1.0000
  C   C7        1.0  0.8976107337947072  0.4660325448888755  0.5751871730352605  1.0000
  C   C8        1.0  0.10238836142000453  0.5339669726344312  0.4248118003305875  1.0000
  C   C9        1.0  0.8976035236935547  0.5339547458094033  0.4248015604070757  1.0000
  C   C10       1.0  0.10239413685373933  0.46604403733837785  0.5751980758491795  1.0000
  C   C11       1.0  0.9491144855090072  0.499997245518351  0.4999972442341373  1.0000
  C   C12       1.0  0.5000012249904914  0.5031132200796194  0.3272263349773112  1.0000
  C   C13       1.0  0.05088460966109661  0.500002244287856  0.5000023812256414  1.0000
  C   C14       1.0  0.9500828775630981  0.4323193420966193  0.6516303317341254  1.0000
  C   C15       1.0  0.049915500243606914  0.5676802031214335  0.3483679895381258  1.0000
  C   C16       1.0  0.9500710192697284  0.5676746131786458  0.3483615582377552  1.0000
  C   C17       1.0  0.049927358819388715  0.4323242254256954  0.6516367738302904  1.0000
  C   C18       1.0  0.4999912610280148  0.677781766845662  0.49738854074218597  1.0000
  C   C19       1.0  0.5000071157084067  0.3222197596280125  0.5026130086123713  1.0000
  C   C20       1.0  0.4999790727636793  0.7775435611796554  0.4993377627713329  1.0000
  C   C21       1.0  0.5000185864755268  0.2224579375545659  0.5006644386775035  1.0000
  C   C22       1.0  0.49999263592958704  0.8634184706835983  0.5001821255153728  1.0000
  C   C23       1.0  0.5000012524911241  0.5003049335642872  0.04622266581420579  1.0000
  C   C24       1.0  0.5000050235326585  0.1365831666361217  0.49981681546378093  1.0000
  C   C25       1.0  0.49999465432352974  0.9567720473828843  0.5002840172851177  1.0000
  C   C26       1.0  0.5000037228143768  0.043229728544687894  0.4997116632240121  1.0000
  C   C27       1.0  0.41300931903812454  0.501546358736988  0.1841343154765696  1.0000
  C   C28       1.0  0.5869897757603442  0.49845378224873116  0.8158666033752978  1.0000
  C   C29       1.0  0.499993619223858  0.5017177965001309  0.22967303525653895  1.0000
  C   C30       1.0  0.5000054756192185  0.4982823722026808  0.7703272315013904  1.0000
  C   C31       1.0  0.5869824892262372  0.5009505208768773  0.1841584072328573  1.0000
  C   C32       1.0  0.41301732335186614  0.49904894123458376  0.8158418703205184  1.0000
  C   C33       1.0  0.5888064185693767  0.5003288459881575  0.09279132384648389  1.0000
  C   C34       1.0  0.49999856036939866  0.49969382193346223  0.9537776225349714  1.0000
  C   C35       1.0  0.4111933942465314  0.49966988179249944  0.9072096165966242  1.0000
  C   C36       1.0  0.8983980787097607  0.4005900063795309  0.7276417514878943  1.0000
  C   C37       1.0  0.1015995813619242  0.5994102454298658  0.2723565589889104  1.0000
  C   C38       1.0  0.8983866837469991  0.5993954351539303  0.27234179684261756  1.0000
  C   C39       1.0  0.10161097717193003  0.4006026968143459  0.7276565460215564  1.0000
  C   C40       1.0  0.41119430170348187  0.500993333720082  0.09276096987933607  1.0000
  C   C41       1.0  0.5888047937044264  0.49900542175531365  0.9072393184701749  1.0000
  C   C42       1.0  0.6768357337420313  0.49979873467690084  0.0445386630897104  1.0000
  C   C43       1.0  0.3231633616212691  0.5001999930813953  0.9554622773537388  1.0000
  C   C44       1.0  0.6768328584526557  0.4989141557574611  0.9555203712031001  1.0000
  N   N1        1.0  0.7497767396610301  0.4999808503729922  0.4999877196655687  1.0000
  N   N2        1.0  0.2502223549442419  0.5000200526606305  0.5000118842026281  1.0000
  N   N3        1.0  0.8542146804297418  0.3761604249719994  0.7895150888972393  1.0000
  N   N4        1.0  0.1457829793595309  0.6238405334511157  0.21048321078377086  1.0000
  N   N5        1.0  0.8542129266676711  0.6238164580238889  0.21045555678303166  1.0000
  N   N6        1.0  0.14578401675403543  0.3761816462049267  0.7895434381754284  1.0000
  O   O1        1.0  0.5813590232559706  0.4964006403983845  0.6345504619765021  1.0000
  O   O2        1.0  0.41863935248461814  0.5036037956814283  0.36544908791307756  1.0000
  O   O3        1.0  0.5813691097848306  0.5035482781652689  0.3654290826663028  1.0000
  O   O4        1.0  0.41862926817047014  0.4964504772877731  0.6345712056835495  1.0000
  O   O5        1.0  0.5823731912796575  0.6392852613970988  0.4966459873107496  1.0000
  O   O6        1.0  0.417626620391829  0.3607171657547  0.5033509865897796  1.0000
  O   O7        1.0  0.5823788685891317  0.3606796674629252  0.5033404810985544  1.0000
  O   O8        1.0  0.4176216605198846  0.6393209861615218  0.49666499161438776  1.0000
