data_image0
_chemical_formula_structural       Zn6H30C36N18O18
_chemical_formula_sum              "Zn6 H30 C36 N18 O18"
_cell_length_a       10.124451929897859
_cell_length_b       15.755712545043632
_cell_length_c       15.75564774569728
_cell_angle_alpha    115.5601372731616
_cell_angle_beta     102.35635693148967
_cell_angle_gamma    102.35656424469754

_space_group_name_H-M_alt    "P 1"
_space_group_IT_number       1

loop_
  _space_group_symop_operation_xyz
  'x, y, z'

loop_
  _atom_site_type_symbol
  _atom_site_label
  _atom_site_symmetry_multiplicity
  _atom_site_fract_x
  _atom_site_fract_y
  _atom_site_fract_z
  _atom_site_occupancy
  Zn  Zn1       1.0  0.19134131630585943  0.6204255405134662  0.32289849615757055  1.0000
  Zn  Zn2       1.0  0.8685978377628346  0.6772512255180061  0.29766247943069857  1.0000
  Zn  Zn3       1.0  0.57098633999086  0.7023710271492619  0.37966193058698394  1.0000
  Zn  Zn4       1.0  0.07098603140377692  0.3796632950665639  0.7023702361350174  1.0000
  Zn  Zn5       1.0  0.6913488227460219  0.32289808961348837  0.620427379040656  1.0000
  Zn  Zn6       1.0  0.3686002696130686  0.2976636756324779  0.6772518018949966  1.0000
  H   H1        1.0  0.0938469250722349  0.30786937901559946  0.9692958608155848  1.0000
  H   H2        1.0  0.12466356289593251  0.030730285635201002  0.33853008902710957  1.0000
  H   H3        1.0  0.7861305849420932  0.6614969763209545  0.6922227860441339  1.0000
  H   H4        1.0  0.28613084233969494  0.6922261387614199  0.6615011786401013  1.0000
  H   H5        1.0  0.5938520767167361  0.9692962822279013  0.30787133029613756  1.0000
  H   H6        1.0  0.6246527713562103  0.3385364959144825  0.03073401401977093  1.0000
  H   H7        1.0  0.046171437748398624  0.15948145547306322  0.8182125196793562  1.0000
  H   H8        1.0  0.22819249526605034  0.18174806661978957  0.3411695410208608  1.0000
  H   H9        1.0  0.8868198634681691  0.6589801813640079  0.840696191928167  1.0000
  H   H10       1.0  0.38682394661214675  0.8406961569958754  0.658979832565123  1.0000
  H   H11       1.0  0.546171863948267  0.8182120850984166  0.15947947569684134  1.0000
  H   H12       1.0  0.728187526087389  0.3411707073743956  0.18175282018597735  1.0000
  H   H13       1.0  0.2339105679857099  0.1773057295911684  0.8491863556458341  1.0000
  H   H14       1.0  0.38482254635072616  0.1505546411896361  0.3279390481407489  1.0000
  H   H15       1.0  0.056737803684164693  0.672058838196712  0.8227921338806823  1.0000
  H   H16       1.0  0.5567386252528763  0.8227894834337235  0.6720595931345699  1.0000
  H   H17       1.0  0.733912144825297  0.8491846309978118  0.1773048900170906  1.0000
  H   H18       1.0  0.8848114517879322  0.3279344321070853  0.15055068326873308  1.0000
  H   H19       1.0  0.11079223107831392  0.4182910861625758  0.12431763934937125  1.0000
  H   H20       1.0  0.9864017780437424  0.8756395670278893  0.29361941152708937  1.0000
  H   H21       1.0  0.6924872119058351  0.7058636674359067  0.5818255671131781  1.0000
  H   H22       1.0  0.19248405223709145  0.5818234283315391  0.7058604623675322  1.0000
  H   H23       1.0  0.6107968131227536  0.12431740423293292  0.41828662574171455  1.0000
  H   H24       1.0  0.4863952512809036  0.29361994455108237  0.8756385476246679  1.0000
  H   H25       1.0  0.5724542672376033  0.5120460875569607  0.1858289853481381  1.0000
  H   H26       1.0  0.38655246271271454  0.8140789239483014  0.3262584011296212  1.0000
  H   H27       1.0  0.06040200623645827  0.6738204354224563  0.4879434116541645  1.0000
  H   H28       1.0  0.5604036641571356  0.4879415144344605  0.6738206254447761  1.0000
  H   H29       1.0  0.07245936824802611  0.1858318485827084  0.5120423764016309  1.0000
  H   H30       1.0  0.8865567078656653  0.3262608846108678  0.8140874593448544  1.0000
  C   C1        1.0  0.33319902894800885  0.42735292556551485  0.1163690358559109  1.0000
  C   C2        1.0  0.2167474101478036  0.8835223076443628  0.3108027262443259  1.0000
  C   C3        1.0  0.9058633423051888  0.6889711770259125  0.5726783452487962  1.0000
  C   C4        1.0  0.4058618813040695  0.5726784110689707  0.6889710025394109  1.0000
  C   C5        1.0  0.8332057939383262  0.11636961387158352  0.4273491959690148  1.0000
  C   C6        1.0  0.7167442213040404  0.3108009108696451  0.8835253969514553  1.0000
  C   C7        1.0  0.3162955432823296  0.34328051520252967  0.019824275343985703  1.0000
  C   C8        1.0  0.2964433661307596  0.9800236681683786  0.3232606659179566  1.0000
  C   C9        1.0  0.9731760452582564  0.6767061531662152  0.656822260091147  1.0000
  C   C10       1.0  0.47319265600961563  0.6568250439255863  0.6767079554082045  1.0000
  C   C11       1.0  0.8162958193963732  0.019825626738665402  0.3432772031641775  1.0000
  C   C12       1.0  0.7964265717765003  0.32325941337207104  0.9800278096402337  1.0000
  C   C13       1.0  0.15519718273567662  0.21556772823186782  0.8511725203574939  1.0000
  C   C14       1.0  0.30417368938463346  0.14870502184312073  0.364265613425772  1.0000
  C   C15       1.0  0.9397842388263201  0.6358393610604625  0.7845816317749693  1.0000
  C   C16       1.0  0.4397881112263563  0.7845811272384752  0.6358402639506266  1.0000
  C   C17       1.0  0.6551986220674169  0.8511729738715348  0.21556706469313278  1.0000
  C   C18       1.0  0.804167898720067  0.3642655171378095  0.14870885538788062  1.0000
  C   C19       1.0  0.22732662454279054  0.45541598718254755  0.15533794622766095  1.0000
  C   C20       1.0  0.07190320719774249  0.844607998162033  0.29983133828272923  1.0000
  C   C21       1.0  0.7718470313989415  0.699745589892551  0.5446389091999534  1.0000
  C   C22       1.0  0.2718491039357147  0.5446366872351334  0.6997431092846751  1.0000
  C   C23       1.0  0.7273320135335695  0.15533855425424287  0.45541165787633986  1.0000
  C   C24       1.0  0.5718990014457361  0.2998313682083237  0.8446087304277796  1.0000
  C   C25       1.0  0.16546082590155461  0.2647217697659059  0.7860481219032208  1.0000
  C   C26       1.0  0.37963080063565263  0.21388939064867432  0.47852397298368027  1.0000
  C   C27       1.0  0.9008952211275839  0.521555366145634  0.735422897788709  1.0000
  C   C28       1.0  0.4009019857502166  0.7354240652545414  0.5215532002938659  1.0000
  C   C29       1.0  0.6654594651591381  0.7860489822374959  0.2647233036976431  1.0000
  C   C30       1.0  0.8796251015745328  0.478520712266004  0.21388949397639587  1.0000
  C   C31       1.0  0.46379084182783015  0.5036836600265319  0.1874304263386931  1.0000
  C   C32       1.0  0.2763106543046093  0.8125316954471985  0.31628543865766556  1.0000
  C   C33       1.0  0.9600785466351951  0.6837127103876738  0.49632472064015326  1.0000
  C   C34       1.0  0.46008031736949573  0.4963227972483253  0.6837113442988851  1.0000
  C   C35       1.0  0.9637960177982876  0.18743233711649052  0.503677599118852  1.0000
  C   C36       1.0  0.7763126104011988  0.31628573789627284  0.8125375701908341  1.0000
  N   N1        1.0  0.29088250653757103  0.5418629910946607  0.24285221517472166  1.0000
  N   N2        1.0  0.047979978595812205  0.7571940546024933  0.2989531653014907  1.0000
  N   N3        1.0  0.7489087405279733  0.7007890748243284  0.45818137767312805  1.0000
  N   N4        1.0  0.2489068564640746  0.45817957075160365  0.7007869268911477  1.0000
  N   N5        1.0  0.790888161008148  0.24285236450829475  0.5418613264648826  1.0000
  N   N6        1.0  0.5479818492045966  0.29895474967119645  0.7571940591920665  1.0000
  N   N7        1.0  0.17941096442588397  0.28773757959784524  0.9536568925226732  1.0000
  N   N8        1.0  0.22579727146028716  0.046270180734509815  0.3339587084317728  1.0000
  N   N9        1.0  0.8918564764211894  0.6661092052344916  0.7124008416133093  1.0000
  N   N10       1.0  0.39184814656057654  0.7124000818629241  0.6661089121547618  1.0000
  N   N11       1.0  0.6794186105391021  0.9536582713623217  0.28773671078710805  1.0000
  N   N12       1.0  0.7257886568900747  0.3339586184189543  0.046274211657426234  1.0000
  N   N13       1.0  0.4368168245162139  0.5721714994270002  0.26286279356765613  1.0000
  N   N14       1.0  0.17392491461446025  0.7371890300551415  0.30940473578464633  1.0000
  N   N15       1.0  0.8645676497286844  0.6905785661981414  0.4278518972478125  1.0000
  N   N16       1.0  0.36456654647869163  0.42785054056253113  0.6905767601363095  1.0000
  N   N17       1.0  0.9368219462900386  0.26286191787765034  0.5721676639181652  1.0000
  N   N18       1.0  0.673929667499138  0.30940771323354715  0.7371926003864714  1.0000
  O   O1        1.0  0.22684767063780242  0.23378269175615435  0.7220213583310694  1.0000
  O   O2        1.0  0.5050236389381126  0.27781062626775826  0.5114857780566099  1.0000
  O   O3        1.0  0.9933641796453259  0.48850674748931777  0.7662220112630393  1.0000
  O   O4        1.0  0.4933675336539026  0.7662240146276817  0.4885088181623588  1.0000
  O   O5        1.0  0.7268491912106186  0.722020910931498  0.23378305294167495  1.0000
  O   O6        1.0  0.005020196829519799  0.5114827575851919  0.2778102643015146  1.0000
  O   O7        1.0  0.4231168620703159  0.32473474586732465  0.9984030116411944  1.0000
  O   O8        1.0  0.4246494050378828  0.0013708366709508002  0.32612517969528204  1.0000
  O   O9        1.0  0.09860940072467633  0.6739569335095439  0.6754142032993896  1.0000
  O   O10       1.0  0.5986001748082473  0.6754157579701786  0.6739586196650295  1.0000
  O   O11       1.0  0.9231241986598422  0.998402909279989  0.32472888964613145  1.0000
  O   O12       1.0  0.9246409920908789  0.3261191556442143  0.0013783095276736624  1.0000
  O   O13       1.0  0.10854200367349164  0.3321479504284143  0.8003170778026815  1.0000
  O   O14       1.0  0.3084868404343482  0.19981818569246462  0.5317649786663452  1.0000
  O   O15       1.0  0.7764847353394871  0.46840202497222105  0.6681618814588361  1.0000
  O   O16       1.0  0.27648334248274864  0.6681651792087139  0.46840170728946606  1.0000
  O   O17       1.0  0.6085406860256982  0.8003209144197572  0.3321488291818397  1.0000
  O   O18       1.0  0.8084847349517191  0.5317648188549315  0.19981980429222557  1.0000
