data_image0
_chemical_formula_structural       Zn4H32C48N8O24
_chemical_formula_sum              "Zn4 H32 C48 N8 O24"
_cell_length_a       9.486329442049014
_cell_length_b       10.553374732002702
_cell_length_c       12.644339975577193
_cell_angle_alpha    90.00001040372942
_cell_angle_beta     104.84492033756078
_cell_angle_gamma    89.99991889859423

_space_group_name_H-M_alt    "P 1"
_space_group_IT_number       1

loop_
  _space_group_symop_operation_xyz
  'x, y, z'

loop_
  _atom_site_type_symbol
  _atom_site_label
  _atom_site_symmetry_multiplicity
  _atom_site_fract_x
  _atom_site_fract_y
  _atom_site_fract_z
  _atom_site_occupancy
  Zn  Zn1       1.0  0.55376841215827  0.31856885794596923  0.21359190182877796  1.0000
  Zn  Zn2       1.0  0.9462317013729233  0.8185698139246255  0.28640803633309986  1.0000
  Zn  Zn3       1.0  0.4462316498711517  0.6814301676736676  0.7864075106339923  1.0000
  Zn  Zn4       1.0  0.05376836399710071  0.18142921169509657  0.7135921676357668  1.0000
  H   H1        1.0  0.6356046615963535  0.0187434552423937  0.8406499203636456  1.0000
  H   H2        1.0  0.8643951372418287  0.5187425923536748  0.6593514437969503  1.0000
  H   H3        1.0  0.36439648763371935  0.9812574655048745  0.15934890778900274  1.0000
  H   H4        1.0  0.1356038442665977  0.48125643326687845  0.3406501359879854  1.0000
  H   H5        1.0  0.7930595384845631  0.15563124849280993  0.17198468004392  1.0000
  H   H6        1.0  0.7069408412676809  0.655631569697185  0.3280152845751019  1.0000
  H   H7        1.0  0.2069416140868867  0.8443687246903476  0.8280149396149028  1.0000
  H   H8        1.0  0.293055965833247  0.3443712461816517  0.6719874638294527  1.0000
  H   H9        1.0  0.37751521861917336  0.2609779980276343  0.9926675571348511  1.0000
  H   H10       1.0  0.12248576250115661  0.7609774091647736  0.5073338984265732  1.0000
  H   H11       1.0  0.6224859339522767  0.7390219751555306  0.00733206252396457  1.0000
  H   H12       1.0  0.8775143095492979  0.239022564019308  0.49266788855441496  1.0000
  H   H13       1.0  0.27374119852192536  0.044874627165434285  0.5143453787288266  1.0000
  H   H14       1.0  0.22625794791863293  0.5448740105507284  0.985654114518063  1.0000
  H   H15       1.0  0.7262588635082706  0.9551234508900137  0.48565403373402205  1.0000
  H   H16       1.0  0.7737399363657858  0.45512501507033665  0.014345675058542841  1.0000
  H   H17       1.0  0.6189690328992725  0.2722812786710165  0.44653702416221813  1.0000
  H   H18       1.0  0.8810322468046011  0.7722803716478737  0.053463128711918294  1.0000
  H   H19       1.0  0.3810332135563571  0.7277177469473626  0.5534635941989094  1.0000
  H   H20       1.0  0.1189667313632157  0.22771865397260166  0.9465376595669142  1.0000
  H   H21       1.0  0.2549288518417612  0.18806102906617633  0.19157309271879086  1.0000
  H   H22       1.0  0.24507086856331742  0.6880603500472516  0.3084257914699862  1.0000
  H   H23       1.0  0.7450712068470581  0.811937996553382  0.8084255282378762  1.0000
  H   H24       1.0  0.7549291968074812  0.3119377280082815  0.6915744124989587  1.0000
  H   H25       1.0  0.9293815545438734  0.02868503021682759  0.08550531529235887  1.0000
  H   H26       1.0  0.5706190359645048  0.5286845956963973  0.41449546144579585  1.0000
  H   H27       1.0  0.0706185141652043  0.9713158905313576  0.9144956801824548  1.0000
  H   H28       1.0  0.42937994220099546  0.47131727261665185  0.5855053268328092  1.0000
  H   H29       1.0  0.4797693728075388  0.11952551336725036  0.6504747657351757  1.0000
  H   H30       1.0  0.0202307388628782  0.6195270238129422  0.849524131080088  1.0000
  H   H31       1.0  0.5202306892226574  0.8804725646881906  0.34952464672766576  1.0000
  H   H32       1.0  0.9797682359635684  0.38047294937163667  0.1504758656925701  1.0000
  C   C1        1.0  0.36258832833853216  0.12427384887445206  0.8066056101608653  1.0000
  C   C2        1.0  0.1374117789144265  0.6242751766372975  0.6933940773894989  1.0000
  C   C3        1.0  0.6374128175517129  0.8757261243085425  0.1933924264857652  1.0000
  C   C4        1.0  0.8625882897938767  0.37572669167508366  0.3066069180852367  1.0000
  C   C5        1.0  0.4906060007535231  0.13652957355035508  0.9047567833515301  1.0000
  C   C6        1.0  0.009393002614885402  0.636529147350558  0.5952442780250067  1.0000
  C   C7        1.0  0.5093951484765498  0.8634713471969133  0.09524204480111818  1.0000
  C   C8        1.0  0.9906070727746228  0.36347272096199384  0.4047583004619213  1.0000
  C   C9        1.0  0.6211914075069274  0.07373535981248837  0.9100611152046484  1.0000
  C   C10       1.0  0.8788104792245549  0.573736358667233  0.5899398629126225  1.0000
  C   C11       1.0  0.37881083560655077  0.9262655609341903  0.0899387116502339  1.0000
  C   C12       1.0  0.12118850228232253  0.4262645620817124  0.4100617168721569  1.0000
  C   C13       1.0  0.7338766817370157  0.07972853363655467  0.006805101441493356  1.0000
  C   C14       1.0  0.7661238253718069  0.5797288156220546  0.49319566700838646  1.0000
  C   C15       1.0  0.26612446749305724  0.920272387110714  0.9931937267111551  1.0000
  C   C16       1.0  0.23387516281472645  0.4202740002554463  0.5068074957884363  1.0000
  C   C17       1.0  0.7096074512835457  0.15009467549857183  0.09482571283180617  1.0000
  C   C18       1.0  0.7903940313975042  0.6500958551081978  0.40517525138837834  1.0000
  C   C19       1.0  0.29039479182993233  0.8499062452481069  0.905174114023069  1.0000
  C   C20       1.0  0.2096038662454589  0.34990790833415986  0.5948277042122356  1.0000
  C   C21       1.0  0.4762049832246689  0.2074974126401442  0.9948848080736141  1.0000
  C   C22       1.0  0.023796085274106805  0.7074997912603819  0.5051166561715092  1.0000
  C   C23       1.0  0.523796172688158  0.7925016129789029  0.005115603091383015  1.0000
  C   C24       1.0  0.9762018056891933  0.2925020770534203  0.49488471641706155  1.0000
  C   C25       1.0  0.11076938774468201  0.0364252774963845  0.3008454967802408  1.0000
  C   C26       1.0  0.3892294965543854  0.5364234441714472  0.1991547878466449  1.0000
  C   C27       1.0  0.8892317681673705  0.9635746956868584  0.6991549143846854  1.0000
  C   C28       1.0  0.6107694782728359  0.46357558144894273  0.8008452089260913  1.0000
  C   C29       1.0  0.2490853058437139  0.10838890496567186  0.3480969663614459  1.0000
  C   C30       1.0  0.25091454807593294  0.608389132069604  0.1519027222701652  1.0000
  C   C31       1.0  0.7509158433879082  0.8916101206532118  0.6519018617913587  1.0000
  C   C32       1.0  0.7490844300911237  0.39161084111506017  0.8480980660085892  1.0000
  C   C33       1.0  0.3210789556625926  0.09961726959509319  0.4589385942131585  1.0000
  C   C34       1.0  0.1789220031315963  0.5996175639902146  0.0410613030388802  1.0000
  C   C35       1.0  0.6789232874539836  0.9003798608948157  0.5410612326420292  1.0000
  C   C36       1.0  0.8210769716963994  0.40038051406598646  0.9589386937339341  1.0000
  C   C37       1.0  0.4557884102902536  0.1608753181112874  0.49697372825661995  1.0000
  C   C38       1.0  0.04421135453286241  0.6608748276695023  0.0030251603464392994  1.0000
  C   C39       1.0  0.5442127422827455  0.8391227599434926  0.503025891402352  1.0000
  C   C40       1.0  0.9557876202943592  0.3391241979508876  0.996974836426297  1.0000
  C   C41       1.0  0.5138831441050372  0.22502821142512627  0.42060187916227687  1.0000
  C   C42       1.0  0.9861160317191918  0.7250271766493127  0.0793978669923519  1.0000
  C   C43       1.0  0.4861180118077897  0.7749708141939277  0.5793985320027204  1.0000
  C   C44       1.0  0.013882946449406604  0.27497090140696656  0.9206029212865587  1.0000
  C   C45       1.0  0.3118784328245283  0.17752882627852523  0.277603435505462  1.0000
  C   C46       1.0  0.1881213081294675  0.6775282008484993  0.22239624189958107  1.0000
  C   C47       1.0  0.6881216325439468  0.8224720944695817  0.7223967684632555  1.0000
  C   C48       1.0  0.8118787538984125  0.3224727198995224  0.7776031705630331  1.0000
  N   N1        1.0  0.5839001373771636  0.21291257501166425  0.08737248840765227  1.0000
  N   N2        1.0  0.9160990615822586  0.7129126491111534  0.4126280512202741  1.0000
  N   N3        1.0  0.41609992465225804  0.7870864506079799  0.9126269240551181  1.0000
  N   N4        1.0  0.08389992326522133  0.28708827163787015  0.5873743200706016  1.0000
  N   N5        1.0  0.44388498923002817  0.23225531635333846  0.3139648274072541  1.0000
  N   N6        1.0  0.056114662307301395  0.7322548505828975  0.18603484111152824  1.0000
  N   N7        1.0  0.556116163342196  0.7677437092656303  0.6860347922516467  1.0000
  N   N8        1.0  0.9438843158605225  0.2677441750375777  0.813965947167304  1.0000
  O   O1        1.0  0.24323893045509243  0.1705974968125331  0.820765620848725  1.0000
  O   O2        1.0  0.2567600172498814  0.670597722437101  0.6792354349959666  1.0000
  O   O3        1.0  0.7567622187742062  0.8294043714989312  0.17923320730384526  1.0000
  O   O4        1.0  0.7432389609163934  0.32940319831175907  0.32076535328271655  1.0000
  O   O5        1.0  0.37531321278426333  0.07003715228496077  0.7210751888048534  1.0000
  O   O6        1.0  0.124685899224886  0.5700366196644848  0.7789258833684443  1.0000
  O   O7        1.0  0.6246868525849862  0.9299628208989501  0.2789250151639351  1.0000
  O   O8        1.0  0.8753152667081991  0.4299643010832027  0.2210769023146922  1.0000
  O   O9        1.0  0.8583778032031192  0.017742595998804192  0.011951537928247505  1.0000
  O   O10       1.0  0.6416228018433474  0.5177420873376446  0.48804844908060124  1.0000
  O   O11       1.0  0.14162444325096865  0.9822583247479598  0.988049080432731  1.0000
  O   O12       1.0  0.35837400191775265  0.4822597809769104  0.5119535078179354  1.0000
  O   O13       1.0  0.07760418059652352  0.9511042820253621  0.36374563598414505  1.0000
  O   O14       1.0  0.42239619722866456  0.4511047364438452  0.1362526211827557  1.0000
  O   O15       1.0  0.9223980558380732  0.048893796028579566  0.6362526078587648  1.0000
  O   O16       1.0  0.5776016837151446  0.5488942891771272  0.8637463768877466  1.0000
  O   O17       1.0  0.0399878945102969  0.05954303554651827  0.2045702979106352  1.0000
  O   O18       1.0  0.46000877093390363  0.5595382906108454  0.2954295685704622  1.0000
  O   O19       1.0  0.9600099931108518  0.9404607278955833  0.7954302831716831  1.0000
  O   O20       1.0  0.5399902005534899  0.44045978744527037  0.7045696366962488  1.0000
  O   O21       1.0  0.5357024086416046  0.1601153322436133  0.6012556563547307  1.0000
  O   O22       1.0  0.9642982397313771  0.6601162897083057  0.8987435175282101  1.0000
  O   O23       1.0  0.4642998344757461  0.8398808506821138  0.398744170500528  1.0000
  O   O24       1.0  0.035700735095844  0.3398827359120844  0.1012564792445261  1.0000
