data_image0
_chemical_formula_structural       Ca2P2H26C6O22
_chemical_formula_sum              "Ca2 P2 H26 C6 O22"
_cell_length_a       5.745856710445292
_cell_length_b       7.690183973005287
_cell_length_c       12.311386949656608
_cell_angle_alpha    90.00004832511529
_cell_angle_beta     103.09263160558186
_cell_angle_gamma    89.9998665695351

_space_group_name_H-M_alt    "P 1"
_space_group_IT_number       1

loop_
  _space_group_symop_operation_xyz
  'x, y, z'

loop_
  _atom_site_type_symbol
  _atom_site_label
  _atom_site_symmetry_multiplicity
  _atom_site_fract_x
  _atom_site_fract_y
  _atom_site_fract_z
  _atom_site_occupancy
  Ca  Ca1       1.0  0.2427951628144953  0.49892818129573147  0.2174232829488218  1.0000
  Ca  Ca2       1.0  0.7572044578158739  0.9989252562090343  0.7825766338546387  1.0000
  P   P1        1.0  0.5078126780115042  0.05796449096047239  0.19310160704328178  1.0000
  P   P2        1.0  0.4921864824352227  0.5579659621514282  0.806898032822879  1.0000
  H   H1        1.0  0.47237494123999113  0.784295876044851  0.5271357709405251  1.0000
  H   H2        1.0  0.5276253176245618  0.28429734979283694  0.4728632883201628  1.0000
  H   H3        1.0  0.2580819910538422  0.0036111379387264997  0.3930189436985713  1.0000
  H   H4        1.0  0.7419191197354849  0.5036106024886208  0.6069808704028503  1.0000
  H   H5        1.0  0.5787417794298123  0.0177418752708078  0.4161505239026794  1.0000
  H   H6        1.0  0.42126107566178206  0.5177431681870601  0.5838494786343489  1.0000
  H   H7        1.0  0.1050476693549953  0.6859174652964554  0.4231614109978281  1.0000
  H   H8        1.0  0.8949528854839671  0.1859171387300265  0.5768376278642506  1.0000
  H   H9        1.0  0.8677677013039755  0.1596028879644109  0.26722750190125305  1.0000
  H   H10       1.0  0.1322311533665044  0.6596022859461853  0.7327721590390581  1.0000
  H   H11       1.0  0.47538619025367984  0.5762016825939753  0.025569537804585714  1.0000
  H   H12       1.0  0.5246147096276914  0.0762012399644689  0.9744311043882021  1.0000
  H   H13       1.0  0.43428199931793904  0.7602194596050965  0.08008974831761863  1.0000
  H   H14       1.0  0.5657147658299309  0.2602188714635574  0.9199097479797443  1.0000
  H   H15       1.0  0.0576578934779377  0.30552476984672694  0.398605703994356  1.0000
  H   H16       1.0  0.942342316483071  0.8055251775928339  0.6013949857478806  1.0000
  H   H17       1.0  0.8486180428536512  0.41704802064083407  0.3257750179800851  1.0000
  H   H18       1.0  0.1513853902637976  0.9170473059462411  0.6742244398169887  1.0000
  H   H19       1.0  0.7614085873374704  0.676322653186027  0.1411593188762552  1.0000
  H   H20       1.0  0.23859023947385075  0.17632255296771857  0.8588427846507827  1.0000
  H   H21       1.0  0.9325498225709622  0.828658296334673  0.19288859730886546  1.0000
  H   H22       1.0  0.0674467666053999  0.3286558238846525  0.807114165338696  1.0000
  H   H23       1.0  0.8528823109274981  0.43764418520232345  0.0036882899047227745  1.0000
  H   H24       1.0  0.1471192883703338  0.9376439140325842  0.9963126127374053  1.0000
  H   H25       1.0  0.0523863255564763  0.30805437498670335  0.9928333353193536  1.0000
  H   H26       1.0  0.9476138842745028  0.8080552693522874  0.00716816798739471  1.0000
  C   C1        1.0  0.6724186157570173  0.6738210256139112  0.4152435960787031  1.0000
  C   C2        1.0  0.3275855565922967  0.17381909871334497  0.5847566243259195  1.0000
  C   C3        1.0  0.4476772010996085  0.7617346075425003  0.4366449836486197  1.0000
  C   C4        1.0  0.5523249049787822  0.26173486036767457  0.5633534433994356  1.0000
  C   C5        1.0  0.4203870200017121  0.9391776822986628  0.38028201736467077  1.0000
  C   C6        1.0  0.5796127803833571  0.43917796383626506  0.619717887050065  1.0000
  O   O1        1.0  0.4382618318644518  0.9838525943585098  0.07536542305332009  1.0000
  O   O2        1.0  0.5617360547809582  0.483852019555151  0.9246351181590171  1.0000
  O   O3        1.0  0.7901652773687075  0.0426954594356133  0.23770843868299352  1.0000
  O   O4        1.0  0.20983392901820255  0.5426947620218956  0.7622911980169603  1.0000
  O   O5        1.0  0.42733931491959953  0.23742842257818342  0.21440841438331396  1.0000
  O   O6        1.0  0.5726575262792082  0.7374258234767623  0.7855918902281616  1.0000
  O   O7        1.0  0.397943734647825  0.9137074903322641  0.2626146474601896  1.0000
  O   O8        1.0  0.6020579217005634  0.4137078920337914  0.7373846241388975  1.0000
  O   O9        1.0  0.2504909078171167  0.6508102266172315  0.3945906386442672  1.0000
  O   O10       1.0  0.7495115394609542  0.1508088920700743  0.605408578443793  1.0000
  O   O11       1.0  0.6417422276290309  0.5519344533418716  0.34410320365587665  1.0000
  O   O12       1.0  0.3582604871938031  0.05193256925019091  0.6558927407707317  1.0000
  O   O13       1.0  0.873348933327854  0.732365649482162  0.4682241196742821  1.0000
  O   O14       1.0  0.1266497024333404  0.2323666020550235  0.5317755563533026  1.0000
  O   O15       1.0  0.4650341546875508  0.634538446143907  0.09753596745257198  1.0000
  O   O16       1.0  0.5349647679082777  0.1345378880200485  0.9024628752507623  1.0000
  O   O17       1.0  0.9813006385874561  0.3339406558265026  0.3190459982263718  1.0000
  O   O18       1.0  0.018699478402652396  0.8339414820432014  0.680953884367888  1.0000
  O   O19       1.0  0.931813148189029  0.716374871407517  0.15451955919971994  1.0000
  O   O20       1.0  0.06818556560959618  0.2163724496199109  0.8454833656717183  1.0000
  O   O21       1.0  0.0008968492688836998  0.38367225693426826  0.0474790253224882  1.0000
  O   O22       1.0  0.9991049124059473  0.8836704403550399  0.9525218661285776  1.0000
