data_image0
_chemical_formula_structural       Ag16H64C136O32F48
_chemical_formula_sum              "Ag16 H64 C136 O32 F48"
_cell_length_a       6.619479967003003
_cell_length_b       31.362056215041264
_cell_length_c       31.362621442054966
_cell_angle_alpha    89.99982008527985
_cell_angle_beta     89.99989059686035
_cell_angle_gamma    89.99995711937362

_space_group_name_H-M_alt    "P 1"
_space_group_IT_number       1

loop_
  _space_group_symop_operation_xyz
  'x, y, z'

loop_
  _atom_site_type_symbol
  _atom_site_label
  _atom_site_symmetry_multiplicity
  _atom_site_fract_x
  _atom_site_fract_y
  _atom_site_fract_z
  _atom_site_occupancy
  Ag  Ag1       1.0  0.006433449372543999  0.569801746230169  0.5197069362633542  1.0000
  Ag  Ag2       1.0  0.6780317951399579  0.5353560000126975  0.4773427397656107  1.0000
  Ag  Ag3       1.0  0.006442612863580199  0.9301967166563686  0.9802928690869237  1.0000
  Ag  Ag4       1.0  0.6780437385459734  0.9646439362048296  0.022658134835595  1.0000
  Ag  Ag5       1.0  0.49358916608459685  0.519712833073811  0.9301936560198956  1.0000
  Ag  Ag6       1.0  0.8219623087413197  0.4773414902049496  0.9646423118951618  1.0000
  Ag  Ag7       1.0  0.49359606125855754  0.9802893860132399  0.5698018213776521  1.0000
  Ag  Ag8       1.0  0.8220090716674876  0.022655140374332895  0.5353609893947749  1.0000
  Ag  Ag9       1.0  0.5064101174055226  0.4802872400120177  0.069803902443148  1.0000
  Ag  Ag10      1.0  0.17802337850225314  0.5226569885936315  0.03535843508191761  1.0000
  Ag  Ag11      1.0  0.506428904006988  0.019710049356952197  0.4301960559324627  1.0000
  Ag  Ag12      1.0  0.1780597036675644  0.9773363235655878  0.46464390263938793  1.0000
  Ag  Ag13      1.0  0.9935567699549566  0.4301976891405204  0.4802922164568812  1.0000
  Ag  Ag14      1.0  0.32195389209807246  0.46464534849567934  0.5226580072069568  1.0000
  Ag  Ag15      1.0  0.9935853737442032  0.06980750155225479  0.0197120229348684  1.0000
  Ag  Ag16      1.0  0.3219585663125741  0.03535773115949329  0.9773422932824546  1.0000
  H   H1        1.0  0.06250889050350139  0.7021247944112688  0.4587344550640751  1.0000
  H   H2        1.0  0.9557467466315687  0.7715513486219835  0.4280438229333258  1.0000
  H   H3        1.0  0.41964608006767173  0.7122112885693496  0.3774439735308022  1.0000
  H   H4        1.0  0.5285337688490515  0.6438059592198329  0.4086971877859611  1.0000
  H   H5        1.0  0.5765309275715822  0.7939465307474832  0.4665259737907449  1.0000
  H   H6        1.0  0.5887702096477768  0.8570858107217986  0.5137355739657397  1.0000
  H   H7        1.0  0.8070052316411348  0.9334865613745008  0.4095623608601286  1.0000
  H   H8        1.0  0.7704075420328991  0.8722632943863217  0.3612960903740898  1.0000
  H   H9        1.0  0.06251978742004378  0.7978765057801592  0.041270795673412415  1.0000
  H   H10       1.0  0.9557636577924954  0.7284498230595915  0.0719620490209962  1.0000
  H   H11       1.0  0.4196652943163243  0.7877883659563166  0.12256209968573022  1.0000
  H   H12       1.0  0.5285439568375452  0.856194955065156  0.09131043880669411  1.0000
  H   H13       1.0  0.5765226154371419  0.7060585217764838  0.03347748971836501  1.0000
  H   H14       1.0  0.5887607859598631  0.6429234095151272  0.9862624184986615  1.0000
  H   H15       1.0  0.8069727367804448  0.5665143128700761  0.0904327260132192  1.0000
  H   H16       1.0  0.770390961763198  0.6277353531203146  0.13870251759896493  1.0000
  H   H17       1.0  0.4374918609767917  0.4587380887689037  0.7978773356259126  1.0000
  H   H18       1.0  0.5442468654499067  0.42804951350973397  0.7284498127619373  1.0000
  H   H19       1.0  0.08034014365713202  0.37744116486846474  0.7877874936575895  1.0000
  H   H20       1.0  0.9714505392440885  0.4086889445012076  0.8561957808677365  1.0000
  H   H21       1.0  0.923473064046526  0.466529460067477  0.7060555072122554  1.0000
  H   H22       1.0  0.9112442207031748  0.5137401125242673  0.6429178560273244  1.0000
  H   H23       1.0  0.6930282534099065  0.409565318516499  0.5665150084589075  1.0000
  H   H24       1.0  0.7296140062951865  0.36129670096764227  0.6277382759434289  1.0000
  H   H25       1.0  0.4374734909634127  0.041263061126400685  0.7021226026452683  1.0000
  H   H26       1.0  0.5442261951052885  0.07195353416702228  0.7715500854292543  1.0000
  H   H27       1.0  0.08034553322553958  0.12255174613591888  0.7122119410004049  1.0000
  H   H28       1.0  0.971464264208386  0.09129969315784338  0.6438074643208227  1.0000
  H   H29       1.0  0.9234734755599449  0.0334716199120706  0.7939426543563641  1.0000
  H   H30       1.0  0.9112649335135855  0.9862610898988466  0.857081290786006  1.0000
  H   H31       1.0  0.693011989154229  0.0904329249094715  0.9334822830770549  1.0000
  H   H32       1.0  0.7295815297956594  0.13869994291076893  0.8722602772668325  1.0000
  H   H33       1.0  0.5625225294319094  0.5412638974542006  0.20212117938398685  1.0000
  H   H34       1.0  0.4557660142651798  0.571953748140558  0.2715483833953415  1.0000
  H   H35       1.0  0.9196440329109877  0.622548385944185  0.2122132533337862  1.0000
  H   H36       1.0  0.028526083853492396  0.5913002874528387  0.14380656038004966  1.0000
  H   H37       1.0  0.0765413263649464  0.5334702941586187  0.293943326652041  1.0000
  H   H38       1.0  0.0887535520930172  0.4862590039907317  0.3570803401392979  1.0000
  H   H39       1.0  0.30698462631904283  0.5904331602856346  0.4334822311531852  1.0000
  H   H40       1.0  0.27041246966550153  0.6386998646916381  0.372260239072702  1.0000
  H   H41       1.0  0.5625182390663214  0.9587322291082996  0.29787623123029056  1.0000
  H   H42       1.0  0.45575496006237165  0.9280446257757333  0.2284503426982667  1.0000
  H   H43       1.0  0.9196295791627379  0.8774524720845135  0.28778784941695085  1.0000
  H   H44       1.0  0.0285244444137831  0.9086991044951629  0.3561945580587747  1.0000
  H   H45       1.0  0.07652882929706101  0.9665300474517551  0.20605809261258665  1.0000
  H   H46       1.0  0.08877816002942748  0.013742809454548402  0.14292200697896362  1.0000
  H   H47       1.0  0.3069857836321008  0.9095681047433928  0.06651718849015961  1.0000
  H   H48       1.0  0.2703784756835788  0.8612982170365199  0.1277382377592815  1.0000
  H   H49       1.0  0.937475286036296  0.2978794238070109  0.5412662919042717  1.0000
  H   H50       1.0  0.044223833677101296  0.22845286959827857  0.5719562863357766  1.0000
  H   H51       1.0  0.5803426285822368  0.2877875090926664  0.6225523095326366  1.0000
  H   H52       1.0  0.47146551462565617  0.35619570814521506  0.5913029214817627  1.0000
  H   H53       1.0  0.4234411634473433  0.20605736862152915  0.5334706281186996  1.0000
  H   H54       1.0  0.41123360592288094  0.14291776978978993  0.4862600713855585  1.0000
  H   H55       1.0  0.19304843678120426  0.0665103231374644  0.5904374295539939  1.0000
  H   H56       1.0  0.22961138045879886  0.12773454669908088  0.6387030623432608  1.0000
  H   H57       1.0  0.9374810067344087  0.20212388615318838  0.9587325021050007  1.0000
  H   H58       1.0  0.0442326042869681  0.27155056887508516  0.9280406110564741  1.0000
  H   H59       1.0  0.5803294570818524  0.2122117071253342  0.8774383284362416  1.0000
  H   H60       1.0  0.47145079455631833  0.1438041614445567  0.9086912647203678  1.0000
  H   H61       1.0  0.42346458249542707  0.293941870161852  0.9665232572554247  1.0000
  H   H62       1.0  0.4112294333608588  0.35707793899442214  0.013737371920363704  1.0000
  H   H63       1.0  0.1930325894751945  0.4334876733546835  0.9095651512965832  1.0000
  H   H64       1.0  0.2296219179522012  0.37226695195954557  0.8612959974107143  1.0000
  C   C1        1.0  0.8480934225879369  0.626321996385279  0.455498408865232  1.0000
  C   C2        1.0  0.7995850941458825  0.6685338676934691  0.4357678581439758  1.0000
  C   C3        1.0  0.9216021372836141  0.704643090312807  0.4409481490779967  1.0000
  C   C4        1.0  0.8611759488163458  0.7435649958084767  0.42364756845068297  1.0000
  C   C5        1.0  0.6794366992987334  0.7473020443961288  0.40094349967744597  1.0000
  C   C6        1.0  0.5596721011429439  0.7109214751486732  0.3954204440316857  1.0000
  C   C7        1.0  0.6196269525679767  0.6722603942857075  0.412807751782104  1.0000
  C   C8        1.0  0.623825093418887  0.790511938005217  0.3808985617373822  1.0000
  C   C9        1.0  0.3923583052251375  0.7942821293920517  0.3721241414127547  1.0000
  C   C10       1.0  0.7348763208801757  0.792746546278977  0.33701221867945463  1.0000
  C   C11       1.0  0.6728136207311834  0.8283697376753947  0.4103083433476585  1.0000
  C   C12       1.0  0.6258535357480143  0.8245134205351333  0.45378941743059203  1.0000
  C   C13       1.0  0.6341062527773857  0.859798373142979  0.4804797314208359  1.0000
  C   C14       1.0  0.6981988998959922  0.8994478979415915  0.46483651324400205  1.0000
  C   C15       1.0  0.6866781462057006  0.9374794802491735  0.4933458710044434  1.0000
  C   C16       1.0  0.7563396184600252  0.9029219039402745  0.422133115002076  1.0000
  C   C17       1.0  0.7382704220202856  0.8679325328825911  0.3949747292725832  1.0000
  C   C18       1.0  0.8481055061513344  0.8736791907864685  0.0445062281010564  1.0000
  C   C19       1.0  0.7995880858681234  0.8314673264591973  0.06423584048206983  1.0000
  C   C20       1.0  0.9216053185369689  0.7953587239973458  0.05905646029270171  1.0000
  C   C21       1.0  0.8611806238608184  0.7564345951989252  0.07635674475723421  1.0000
  C   C22       1.0  0.6794577869298023  0.7526982104697596  0.09906088175399932  1.0000
  C   C23       1.0  0.5596960162497524  0.7890807100846119  0.1045855766121164  1.0000
  C   C24       1.0  0.619641822269294  0.827741463465031  0.0871988840577487  1.0000
  C   C25       1.0  0.6238280258728963  0.7094883248656885  0.1191039274695029  1.0000
  C   C26       1.0  0.39235814603924973  0.7057200799210007  0.1278774781350762  1.0000
  C   C27       1.0  0.73486977359196  0.7072492366209174  0.16299150424953276  1.0000
  C   C28       1.0  0.672804898147575  0.6716317935770632  0.08969285206479331  1.0000
  C   C29       1.0  0.6258421971782014  0.6754925814665639  0.0462117956048615  1.0000
  C   C30       1.0  0.6340832229543096  0.6402076276762614  0.019518927711438008  1.0000
  C   C31       1.0  0.6981728506256815  0.6005561805206554  0.0351598898742296  1.0000
  C   C32       1.0  0.6866359017897566  0.5625236433032796  0.006649579890691401  1.0000
  C   C33       1.0  0.7563177019096372  0.5970799341621172  0.0778623097393023  1.0000
  C   C34       1.0  0.7382526398681365  0.6320689889554173  0.1050251661645305  1.0000
  C   C35       1.0  0.6519056251094709  0.4554980519798518  0.8736780432196625  1.0000
  C   C36       1.0  0.7004066560483793  0.43576630904673413  0.8314673078605709  1.0000
  C   C37       1.0  0.578395725422709  0.44095002697758895  0.795358415015528  1.0000
  C   C38       1.0  0.6388221438702573  0.42365083536326853  0.756435664055239  1.0000
  C   C39       1.0  0.8205509829727263  0.4009450465269424  0.7526968199687901  1.0000
  C   C40       1.0  0.9403109808288762  0.3954188762926308  0.7890792878442456  1.0000
  C   C41       1.0  0.8803589209856569  0.41280384072109655  0.8277402619938385  1.0000
  C   C42       1.0  0.8761749353682902  0.3809011439920837  0.7094890370058096  1.0000
  C   C43       1.0  0.1076448102497736  0.3721253137733171  0.7057206962845228  1.0000
  C   C44       1.0  0.765124011260497  0.3370143646966425  0.7072527065634588  1.0000
  C   C45       1.0  0.8271984045260012  0.4103112683849019  0.6716311952388736  1.0000
  C   C46       1.0  0.8741551628008467  0.4537927829486392  0.6754901705667394  1.0000
  C   C47       1.0  0.865911431786408  0.4804843286247191  0.6402044956140218  1.0000
  C   C48       1.0  0.8018310910959486  0.4648387376653033  0.6005544665306035  1.0000
  C   C49       1.0  0.8133759333999676  0.49334872567332155  0.562521246822989  1.0000
  C   C50       1.0  0.7436800966262781  0.4221384220839113  0.597078432005482  1.0000
  C   C51       1.0  0.7617523966165507  0.3949756060427205  0.632069806474725  1.0000
  C   C52       1.0  0.6519030822252604  0.04449892192876349  0.6263230899645438  1.0000
  C   C53       1.0  0.7004081610084968  0.06422970131242778  0.6685347636690651  1.0000
  C   C54       1.0  0.5783863265249138  0.05904855179392849  0.704640513807874  1.0000
  C   C55       1.0  0.6388123019103844  0.07634996670989119  0.7435641986324697  1.0000
  C   C56       1.0  0.8205470599550894  0.09905445397583888  0.7473020179434117  1.0000
  C   C57       1.0  0.9403119202399282  0.1045758241305634  0.7109195051148733  1.0000
  C   C58       1.0  0.8803648333250892  0.08718959289831214  0.6722598288768398  1.0000
  C   C59       1.0  0.8761659851939072  0.11909898622086248  0.7905104177260824  1.0000
  C   C60       1.0  0.10763276838256532  0.1278730138700155  0.7942768150122674  1.0000
  C   C61       1.0  0.7651118485828903  0.16298546263650587  0.7927467898596987  1.0000
  C   C62       1.0  0.8271922233832001  0.08968791230454802  0.8283679590296131  1.0000
  C   C63       1.0  0.874162783132519  0.046207666412342994  0.8245080095161939  1.0000
  C   C64       1.0  0.8659203248141766  0.019516121921171196  0.8597943252652911  1.0000
  C   C65       1.0  0.8018274548917504  0.03515917124791909  0.8994440595608781  1.0000
  C   C66       1.0  0.8133750610470543  0.006649500433916  0.9374782314860611  1.0000
  C   C67       1.0  0.7436656870573232  0.07786013291092078  0.9029191593650767  1.0000
  C   C68       1.0  0.7617336882937805  0.10502198978046098  0.8679290535171236  1.0000
  C   C69       1.0  0.34809970114615396  0.5444975571080164  0.1263223849073327  1.0000
  C   C70       1.0  0.2995926274408092  0.5642302566135057  0.1685318448624642  1.0000
  C   C71       1.0  0.42160960083416654  0.5590497272496577  0.20464009999957264  1.0000
  C   C72       1.0  0.36118771446498943  0.5763495565774476  0.24356253210711296  1.0000
  C   C73       1.0  0.1794513218999967  0.5990540699872398  0.24730169504787375  1.0000
  C   C74       1.0  0.05968225989354891  0.6045748196577491  0.21092018373532545  1.0000
  C   C75       1.0  0.11963280904099353  0.587189855228381  0.17225984728781193  1.0000
  C   C76       1.0  0.12383643365471642  0.6190986102332231  0.2905104345608507  1.0000
  C   C77       1.0  0.8923680694622292  0.6278747593075239  0.29427941298315125  1.0000
  C   C78       1.0  0.23489340053419738  0.6629857083853777  0.2927464461506731  1.0000
  C   C79       1.0  0.17281598588977692  0.5896862538446824  0.3283676386289258  1.0000
  C   C80       1.0  0.12585771692347691  0.5462056958519881  0.3245080255980426  1.0000
  C   C81       1.0  0.13409087308446743  0.5195141501751619  0.3597946571054465  1.0000
  C   C82       1.0  0.19816668170332014  0.5351587845664839  0.39944372963852004  1.0000
  C   C83       1.0  0.18661126454431107  0.506650390841443  0.43747758704741113  1.0000
  C   C84       1.0  0.2563342937978277  0.5778603755757601  0.4029181699040337  1.0000
  C   C85       1.0  0.23826954726268212  0.6050219161863167  0.36792902739166083  1.0000
  C   C86       1.0  0.3481022440242043  0.9554982814413293  0.37367797586174595  1.0000
  C   C87       1.0  0.299586590384436  0.935769096340138  0.3314672587094024  1.0000
  C   C88       1.0  0.42160540349403414  0.940948332721497  0.2953599143196684  1.0000
  C   C89       1.0  0.3611688532585049  0.9236491498038006  0.25643559179176384  1.0000
  C   C90       1.0  0.17943409520857054  0.9009465756772242  0.2526980913287105  1.0000
  C   C91       1.0  0.05966621352879291  0.8954261620901461  0.28908219841080307  1.0000
  C   C92       1.0  0.11962689668339271  0.912811117895842  0.327741236946494  1.0000
  C   C93       1.0  0.12381970204720719  0.8809023622885164  0.20948969154468955  1.0000
  C   C94       1.0  0.8923514081868121  0.8721254649346761  0.2057201057543168  1.0000
  C   C95       1.0  0.23487988142528596  0.8370162047280799  0.20725395711123445  1.0000
  C   C96       1.0  0.17280252801774762  0.9103131173485365  0.1716315125381627  1.0000
  C   C97       1.0  0.12585613934162151  0.9537936820926375  0.17549337515193036  1.0000
  C   C98       1.0  0.13411370457515662  0.9804880962905214  0.1402083347990839  1.0000
  C   C99       1.0  0.19819448895574962  0.9648444092508512  0.10055891935765973  1.0000
  C   C100      1.0  0.1866589683407369  0.993353123493051  0.0625253851335046  1.0000
  C   C101      1.0  0.25633359641584263  0.9221415344536297  0.0970812687535414  1.0000
  C   C102      1.0  0.23825048826758183  0.8949774455921611  0.1320691426515523  1.0000
  C   C103      1.0  0.15189377533723558  0.37368062754856624  0.5445029758068431  1.0000
  C   C104      1.0  0.20040059309646102  0.3314684373868387  0.5642316134234946  1.0000
  C   C105      1.0  0.0783895927254932  0.29536049019314703  0.5590516413372343  1.0000
  C   C106      1.0  0.13881275982247843  0.2564363527046893  0.5763499900123394  1.0000
  C   C107      1.0  0.32055200934069455  0.25269739097617355  0.5990546964903771  1.0000
  C   C108      1.0  0.4403105647309716  0.28907923565314053  0.6045761578807857  1.0000
  C   C109      1.0  0.3803693095250508  0.32774095422391264  0.587191719784883  1.0000
  C   C110      1.0  0.3761575724531738  0.20948654079808904  0.6190993155821759  1.0000
  C   C111      1.0  0.6076243606235039  0.20571890025839676  0.627877562113575  1.0000
  C   C112      1.0  0.26509123806159357  0.2072528890948391  0.6629859774923403  1.0000
  C   C113      1.0  0.3271841520699397  0.17163001655490007  0.5896885774143712  1.0000
  C   C114      1.0  0.3741351728914212  0.17548920340560406  0.5462075033286311  1.0000
  C   C115      1.0  0.36589303071612284  0.14020393194185493  0.5195162327842127  1.0000
  C   C116      1.0  0.3018230439869499  0.10055249400024728  0.5351604075124926  1.0000
  C   C117      1.0  0.3133755222215698  0.0625196362623157  0.506652006300783  1.0000
  C   C118      1.0  0.24367930404153526  0.0970772125757122  0.5778634869060825  1.0000
  C   C119      1.0  0.2617409470064231  0.13206690248707526  0.6050241045927862  1.0000
  C   C120      1.0  0.15188622383157485  0.1263243897109803  0.9554989827794389  1.0000
  C   C121      1.0  0.20039609066673592  0.1685330654753443  0.9357674572994628  1.0000
  C   C122      1.0  0.07839245422964318  0.20464294336279915  0.9409468374842762  1.0000
  C   C123      1.0  0.1388201702976417  0.24356611559257146  0.9236455964679922  1.0000
  C   C124      1.0  0.3205475393122724  0.24730281918005653  0.9009401840662792  1.0000
  C   C125      1.0  0.4403032672224895  0.21091904413856347  0.8954158080621968  1.0000
  C   C126      1.0  0.3803544398172606  0.1722592473287961  0.9128021817647323  1.0000
  C   C127      1.0  0.3761742789874988  0.2905123859287073  0.8808965006500529  1.0000
  C   C128      1.0  0.6076426481318435  0.2942780800198506  0.8721232688396655  1.0000
  C   C129      1.0  0.26512799919375135  0.29274892332014696  0.8370092427257703  1.0000
  C   C130      1.0  0.3271989174095182  0.3283692360753676  0.9103066195012774  1.0000
  C   C131      1.0  0.37415406491051323  0.32450940475533924  0.9537883136629264  1.0000
  C   C132      1.0  0.36590548567742326  0.35979340197775395  0.9804802250065734  1.0000
  C   C133      1.0  0.3018203900850481  0.39944516799018004  0.9648389439915308  1.0000
  C   C134      1.0  0.3133512961560641  0.4374770674962035  0.9933482974245109  1.0000
  C   C135      1.0  0.24367856018709233  0.40292268977608353  0.9221358864220977  1.0000
  C   C136      1.0  0.2617541970752697  0.3679323595539401  0.8949739865495732  1.0000
  O   O1        1.0  0.732294403977292  0.5954404356367318  0.44545403811191164  1.0000
  O   O2        1.0  0.9974298037253464  0.6250216473543942  0.4815459504076999  1.0000
  O   O3        1.0  0.5393431833575592  0.9368449247520089  0.5196992451998241  1.0000
  O   O4        1.0  0.8164435879354671  0.9676761579689169  0.4893467712746543  1.0000
  O   O5        1.0  0.7323077818697641  0.9045620436222137  0.054550004623010316  1.0000
  O   O6        1.0  0.9974315592088773  0.874978242908362  0.0184576739467488  1.0000
  O   O7        1.0  0.5393144863882569  0.5631607951811687  0.9802943019167715  1.0000
  O   O8        1.0  0.8163878252378465  0.5323234394843795  0.010653732527025301  1.0000
  O   O9        1.0  0.7676849830429333  0.4454495468821804  0.9045603409582839  1.0000
  O   O10       1.0  0.502591724397263  0.4815515182243928  0.8749757534926774  1.0000
  O   O11       1.0  0.9607107161506151  0.5197003025828408  0.5631553722266888  1.0000
  O   O12       1.0  0.6836045635851207  0.48934681267343194  0.532325140903808  1.0000
  O   O13       1.0  0.7676947854073574  0.05454581608393029  0.5954417053135117  1.0000
  O   O14       1.0  0.5025802305364381  0.018449303452022992  0.6250216095310749  1.0000
  O   O15       1.0  0.9607140633525689  0.9802980230136028  0.9368447125766437  1.0000
  O   O16       1.0  0.6836079159675778  0.010651113246247196  0.9676747049739447  1.0000
  O   O17       1.0  0.2322976828155561  0.5545447867777397  0.0954420002803573  1.0000
  O   O18       1.0  0.4974151125621589  0.5184479171491103  0.1250208484172575  1.0000
  O   O19       1.0  0.03927346040519811  0.48029881393113527  0.4368440993460753  1.0000
  O   O20       1.0  0.316382634354227  0.5106532604102654  0.4676743306668883  1.0000
  O   O21       1.0  0.2323180943077148  0.9454494741452492  0.4045596793652564  1.0000
  O   O22       1.0  0.49742358502989253  0.9815469433507431  0.3749778620425062  1.0000
  O   O23       1.0  0.03933507294888021  0.019707470619579198  0.063160498290074  1.0000
  O   O24       1.0  0.31642611342452653  0.9893508729684368  0.0323282739448345  1.0000
  O   O25       1.0  0.2676822190842643  0.4045634637204429  0.5545498973673304  1.0000
  O   O26       1.0  0.0025740118443806997  0.37497842573160506  0.518451289203597  1.0000
  O   O27       1.0  0.4607044422924814  0.06315514832833459  0.4802995886577364  1.0000
  O   O28       1.0  0.18362518740545403  0.032319451111888484  0.5106552510949243  1.0000
  O   O29       1.0  0.26767639466818594  0.09544153688177912  0.9454513800481339  1.0000
  O   O30       1.0  0.002570745612068501  0.125025337584816  0.9815497688880441  1.0000
  O   O31       1.0  0.460681775714022  0.4368421476156712  0.0197026188405331  1.0000
  O   O32       1.0  0.1835918192361987  0.4676744016013429  0.9893470144521856  1.0000
  F   F1        1.0  0.3294275863603032  0.769270113577363  0.33938458232538693  1.0000
  F   F2        1.0  0.28541622033419867  0.7827528628009546  0.407630140149962  1.0000
  F   F3        1.0  0.33719381825432043  0.8348212630582806  0.3626902466057517  1.0000
  F   F4        1.0  0.7207998639314468  0.7556335814361147  0.3151072229248229  1.0000
  F   F5        1.0  0.9345067631972483  0.8010769717825142  0.34263191519870173  1.0000
  F   F6        1.0  0.6589127140739209  0.8240254725208158  0.3111827103075272  1.0000
  F   F7        1.0  0.32941946064150335  0.730729235079643  0.16061737970446902  1.0000
  F   F8        1.0  0.28542391329321504  0.7172519127511735  0.09237088183823523  1.0000
  F   F9        1.0  0.33718314961960527  0.6651796787708335  0.1373078862957442  1.0000
  F   F10       1.0  0.7207899401614527  0.7443612469132289  0.1849003315015807  1.0000
  F   F11       1.0  0.9345033237842131  0.6989181446810306  0.15737332704096474  1.0000
  F   F12       1.0  0.6588924417088292  0.6759690458901985  0.18881593952954034  1.0000
  F   F13       1.0  0.1705681245422568  0.339383156616769  0.7307301248928937  1.0000
  F   F14       1.0  0.21458813218518463  0.4076315695896966  0.7172534574289742  1.0000
  F   F15       1.0  0.1628200535277458  0.3626942316280406  0.6651807222028341  1.0000
  F   F16       1.0  0.7791974872943399  0.3151072596781432  0.7443660262550368  1.0000
  F   F17       1.0  0.5654965764919098  0.342635515916946  0.6989214801038133  1.0000
  F   F18       1.0  0.84109241562701  0.3111860635860991  0.6759750540511719  1.0000
  F   F19       1.0  0.17055770865037087  0.16061803168263108  0.769268000478533  1.0000
  F   F20       1.0  0.21457331755159  0.0923676992406044  0.7827424194642347  1.0000
  F   F21       1.0  0.1628196689088171  0.13730281265046074  0.8348164495292707  1.0000
  F   F22       1.0  0.7791931522130895  0.18489320334152376  0.755634421434948  1.0000
  F   F23       1.0  0.5654783122333883  0.15736593442478147  0.8010749027520989  1.0000
  F   F24       1.0  0.8410783401581057  0.18881183967543788  0.8240260081101669  1.0000
  F   F25       1.0  0.8294477765535861  0.6606185107475822  0.2692696655208096  1.0000
  F   F26       1.0  0.785421726130032  0.5923704166287324  0.2827482460907476  1.0000
  F   F27       1.0  0.8371928261790205  0.6373077545921717  0.3348197059127288  1.0000
  F   F28       1.0  0.22081539240810596  0.6848937699701381  0.255635677265623  1.0000
  F   F29       1.0  0.43452385669863963  0.657363919454575  0.30107575950535903  1.0000
  F   F30       1.0  0.15893557100665126  0.6888127340645837  0.3240266494701558  1.0000
  F   F31       1.0  0.829426467900518  0.8393852299687267  0.2307308333859339  1.0000
  F   F32       1.0  0.7854123697286609  0.9076333304246448  0.2172497185345961  1.0000
  F   F33       1.0  0.8371841466732306  0.8626924775868829  0.16518015238774103  1.0000
  F   F34       1.0  0.2208091526405269  0.8151094205917389  0.2443666443833905  1.0000
  F   F35       1.0  0.4345119070916539  0.842637964940927  0.1989229745575329  1.0000
  F   F36       1.0  0.15892094331290002  0.8111869579768012  0.1759760142674409  1.0000
  F   F37       1.0  0.6705445046287154  0.23072932178612146  0.6606199908635091  1.0000
  F   F38       1.0  0.7145800417369444  0.21724784798786348  0.5923741141814958  1.0000
  F   F39       1.0  0.662790358284539  0.16517785345018857  0.6373127323268905  1.0000
  F   F40       1.0  0.2791586308541838  0.24436744822258308  0.6848903355443741  1.0000
  F   F41       1.0  0.06545928506353961  0.19892118816784427  0.6573643678699953  1.0000
  F   F42       1.0  0.3410533341745393  0.17597587599397707  0.6888148481597511  1.0000
  F   F43       1.0  0.670570758680441  0.26926669286395116  0.8393843238284548  1.0000
  F   F44       1.0  0.7145799022601765  0.2827462471884559  0.9076305028377336  1.0000
  F   F45       1.0  0.6628161338646452  0.33481784345833887  0.8626919041275799  1.0000
  F   F46       1.0  0.2791942363829563  0.25563659416966533  0.8151020097312626  1.0000
  F   F47       1.0  0.0654959596923419  0.30108256611408274  0.8426267822282585  1.0000
  F   F48       1.0  0.34110986316850506  0.32402688205704067  0.8111828943430339  1.0000
