data_image0
_chemical_formula_structural       Al6H8C84O28F30
_chemical_formula_sum              "Al6 H8 C84 O28 F30"
_cell_length_a       13.786816482238175
_cell_length_b       13.776457232329467
_cell_length_c       28.233634771694458
_cell_angle_alpha    90.05739787745742
_cell_angle_beta     90.03295079283805
_cell_angle_gamma    120.2675677920571

_space_group_name_H-M_alt    "P 1"
_space_group_IT_number       1

loop_
  _space_group_symop_operation_xyz
  'x, y, z'

loop_
  _atom_site_type_symbol
  _atom_site_label
  _atom_site_symmetry_multiplicity
  _atom_site_fract_x
  _atom_site_fract_y
  _atom_site_fract_z
  _atom_site_occupancy
  Al  Al1       1.0  0.48820303159252626  0.2392850648901117  0.4997828228677648  1.0000
  Al  Al2       1.0  0.727456794668548  0.2514645627092377  0.500826860333376  1.0000
  Al  Al3       1.0  0.7274642508583894  0.4690033497793424  0.500879873355622  1.0000
  Al  Al4       1.0  0.23875129919520782  0.48839364435999494  0.9998536564353344  1.0000
  Al  Al5       1.0  0.25175928061086933  0.728325617806881  0.0008732795542769998  1.0000
  Al  Al6       1.0  0.46863540381964686  0.7272688305002006  0.0008031520354876  1.0000
  H   H1        1.0  0.024643391490379023  0.3482623594751643  0.7199847002699543  1.0000
  H   H2        1.0  0.6584106194985749  0.6831654330645662  0.7203196178853518  1.0000
  H   H3        1.0  0.3262018208932672  0.975230995976986  0.7207072322275536  1.0000
  H   H4        1.0  0.3485012567698148  0.025497524972891525  0.2196643084092429  1.0000
  H   H5        1.0  0.6834817144780627  0.6597679544434383  0.2200152756786693  1.0000
  H   H6        1.0  0.9742188419734745  0.3257091206260939  0.22049923988807762  1.0000
  H   H7        1.0  0.3031322312954856  0.16379218350819974  0.5269783664685264  1.0000
  H   H8        1.0  0.15045042591591332  0.3035128062066263  0.0285667053839873  1.0000
  C   C1        1.0  0.5665616441839133  0.4387618728756592  0.5667886450704742  1.0000
  C   C2        1.0  0.4878488065957853  0.9793232704286936  0.2001096051529885  1.0000
  C   C3        1.0  0.49651642962938786  0.5182012865192078  0.20276227412448122  1.0000
  C   C4        1.0  0.02111715706121937  0.5138100896622076  0.20536564507423094  1.0000
  C   C5        1.0  0.9304837619613692  0.41006753024991854  0.7716954735696504  1.0000
  C   C6        1.0  0.6014193734942878  0.528708430862288  0.7728620831810673  1.0000
  C   C7        1.0  0.4766750704153821  0.06998166634512161  0.7754067676519797  1.0000
  C   C8        1.0  0.40910238244354935  0.9305616088631651  0.27154274251741833  1.0000
  C   C9        1.0  0.5295439798652312  0.6028765269767576  0.27285121638806936  1.0000
  C   C10       1.0  0.06933744054267515  0.47605312695892377  0.2752902592838637  1.0000
  C   C11       1.0  0.8940187553558017  0.48077978118914905  0.7401593200545021  1.0000
  C   C12       1.0  0.5677591723801427  0.12562339039108392  0.5688124612810127  1.0000
  C   C13       1.0  0.527765525264236  0.41969528924153104  0.7423549651204482  1.0000
  C   C14       1.0  0.587446854828208  0.10677162597075097  0.7462793843888349  1.0000
  C   C15       1.0  0.4800343405770986  0.8940424588251545  0.24021333836520856  1.0000
  C   C16       1.0  0.420396891311519  0.5287757516948232  0.2425033470392322  1.0000
  C   C17       1.0  0.10640562642764452  0.5870624102610336  0.24624833674878488  1.0000
  C   C18       1.0  0.05069381225907681  0.5387700132096923  0.8447606893746666  1.0000
  C   C19       1.0  0.47811433951354587  0.5246646246586479  0.84725869689467  1.0000
  C   C20       1.0  0.4760852338571125  0.947308118886198  0.8498079827044834  1.0000
  C   C21       1.0  0.5368087936007627  0.050057998847527964  0.34493151851208387  1.0000
  C   C22       1.0  0.526301924754719  0.48001914814678065  0.3472586579776332  1.0000
  C   C23       1.0  0.8637481903837241  0.4275778881755627  0.565224404416469  1.0000
  C   C24       1.0  0.9470145364216334  0.4757906043015722  0.3498014234141422  1.0000
  C   C25       1.0  0.9499521353855728  0.47040866270665305  0.6516047814076344  1.0000
  C   C26       1.0  0.5310062092617187  0.4836698990012989  0.6540550792941316  1.0000
  C   C27       1.0  0.5296004412520219  0.048680432261917914  0.6568167309853763  1.0000
  C   C28       1.0  0.4708368909363896  0.9502712682846804  0.1516532417667946  1.0000
  C   C29       1.0  0.48370069473993726  0.5316573972296226  0.15416151975938416  1.0000
  C   C30       1.0  0.04816794317416398  0.529679483710339  0.15677411910364467  1.0000
  C   C31       1.0  0.5662450753557238  0.43580166446504626  0.43381307335096864  1.0000
  C   C32       1.0  0.5684366317569028  0.12255904260563004  0.43364812781296547  1.0000
  C   C33       1.0  0.8626643236735844  0.4303700137312561  0.4363336174932329  1.0000
  C   C34       1.0  0.4372155700284708  0.5661717544653015  0.0670309595550549  1.0000
  C   C35       1.0  0.43532276044191315  0.5655256844455464  0.9339680378467818  1.0000
  C   C36       1.0  0.12354037412809757  0.5697890920277473  0.9333891042279632  1.0000
  C   C37       1.0  0.4299667015149709  0.863146736409334  0.9363684220809034  1.0000
  C   C38       1.0  0.07386314120921596  0.600789989170856  0.7238226827070945  1.0000
  C   C39       1.0  0.40651675274579446  0.4780852399361704  0.7279159508122534  1.0000
  C   C40       1.0  0.5289322988172456  0.9270590849909153  0.7306507945749273  1.0000
  C   C41       1.0  0.6005169384935201  0.07401764834451545  0.2241263963265965  1.0000
  C   C42       1.0  0.478945980419212  0.4075835807434204  0.22804919276565266  1.0000
  C   C43       1.0  0.9269356902431765  0.5291044538417679  0.23071334867286447  1.0000
  C   C44       1.0  0.9889922139378765  0.5927151004670531  0.7630446154093847  1.0000
  C   C45       1.0  0.12482374923510502  0.5685823567601742  0.0687048063880269  1.0000
  C   C46       1.0  0.4180156709044952  0.40275505410925666  0.7669043725608303  1.0000
  C   C47       1.0  0.6016663717612829  0.01213965227474751  0.7708365081300528  1.0000
  C   C48       1.0  0.5916845995009365  0.9887293347088572  0.26333997831530803  1.0000
  C   C49       1.0  0.40385930502196726  0.41917617483494496  0.26713294877365706  1.0000
  C   C50       1.0  0.012107084072241004  0.6015992701195144  0.2708965603922239  1.0000
  C   C51       1.0  0.0763128794307377  0.5510364398453333  0.8864865797118356  1.0000
  C   C52       1.0  0.4652450016577345  0.5420846985902442  0.8883555354391461  1.0000
  C   C53       1.0  0.4585732625778433  0.9173518627303421  0.8910043406166467  1.0000
  C   C54       1.0  0.5488826402711028  0.07533350916503423  0.38670162039273487  1.0000
  C   C55       1.0  0.5436349691767859  0.46685064101706075  0.38831311147097125  1.0000
  C   C56       1.0  0.4284741420104791  0.8639272879354251  0.06527980881604381  1.0000
  C   C57       1.0  0.9169884570963873  0.45853678082355037  0.39099354042429013  1.0000
  C   C58       1.0  0.9190355199168324  0.455318722455772  0.6104713754468422  1.0000
  C   C59       1.0  0.5440376202249338  0.468042266983474  0.6127313330423689  1.0000
  C   C60       1.0  0.5469559767128656  0.0765032731048763  0.6154016266361282  1.0000
  C   C61       1.0  0.4558746390293889  0.9190713793367563  0.11055593728703168  1.0000
  C   C62       1.0  0.46749696755022524  0.5443153217675628  0.1128719191785947  1.0000
  C   C63       1.0  0.07597951477994513  0.547348130115445  0.11535227332454669  1.0000
  C   C64       1.0  0.10813823252279779  0.5286057272565258  0.7555770311965945  1.0000
  C   C65       1.0  0.48129709610559973  0.5862084734165408  0.758622412784021  1.0000
  C   C66       1.0  0.4186053699156743  0.8921905819952869  0.7598747173010665  1.0000
  C   C67       1.0  0.9789233210219734  0.4878242609095054  0.7000535348149198  1.0000
  C   C68       1.0  0.5281501586835801  0.10838743403604664  0.2557231642068701  1.0000
  C   C69       1.0  0.5871518560829685  0.4827471916439379  0.2585905832079122  1.0000
  C   C70       1.0  0.8918039525646222  0.4185169122193457  0.259850935968899  1.0000
  C   C71       1.0  0.024639177265740424  0.5226470243368482  0.7961118641345236  1.0000
  C   C72       1.0  0.491299798771962  0.5106613378016432  0.7988194045235985  1.0000
  C   C73       1.0  0.49192156749727206  0.9759935361136628  0.8014564684604933  1.0000
  C   C74       1.0  0.5213616016119005  0.0244704351796159  0.29623293881822127  1.0000
  C   C75       1.0  0.5118959884819886  0.4929380242823241  0.29884525546654567  1.0000
  C   C76       1.0  0.9757380218959141  0.4916128501382105  0.3014467252092814  1.0000
  C   C77       1.0  0.014499695897867971  0.4173331355606891  0.7328436907002568  1.0000
  C   C78       1.0  0.5172220433724846  0.49604229008846806  0.7026723793967308  1.0000
  C   C79       1.0  0.5906682694070753  0.6041558825446104  0.7343533697452997  1.0000
  C   C80       1.0  0.4038620644540245  0.9855604230199474  0.7356543822572802  1.0000
  C   C81       1.0  0.4171818670665388  0.015027334960080935  0.2327120725277041  1.0000
  C   C82       1.0  0.6047607909635601  0.5920344363862285  0.2342568037457369  1.0000
  C   C83       1.0  0.984837029953155  0.4034840316733578  0.23552896330228626  1.0000
  C   C84       1.0  0.5139425922723007  0.02154790089273461  0.7054034935939981  1.0000
  O   O1        1.0  0.49739279647062057  0.15060351165417538  0.5532590892116148  1.0000
  O   O2        1.0  0.3424509952068816  0.49486618563079077  0.05067736043307751  1.0000
  O   O3        1.0  0.14495015719192852  0.6609382558908834  0.048602802259701094  1.0000
  O   O4        1.0  0.49804158072858906  0.8381028164883798  0.04787215288618539  1.0000
  O   O5        1.0  0.4958661962887446  0.14273501535222963  0.4505573365566348  1.0000
  O   O6        1.0  0.8386944375764215  0.3357072549851878  0.4542268247714317  1.0000
  O   O7        1.0  0.6576047411182345  0.5085703457848326  0.4547320300865749  1.0000
  O   O8        1.0  0.1452114338113404  0.4975451470685712  0.9494847480744042  1.0000
  O   O9        1.0  0.33487896886732904  0.8387428564029589  0.9538806980006527  1.0000
  O   O10       1.0  0.5077852044702097  0.6585008975012767  0.9539625006282932  1.0000
  O   O11       1.0  0.4968429421110869  0.33860970559247505  0.4483725195122262  1.0000
  O   O12       1.0  0.8385700905641897  0.3322054084854856  0.5474665039869605  1.0000
  O   O13       1.0  0.6616651874445194  0.144153095310152  0.4534956348105439  1.0000
  O   O14       1.0  0.837757574818859  0.5004371629633513  0.45419610091377655  1.0000
  O   O15       1.0  0.3394353701757921  0.4954430450629345  0.9495141386963724  1.0000
  O   O16       1.0  0.14340796860291496  0.6617239736417986  0.9540603217649276  1.0000
  O   O17       1.0  0.49995096404920486  0.8387692966104154  0.9546501994714801  1.0000
  O   O18       1.0  0.649606789899863  0.3209512035281745  0.500750065751575  1.0000
  O   O19       1.0  0.32068216109463055  0.6498956765928268  0.0007924270877381999  1.0000
  O   O20       1.0  0.6621447422024715  0.5097645716846061  0.5484255267408713  1.0000
  O   O21       1.0  0.1473965229087922  0.49705592818396127  0.05235930618530201  1.0000
  O   O22       1.0  0.3340823071652608  0.8402676106628987  0.047062994292275596  1.0000
  O   O23       1.0  0.5090300992949679  0.6601626603544943  0.0476735757046711  1.0000
  O   O24       1.0  0.4943171326627223  0.3455911306791748  0.5493995678910722  1.0000
  O   O25       1.0  0.6585591607563543  0.14344161772825006  0.547979500373117  1.0000
  O   O26       1.0  0.8392380314361957  0.49769894096977635  0.5473788291730202  1.0000
  O   O27       1.0  0.3416903844872363  0.16290931319995383  0.4985672608249274  1.0000
  O   O28       1.0  0.16233270839434502  0.3417682255337481  0.9986271482150925  1.0000
  F   F1        1.0  0.9770250102686759  0.6790844611992242  0.7784122145558142  1.0000
  F   F2        1.0  0.6945135804116944  0.14373774332311476  0.19962535834078213  1.0000
  F   F3        1.0  0.4536446827952005  0.3121297830414563  0.20452401726281982  1.0000
  F   F4        1.0  0.8585662137175447  0.5565046323672364  0.20728871011367997  1.0000
  F   F5        1.0  0.788463798464981  0.45712445915240335  0.730769013959545  1.0000
  F   F6        1.0  0.5500358943240187  0.3370423423081307  0.7325781793318313  1.0000
  F   F7        1.0  0.6704108957530294  0.21280684578510997  0.7377715588954886  1.0000
  F   F8        1.0  0.4562644374119029  0.7884150846754778  0.23070311764114854  1.0000
  F   F9        1.0  0.3375350587218974  0.5506755419049582  0.2327719926593446  1.0000
  F   F10       1.0  0.21248395061328293  0.6698094042402116  0.23774783878021571  1.0000
  F   F11       1.0  0.8613813567810525  0.3166967732745648  0.7966502810196232  1.0000
  F   F12       1.0  0.333489086716689  0.3043926761954054  0.783611600467374  1.0000
  F   F13       1.0  0.6970664326974758  0.5541384154697087  0.7962641291426991  1.0000
  F   F14       1.0  0.4505353478535881  0.13969044968472139  0.7985871075296629  1.0000
  F   F15       1.0  0.3153672112258973  0.8613852170050648  0.2962472607737253  1.0000
  F   F16       1.0  0.5549664519842992  0.6986866879184319  0.29619338537842305  1.0000
  F   F17       1.0  0.1388050983269621  0.4495088604518216  0.29834585772127303  1.0000
  F   F18       1.0  0.2138059368549605  0.5515066736172258  0.7645531159162998  1.0000
  F   F19       1.0  0.4580916684368573  0.6683460904556141  0.768579921423637  1.0000
  F   F20       1.0  0.33439122719698106  0.786375932497428  0.7682272836736103  1.0000
  F   F21       1.0  0.5512214777453721  0.2141777905443192  0.2647523384920518  1.0000
  F   F22       1.0  0.6692726275325496  0.45960723113533664  0.26858148749651184  1.0000
  F   F23       1.0  0.6980382250454795  0.02447887127742393  0.7889196725840293  1.0000
  F   F24       1.0  0.7859963087051225  0.33442373985157303  0.2682317685680928  1.0000
  F   F25       1.0  0.6775875504490612  0.9763851363427702  0.27894557868012976  1.0000
  F   F26       1.0  0.3058539570689618  0.3346669441102677  0.28410562622102026  1.0000
  F   F27       1.0  0.024644423820895208  0.6980447408295234  0.289079698086482  1.0000
  F   F28       1.0  0.14350924892836764  0.6944670926431796  0.6991042753407087  1.0000
  F   F29       1.0  0.31111303836837584  0.4526969873965925  0.7043984856194925  1.0000
  F   F30       1.0  0.5559029245752353  0.8584200504687727  0.7071343698216593  1.0000
