data_image0
_chemical_formula_structural       Al6H69C85ClO28
_chemical_formula_sum              "Al6 H69 C85 Cl1 O28"
_cell_length_a       12.611951064636115
_cell_length_b       12.775561257075095
_cell_length_c       28.48972726119882
_cell_angle_alpha    90.05167255512424
_cell_angle_beta     89.23798681282591
_cell_angle_gamma    119.73174520290009

_space_group_name_H-M_alt    "P 1"
_space_group_IT_number       1

loop_
  _space_group_symop_operation_xyz
  'x, y, z'

loop_
  _atom_site_type_symbol
  _atom_site_label
  _atom_site_symmetry_multiplicity
  _atom_site_fract_x
  _atom_site_fract_y
  _atom_site_fract_z
  _atom_site_occupancy
  Al  Al1       1.0  0.18492603572710212  0.5917446861616112  0.4977817164250028  1.0000
  Al  Al2       1.0  0.9250263357372148  0.581758561974219  0.5000635842704995  1.0000
  Al  Al3       1.0  0.9256297626142355  0.3473206817179316  0.5002048910983136  1.0000
  Al  Al4       1.0  0.1474752183633541  0.06991885488309181  0.9977163996245795  1.0000
  Al  Al5       1.0  0.402776824677801  0.3190252313086859  0.9996817567264815  1.0000
  Al  Al6       1.0  0.41135019623687435  0.08845149011479951  0.9988905838319868  1.0000
  H   H1        1.0  0.8413960908760033  0.44584069789207337  0.20570438153015405  1.0000
  H   H2        1.0  0.35176893108686613  0.4821446695166643  0.2121293363596735  1.0000
  H   H3        1.0  0.24409873128425374  0.7242712612748576  0.20332487609330493  1.0000
  H   H4        1.0  0.7451729878314168  0.5436309761735316  0.2725526873582638  1.0000
  H   H5        1.0  0.2254722541988343  0.7021698752854845  0.2840673952029178  1.0000
  H   H6        1.0  0.28325047324814523  0.008095331943756898  0.30233943267847263  1.0000
  H   H7        1.0  0.34826623561522035  0.9138019757136603  0.29891237178214425  1.0000
  H   H8        1.0  0.37683284998352906  0.9485160153783948  0.21771728887858902  1.0000
  H   H9        1.0  0.31116384532779756  0.0424013845596818  0.221096481414925  1.0000
  H   H10       1.0  0.9609284728464971  0.7684896117092492  0.2837832414250485  1.0000
  H   H11       1.0  0.05965301310089905  0.9236655033319181  0.2917441237242997  1.0000
  H   H12       1.0  0.14498829375207833  0.15224504564381652  0.29977662847102243  1.0000
  H   H13       1.0  0.9892086122843579  0.7914558343513817  0.20199097708656674  1.0000
  H   H14       1.0  0.08481092231777866  0.6622363249753676  0.197680007746861  1.0000
  H   H15       1.0  0.7933796154311635  0.25637625329724756  0.2697786975226322  1.0000
  H   H16       1.0  0.07847952224580748  0.9482290456558362  0.2098253728190613  1.0000
  H   H17       1.0  0.7323756925826358  0.2175876557110215  0.7945757292413804  1.0000
  H   H18       1.0  0.7750537062221878  0.24173549627307264  0.7138255453440154  1.0000
  H   H19       1.0  0.4922802152185212  0.2632837156838121  0.6986776782777184  1.0000
  H   H20       1.0  0.5492528371982176  0.1623642322236876  0.7044744987701606  1.0000
  H   H21       1.0  0.5095727659319351  0.15228369457465618  0.7848897769799168  1.0000
  H   H22       1.0  0.46407996857865186  0.2621531780941879  0.7800610180649699  1.0000
  H   H23       1.0  0.1629855023307343  0.14380794353265708  0.2180483265775166  1.0000
  H   H24       1.0  0.7935728927288892  0.5448322082738528  0.7138868694270643  1.0000
  H   H25       1.0  0.635437377895407  0.48784740192002823  0.7084605470488654  1.0000
  H   H26       1.0  0.7743599361584826  0.5294274778713585  0.7959254340957926  1.0000
  H   H27       1.0  0.5596991776925577  0.11681432205151052  0.23065222522521375  1.0000
  H   H28       1.0  0.8751628010535129  0.3977284429334063  0.7209625733758928  1.0000
  H   H29       1.0  0.8413537238645574  0.371213016736533  0.8022587316421056  1.0000
  H   H30       1.0  0.6182655284709213  0.4836328407243329  0.7905497873463078  1.0000
  H   H31       1.0  0.282548410274984  0.5234044572517647  0.7918509562628915  1.0000
  H   H32       1.0  0.257446452292193  0.5290877297092395  0.7106782971544021  1.0000
  H   H33       1.0  0.24300704290107683  0.2318088669686275  0.6973313337402589  1.0000
  H   H34       1.0  0.3136277385173969  0.2655220971716544  0.2202162833065984  1.0000
  H   H35       1.0  0.3418729111322492  0.3894760176733527  0.6972899667944575  1.0000
  H   H36       1.0  0.3668010597703529  0.38291531288070496  0.7784575637691091  1.0000
  H   H37       1.0  0.2673018171072101  0.22534567545329764  0.7784123726597231  1.0000
  H   H38       1.0  0.9556408768322484  0.24228634575658248  0.7193062780876788  1.0000
  H   H39       1.0  0.46323405281724195  0.21389209477961657  0.2971843195528336  1.0000
  H   H40       1.0  0.016128717659434227  0.14556482551283523  0.7106338999902704  1.0000
  H   H41       1.0  0.9807016295811477  0.2378994514263439  0.800528505591487  1.0000
  H   H42       1.0  0.09918763015656408  0.4709121213981008  0.7196814536585878  1.0000
  H   H43       1.0  0.12417219304112594  0.46462577457764104  0.800912053407494  1.0000
  H   H44       1.0  0.039759483696407506  0.13990555356491544  0.7921065254517288  1.0000
  H   H45       1.0  0.21032925206621664  0.5147691444640472  0.2871346207042293  1.0000
  H   H46       1.0  0.9995374340682228  0.7740705738061846  0.8018112504529142  1.0000
  H   H47       1.0  0.9689627821253525  0.754088392357943  0.7203937581504649  1.0000
  H   H48       1.0  0.285673559977532  0.0072489788034672984  0.696112240982636  1.0000
  H   H49       1.0  0.1311453252260008  0.9703369623341939  0.7015769771615581  1.0000
  H   H50       1.0  0.1481921266955126  0.9913183106352148  0.7834808133422586  1.0000
  H   H51       1.0  0.5117718798839661  0.4043104859835226  0.23349311327608294  1.0000
  H   H52       1.0  0.30563646506946174  0.0421607965906006  0.7769695690780553  1.0000
  H   H53       1.0  0.2326285285926987  0.6951231568871777  0.7108003298127629  1.0000
  H   H54       1.0  0.34430429936558227  0.8465967435720073  0.6997305547057735  1.0000
  H   H55       1.0  0.26290528603696134  0.7271507114750406  0.7910915204325948  1.0000
  H   H56       1.0  0.33292984139239934  0.4876398069572119  0.2941393283647075  1.0000
  H   H57       1.0  0.007973085218687065  0.6391024140099759  0.7207896231878764  1.0000
  H   H58       1.0  0.04841617497029916  0.6665705401612954  0.8013109260435769  1.0000
  H   H59       1.0  0.9864542182543518  0.18051065064815222  0.20619645235564124  1.0000
  H   H60       1.0  0.966728532945126  0.1872956402517049  0.2880437303361276  1.0000
  H   H61       1.0  0.2951817429488769  0.27611544486095596  0.3018988164583192  1.0000
  H   H62       1.0  0.9498652147729415  0.5921323041113595  0.2706154284372886  1.0000
  H   H63       1.0  0.03227333019821545  0.5148697741396191  0.2621942163899221  1.0000
  H   H64       1.0  0.021784564559901257  0.5669912873306869  0.3191878015366286  1.0000
  H   H65       1.0  0.2266147409350978  0.505825286347161  0.20527879153490866  1.0000
  H   H66       1.0  0.9918534314516378  0.33547416717577505  0.2832297972718862  1.0000
  H   H67       1.0  0.01210690790303911  0.32900931042920684  0.2014322267344042  1.0000
  H   H68       1.0  0.3853805279059444  0.7176910062135208  0.5223873307165334  1.0000
  H   H69       1.0  0.9457328518989526  0.9640259302859845  0.0258784196145783  1.0000
  C   C1        1.0  0.09855471214356021  0.7179798761022126  0.4323397060068289  1.0000
  C   C2        1.0  0.7052031848751809  0.35730138184179344  0.3473953171442332  1.0000
  C   C3        1.0  0.029275474082929524  0.2770786757481787  0.2733355980273942  1.0000
  C   C4        1.0  0.7836958980205395  0.39630522616976555  0.4349405495169947  1.0000
  C   C5        1.0  0.20649355621613813  0.24198836614522884  0.2848167332771681  1.0000
  C   C6        1.0  0.218932911884842  0.2362617842997849  0.23088061680380895  1.0000
  C   C7        1.0  0.2025122841936451  0.3006085504673379  0.11370202119160673  1.0000
  C   C8        1.0  0.15517208290876286  0.32645440311323176  0.2969276584140346  1.0000
  C   C9        1.0  0.04241761258192162  0.2725768049766231  0.2194724439005356  1.0000
  C   C10       1.0  0.17760446933338872  0.3178217705089352  0.2058930023854302  1.0000
  C   C11       1.0  0.2564801124486351  0.44887249138144353  0.22315538854125805  1.0000
  C   C12       1.0  0.7319166450955521  0.37012461907884386  0.3888520767422037  1.0000
  C   C13       1.0  0.24438546473406575  0.45378610788108636  0.27702135126040167  1.0000
  C   C14       1.0  0.19092199148262523  0.3103166317179671  0.15561081218115896  1.0000
  C   C15       1.0  0.1403546224472834  0.3339853040787871  0.3470992167176875  1.0000
  C   C16       1.0  0.10049781095202805  0.3772685263665281  0.4342458174740998  1.0000
  C   C17       1.0  0.1253187220740983  0.3463351027923025  0.38848716799643074  1.0000
  C   C18       1.0  0.14712740308331732  0.7073161687746251  0.27017721851989057  1.0000
  C   C19       1.0  0.2776992264080819  0.9298794392884348  0.2839657718257983  1.0000
  C   C20       1.0  0.29637780259930935  0.9526429444983079  0.23041845587842866  1.0000
  C   C21       1.0  0.2159612312275884  0.8992744113371955  0.11198447436507311  1.0000
  C   C22       1.0  0.15080645071943638  0.818861608627735  0.29460900562279596  1.0000
  C   C23       1.0  0.574277028259779  0.37111201050630177  0.24185322198531622  1.0000
  C   C24       1.0  0.16515520277212653  0.7306082368809823  0.2164493094687856  1.0000
  C   C25       1.0  0.18336153736024846  0.8561860813751352  0.20399823630520336  1.0000
  C   C26       1.0  0.06863217095731505  0.8613125259007645  0.22062439223304864  1.0000
  C   C27       1.0  0.05184226338985812  0.8433196820058767  0.2743775243685249  1.0000
  C   C28       1.0  0.09844343645598744  0.7195802989331241  0.5654919533580627  1.0000
  C   C29       1.0  0.20164298014574908  0.877948291575869  0.15385626696436114  1.0000
  C   C30       1.0  0.1338113559105808  0.7965444016307474  0.34475626168307383  1.0000
  C   C31       1.0  0.11932357128782198  0.7713359522388785  0.38631841184984245  1.0000
  C   C32       1.0  0.7825631998068943  0.32397505819304223  0.7292157260323364  1.0000
  C   C33       1.0  0.5589875468129932  0.24777919949871577  0.717369908776675  1.0000
  C   C34       1.0  0.6270592888875015  0.31646167719251395  0.20424769635068435  1.0000
  C   C35       1.0  0.5372514143392307  0.24253675298060534  0.7711096817899659  1.0000
  C   C36       1.0  0.6070517340002226  0.30830124758674765  0.8885044745613799  1.0000
  C   C37       1.0  0.6891851671783511  0.3511438222749844  0.7050227043338141  1.0000
  C   C38       1.0  0.7588719446551552  0.3094291042488919  0.7829269603277995  1.0000
  C   C39       1.0  0.6549655925140243  0.3355422004319664  0.7963902347569629  1.0000
  C   C40       1.0  0.7809177637902777  0.39190411000453196  0.5654582499394323  1.0000
  C   C41       1.0  0.6895108209463885  0.4634072089334751  0.7789274335443253  1.0000
  C   C42       1.0  0.7037963614667433  0.47059948761307874  0.7247669689340556  1.0000
  C   C43       1.0  0.6314841085421109  0.32285709608967045  0.846712097412791  1.0000
  C   C44       1.0  0.7105894377976509  0.3602353292307754  0.6545685582755214  1.0000
  C   C45       1.0  0.5470516795937427  0.26548860558294507  0.2764222855642373  1.0000
  C   C46       1.0  0.7319599106814817  0.36920447619475977  0.6125233700813908  1.0000
  C   C47       1.0  0.17546392686733717  0.45551480480356316  0.7275446659968667  1.0000
  C   C48       1.0  0.25967142788863384  0.31602712582614606  0.7141292581305906  1.0000
  C   C49       1.0  0.27597075616572647  0.3118226325772397  0.7676934264630618  1.0000
  C   C50       1.0  0.21068755863047534  0.3129377398805318  0.8863714043513795  1.0000
  C   C51       1.0  0.14997069079630881  0.3351745868651789  0.7045325204809386  1.0000
  C   C52       1.0  0.09978393937614531  0.38546633622077303  0.5669520881184269  1.0000
  C   C53       1.0  0.19206072259650137  0.4516542952834682  0.7810629993543331  1.0000
  C   C54       1.0  0.17813959436193733  0.32847272658056437  0.7950438237818462  1.0000
  C   C55       1.0  0.049932931562679514  0.2267004146410301  0.7808709256427167  1.0000
  C   C56       1.0  0.6781929818071646  0.3439127230737569  0.2988946510537218  1.0000
  C   C57       1.0  0.033760462518038964  0.23018646334530493  0.7273148275198198  1.0000
  C   C58       1.0  0.19573684875318517  0.322706541448781  0.8449255455883319  1.0000
  C   C59       1.0  0.13421858193547825  0.34269273508969184  0.6545823655749318  1.0000
  C   C60       1.0  0.12034783446348743  0.35478642436847707  0.6132269002167378  1.0000
  C   C61       1.0  0.039662028541968625  0.7328884565098333  0.7310129259778224  1.0000
  C   C62       1.0  0.19946476614009612  0.9488397875978125  0.714952019868207  1.0000
  C   C63       1.0  0.21459569417114482  0.9682030585828372  0.7685107485422692  1.0000
  C   C64       1.0  0.7041275939585248  0.4487259168414752  0.2628194356521902  1.0000
  C   C65       1.0  0.2241565074088142  0.9006115088146485  0.8850729622131156  1.0000
  C   C66       1.0  0.15902099823824054  0.816005518620159  0.7033580016018136  1.0000
  C   C67       1.0  0.6010472696235637  0.2116691592875597  0.2403059436693411  1.0000
  C   C68       1.0  0.06243648427486896  0.7498418403286492  0.7843494317042216  1.0000
  C   C69       1.0  0.19485980769792374  0.8522274180637195  0.793762562477305  1.0000
  C   C70       1.0  0.2805685341378421  0.809644822515814  0.7726069617053997  1.0000
  C   C71       1.0  0.2596849466868606  0.7887397437955102  0.7194274467759814  1.0000
  C   C72       1.0  0.21243155720972604  0.8753874052938571  0.843674529948679  1.0000
  C   C73       1.0  0.1396096275363093  0.7934766134859501  0.6534855794087379  1.0000
  C   C74       1.0  0.12260411524701458  0.7692430614270549  0.612055570029405  1.0000
  C   C75       1.0  0.22362369402383556  0.27427809420164806  0.0665502835768947  1.0000
  C   C76       1.0  0.7579815246371595  0.39473600587886903  0.22670141909438973  1.0000
  C   C77       1.0  0.5431312846489718  0.2746723685354127  0.0658778975360121  1.0000
  C   C78       1.0  0.7308071682364953  0.2892137145625071  0.2612471590937488  1.0000
  C   C79       1.0  0.237283178183219  0.946651669786604  0.0649139699589298  1.0000
  C   C80       1.0  0.23268740636449087  0.28411976866176764  0.9327141469644857  1.0000
  C   C81       1.0  0.5545906341840166  0.27941099673238057  0.9349994112161328  1.0000
  C   C82       1.0  0.24234527109197748  0.9517380978619483  0.931330110154484  1.0000
  C   C83       1.0  0.5866032940097341  0.2959485473147438  0.11323301145810662  1.0000
  C   C84       1.0  0.031278630736849874  0.5888077656153712  0.2815580602563372  1.0000
  C   C85       1.0  0.6047896040411089  0.30501247724568964  0.15540453627255604  1.0000
  Cl  Cl1       1.0  0.4389773291324986  0.9145027517994323  0.7844889678095586  1.0000
  O   O1        1.0  0.17822640766617326  0.4775455041641407  0.4508121644763535  1.0000
  O   O2        1.0  0.5273528026040282  0.17820224630747816  0.0460632742100913  1.0000
  O   O3        1.0  0.3403075822029322  0.9714625325774547  0.0454926710164543  1.0000
  O   O4        1.0  0.1733109696882736  0.6860466347483865  0.4456280737324222  1.0000
  O   O5        1.0  0.1627529302238743  0.976286619928544  0.9463347853771966  1.0000
  O   O6        1.0  0.15551070181973614  0.18279570068808235  0.9494712953059193  1.0000
  O   O7        1.0  0.3326514549549842  0.3626745075464585  0.9522364380818402  1.0000
  O   O8        1.0  0.5285389730272598  0.354163941313594  0.9545661858377771  1.0000
  O   O9        1.0  0.5318315803150921  0.17793097132012284  0.9525030896021178  1.0000
  O   O10       1.0  0.34071459799938003  0.9724754158631157  0.9523841251156357  1.0000
  O   O11       1.0  0.3226317636081291  0.16009199076364666  0.9990327127078943  1.0000
  O   O12       1.0  0.8018894922132276  0.49046184904785417  0.5458044764068717  1.0000
  O   O13       1.0  0.002594630300762894  0.702491324140439  0.455196581413837  1.0000
  O   O14       1.0  0.8093770277850538  0.4984334461356496  0.45246893949666145  1.0000
  O   O15       1.0  0.8057197111691038  0.3187144274639948  0.4541050865172807  1.0000
  O   O16       1.0  0.9970278638117662  0.3012240870167986  0.45340001548513  1.0000
  O   O17       1.0  0.17593459592998792  0.4888002715888506  0.5514159572518338  1.0000
  O   O18       1.0  0.17847555770558193  0.7011406903978495  0.5463195666284336  1.0000
  O   O19       1.0  0.9940799884191448  0.6931319234681935  0.5482803616213375  1.0000
  O   O20       1.0  0.8059218057012032  0.3146098138537283  0.547493574432842  1.0000
  O   O21       1.0  0.002432475754275735  0.3063801970264635  0.5461604382801255  1.0000
  O   O22       1.0  0.009791965983282578  0.5061115963406805  0.4996776328520768  1.0000
  O   O23       1.0  0.15671915598797878  0.9651490470296266  0.047309929473392714  1.0000
  O   O24       1.0  0.1491892869125309  0.1717400693351934  0.050636144183194204  1.0000
  O   O25       1.0  0.32033673370747107  0.35628173108234057  0.045288951289109015  1.0000
  O   O26       1.0  0.5177793592670453  0.35127387507691304  0.047861015395966405  1.0000
  O   O27       1.0  0.34465598636980144  0.6694964756338707  0.4953106745251716  1.0000
  O   O28       1.0  0.987925711882518  0.9877356593630041  0.9958858864396803  1.0000
