data_image0
_chemical_formula_structural       Cd2H18C22S2N8Cl2
_chemical_formula_sum              "Cd2 H18 C22 S2 N8 Cl2"
_cell_length_a       8.976929367241036
_cell_length_b       9.220402716543038
_cell_length_c       9.080367240427679
_cell_angle_alpha    102.12928021694927
_cell_angle_beta     107.1379550678422
_cell_angle_gamma    111.07281190070938

_space_group_name_H-M_alt    "P 1"
_space_group_IT_number       1

loop_
  _space_group_symop_operation_xyz
  'x, y, z'

loop_
  _atom_site_type_symbol
  _atom_site_label
  _atom_site_symmetry_multiplicity
  _atom_site_fract_x
  _atom_site_fract_y
  _atom_site_fract_z
  _atom_site_occupancy
  Cd  Cd1       1.0  0.5987201510137368  0.7170009587680469  0.9816356475715081  1.0000
  Cd  Cd2       1.0  0.40128081414069783  0.2829921105730407  0.01836988613414551  1.0000
  H   H1        1.0  0.14412716934472064  0.7640300124564092  0.11125974075986989  1.0000
  H   H2        1.0  0.8558731826314842  0.2359717629350726  0.8887398097881699  1.0000
  H   H3        1.0  0.5189213044086288  0.5028912084436785  0.6326355192121724  1.0000
  H   H4        1.0  0.48108138866295036  0.49711309078995913  0.36736196398267396  1.0000
  H   H5        1.0  0.6273987176768118  0.3434861967544053  0.46842773185546355  1.0000
  H   H6        1.0  0.37260398830945  0.6565156214850417  0.5315703134912084  1.0000
  H   H7        1.0  0.9370712493621268  0.38533800495441295  0.6094200194959356  1.0000
  H   H8        1.0  0.06292735647855356  0.6146600168098147  0.3905815031808686  1.0000
  H   H9        1.0  0.12105781951055412  0.5889489017276831  0.8918926950033992  1.0000
  H   H10       1.0  0.8789413864213954  0.41104789857212143  0.10810763446733049  1.0000
  H   H11       1.0  0.27505124352211413  0.9513531436049121  0.3602007027249244  1.0000
  H   H12       1.0  0.7249502622816169  0.04865111756337371  0.6397997290338965  1.0000
  H   H13       1.0  0.28837718601377565  0.19367882918933085  0.5577989305724316  1.0000
  H   H14       1.0  0.7116237582704272  0.8063242140526015  0.4421977666360632  1.0000
  H   H15       1.0  0.0461137408129275  0.2739873012021334  0.4761621378823264  1.0000
  H   H16       1.0  0.9538895420870903  0.7260157599257157  0.523836348069736  1.0000
  H   H17       1.0  0.7861235216997996  0.0911541522422112  0.20916909439437592  1.0000
  H   H18       1.0  0.21387623531655472  0.9088488529343764  0.7908305513781002  1.0000
  C   C1        1.0  0.652944180588527  0.5205990275044671  0.6833234333356089  1.0000
  C   C2        1.0  0.34705735865553333  0.4794027859523596  0.3166731686484567  1.0000
  C   C3        1.0  0.7122819671084814  0.4308334848389635  0.5938085378299363  1.0000
  C   C4        1.0  0.2877166309489354  0.5691670262401302  0.4061913247134044  1.0000
  C   C5        1.0  0.8835141390106216  0.45455499631506774  0.6716458170587741  1.0000
  C   C6        1.0  0.11648447196147067  0.5454430337698356  0.3283546076363848  1.0000
  C   C7        1.0  0.9868265654939565  0.5675411621892581  0.8303647449883798  1.0000
  C   C8        1.0  0.013173204437073626  0.4324593619931392  0.16963546293591492  1.0000
  C   C9        1.0  0.9168716423956268  0.6560743308542243  0.9120079744407759  1.0000
  C   C10       1.0  0.083128727626665  0.3439249718637499  0.0879910402774442  1.0000
  C   C11       1.0  0.02240129628696514  0.8944423130597059  0.17886455345342972  1.0000
  C   C12       1.0  0.9775978889470383  0.10555945754915542  0.8211335537320109  1.0000
  C   C13       1.0  0.16960631109694185  0.9870906022002116  0.3305875502945809  1.0000
  C   C14       1.0  0.8303957818833749  0.012914918497841692  0.6694111261063398  1.0000
  C   C15       1.0  0.17753955177403916  0.1222577816803039  0.4389526892527158  1.0000
  C   C16       1.0  0.8224619642925148  0.8777464961293475  0.5610455465428217  1.0000
  C   C17       1.0  0.04072620205000991  0.1655896324002981  0.3949400794044706  1.0000
  C   C18       1.0  0.9592741421429309  0.8344146323060573  0.6050578110101058  1.0000
  C   C19       1.0  0.8981227219461019  0.06534829894628301  0.24712892333069186  1.0000
  C   C20       1.0  0.10187645815648957  0.9346534633419028  0.7528702818363867  1.0000
  C   C21       1.0  0.5292636872735343  0.00016240565444289646  0.8259001217574635  1.0000
  C   C22       1.0  0.47072682903208835  0.9998156930745382  0.1741012845039265  1.0000
  S   S1        1.0  0.5468812253246326  0.17718900510457303  0.806940719029967  1.0000
  S   S2        1.0  0.4531127061085556  0.8228014796604768  0.1930665984866877  1.0000
  N   N1        1.0  0.7507117021414801  0.6300223070774109  0.8393832188730954  1.0000
  N   N2        1.0  0.24928982170834496  0.3699794814173671  0.1606166770558985  1.0000
  N   N3        1.0  0.885585632705201  0.929728337408527  0.14120228611888314  1.0000
  N   N4        1.0  0.1144141423572407  0.070272195094546  0.8587968238237664  1.0000
  N   N5        1.0  0.026501764167797152  0.7672433621271396  0.07039865162005308  1.0000
  N   N6        1.0  0.9734985878084074  0.2327584132643423  0.9296008989279867  1.0000
  N   N7        1.0  0.5166366295535101  0.8701975794696752  0.8343038864485948  1.0000
  N   N8        1.0  0.48335903244867495  0.1298016375523758  0.16569813867236854  1.0000
  Cl  Cl1       1.0  0.3139135909176147  0.44402034117341327  0.8125094229590104  1.0000
  Cl  Cl2       1.0  0.6860879819390674  0.5559740209801661  0.18748996346216976  1.0000
