data_image0
_chemical_formula_structural       Zr6H34C90O32
_chemical_formula_sum              "Zr6 H34 C90 O32"
_cell_length_a       17.457312795791935
_cell_length_b       17.467774580428596
_cell_length_c       17.461773432108636
_cell_angle_alpha    93.5818084608695
_cell_angle_beta     93.58728806172437
_cell_angle_gamma    93.52561088825556

_space_group_name_H-M_alt    "P 1"
_space_group_IT_number       1

loop_
  _space_group_symop_operation_xyz
  'x, y, z'

loop_
  _atom_site_type_symbol
  _atom_site_label
  _atom_site_symmetry_multiplicity
  _atom_site_fract_x
  _atom_site_fract_y
  _atom_site_fract_z
  _atom_site_occupancy
  Zr  Zr1       1.0  0.9824608276267097  0.8554752024510465  0.8040845081231398  1.0000
  Zr  Zr2       1.0  0.8679488703142366  0.010427967952424  0.7633864091862039  1.0000
  Zr  Zr3       1.0  0.019623308211286907  0.9333358621022824  0.9960920353910371  1.0000
  Zr  Zr4       1.0  0.8275168228469879  0.8964385435157922  0.918541423909524  1.0000
  Zr  Zr5       1.0  0.06014734197658098  0.04734725036588121  0.8408138949834199  1.0000
  Zr  Zr6       1.0  0.9053813514432107  0.0883635723013185  0.9552619739555867  1.0000
  H   H1        1.0  0.2886643262814346  0.610801875508308  0.9203894647459239  1.0000
  H   H2        1.0  0.2593565410089766  0.36345112005959385  0.9141728095027947  1.0000
  H   H3        1.0  0.06723436367848018  0.5002212003235441  0.9566434181742526  1.0000
  H   H4        1.0  0.8204747775167149  0.4395982527903897  0.8132201145278801  1.0000
  H   H5        1.0  0.6338652989103507  0.5823310063379881  0.8603664893812069  1.0000
  H   H6        1.0  0.5959744461072204  0.3353370903571644  0.847962795069087  1.0000
  H   H7        1.0  0.5828495610130132  0.0130290419115795  0.22503024942540867  1.0000
  H   H8        1.0  0.3353487408005122  0.0068592682186405995  0.19482655919832584  1.0000
  H   H9        1.0  0.47272937152177263  0.049173715955220104  0.0032590026965167  1.0000
  H   H10       1.0  0.4110944296675072  0.904906532966237  0.7558640558515466  1.0000
  H   H11       1.0  0.5540249862813127  0.9528665776639115  0.5698222382652889  1.0000
  H   H12       1.0  0.30687923692365615  0.9401890864229614  0.5313641340556361  1.0000
  H   H13       1.0  0.980241769130529  0.31709455984489665  0.5178301963295979  1.0000
  H   H14       1.0  0.9697019771604258  0.28496725083048363  0.27038119284610224  1.0000
  H   H15       1.0  0.019730273359201096  0.09590289816556209  0.4085837241148128  1.0000
  H   H16       1.0  0.9024486079625332  0.6226994917770342  0.24193315574132168  1.0000
  H   H17       1.0  0.9188479147754761  0.6596566452113991  0.4890926235053359  1.0000
  H   H18       1.0  0.8756468262585101  0.8483711633144323  0.3479772185874169  1.0000
  H   H19       1.0  0.822853175326635  0.8511136715197765  0.7593058923540498  1.0000
  H   H20       1.0  0.12478106039709758  0.9079706169864181  0.8820070614801383  1.0000
  H   H21       1.0  0.8803460591327832  0.974643960925789  0.06066000815207671  1.0000
  H   H22       1.0  0.9462345937479524  0.1526398428018467  0.8157442421336827  1.0000
  H   H23       1.0  0.025919529059230204  0.407698168855525  0.2891907033260211  1.0000
  H   H24       1.0  0.8843517374861135  0.39856175577543956  0.48247418608386283  1.0000
  H   H25       1.0  0.8579240158799165  0.5345259091493803  0.47080735329267054  1.0000
  H   H26       1.0  0.9993240095318681  0.5434399129751524  0.27740575983398946  1.0000
  H   H27       1.0  0.3406889145921567  0.8874134859181524  0.4159665420990423  1.0000
  H   H28       1.0  0.5393103712158123  0.0424957126773293  0.4802458491306823  1.0000
  H   H29       1.0  0.5509914392650542  0.0680320256502398  0.3442254104934079  1.0000
  H   H30       1.0  0.3522633894348957  0.9132348544588069  0.28010373238460323  1.0000
  H   H31       1.0  0.40812018229220826  0.5792075005218038  0.9753874137462193  1.0000
  H   H32       1.0  0.34453539023787977  0.38031781269960874  0.82059529460647  1.0000
  H   H33       1.0  0.4805127155233321  0.3689591641539209  0.7949473192799987  1.0000
  H   H34       1.0  0.5442538326885469  0.567711441191399  0.949990402696301  1.0000
  C   C1        1.0  0.17519224019014956  0.5636460405888145  0.9407122601328484  1.0000
  C   C2        1.0  0.2531796873221097  0.5582123212419106  0.9262038739495042  1.0000
  C   C3        1.0  0.2844445818112717  0.4865031245025833  0.916130990572768  1.0000
  C   C4        1.0  0.23648545177001518  0.4199497467224448  0.920940560103901  1.0000
  C   C5        1.0  0.1584751027103835  0.4243591445084719  0.9359247848341499  1.0000
  C   C6        1.0  0.1277387508078931  0.4964456835312134  0.9460831539463685  1.0000
  C   C7        1.0  0.7106597699797915  0.37922966523214546  0.8282839417824805  1.0000
  C   C8        1.0  0.7603659506813187  0.4451510772274645  0.8244941147304703  1.0000
  C   C9        1.0  0.7322618629412574  0.5182526196895552  0.8366757943357543  1.0000
  C   C10       1.0  0.6545900950116987  0.5250101891771665  0.8520807788355642  1.0000
  C   C11       1.0  0.604383193724999  0.4597521923752127  0.8551875467459669  1.0000
  C   C12       1.0  0.6331843560358407  0.38703811820870726  0.8434197285230811  1.0000
  C   C13       1.0  0.535918327250691  0.03323528945539781  0.11140603688402004  1.0000
  C   C14       1.0  0.5303040352547015  0.018816231111635794  0.189363828072004  1.0000
  C   C15       1.0  0.4584512441825694  0.0088042362495315  0.22035519091360106  1.0000
  C   C16       1.0  0.39195737053785246  0.013613911577792199  0.17218476557930276  1.0000
  C   C17       1.0  0.39658286862717057  0.02852098107958771  0.09419523765120631  1.0000
  C   C18       1.0  0.46879377205134176  0.03860303452437111  0.06371806670022553  1.0000
  C   C19       1.0  0.35071443229426075  0.9202920874368276  0.6460452987005072  1.0000
  C   C20       1.0  0.41665345151715627  0.9163809319083428  0.6958328827020993  1.0000
  C   C21       1.0  0.48983174041266137  0.9287877729441976  0.6679579103574229  1.0000
  C   C22       1.0  0.49664991731277286  0.9445033586333338  0.5903912225248009  1.0000
  C   C23       1.0  0.4313876430125987  0.9476051955264426  0.5400614447183117  1.0000
  C   C24       1.0  0.3585983326953651  0.9355840460034984  0.5686495713271853  1.0000
  C   C25       1.0  0.00024334580476190315  0.2032850256592198  0.47125190889365615  1.0000
  C   C26       1.0  0.984089387587879  0.2807785767098352  0.4653398484632235  1.0000
  C   C27       1.0  0.9739306014498221  0.31155199376047454  0.3933881901541128  1.0000
  C   C28       1.0  0.9798333917348501  0.2634289989616931  0.32711328935341305  1.0000
  C   C29       1.0  0.9968632721717512  0.18603877908322633  0.3320655281852397  1.0000
  C   C30       1.0  0.0073439044820347  0.15587605308608937  0.4043562100782765  1.0000
  C   C31       1.0  0.8884189282923953  0.7384872755045748  0.2866918760302114  1.0000
  C   C32       1.0  0.9010991441461724  0.660395256606847  0.2938801412110906  1.0000
  C   C33       1.0  0.9114748100056004  0.6308205067888012  0.3663524196510935  1.0000
  C   C34       1.0  0.9086527606174143  0.6805219400447058  0.4320651295406536  1.0000
  C   C35       1.0  0.8952223461617451  0.7587342481520382  0.42592889058725814  1.0000
  C   C36       1.0  0.88495817745477  0.7877745688800033  0.35302249105988187  1.0000
  C   C37       1.0  0.08068788391152282  0.7698365480825587  0.9317018006290143  1.0000
  C   C38       1.0  0.9040471427408647  0.8748012560742494  0.6352321772462164  1.0000
  C   C39       1.0  0.8474210759499385  0.7273911787762588  0.8410731697660127  1.0000
  C   C40       1.0  0.14197765537578994  0.9221955941180228  0.7357060576476117  1.0000
  C   C41       1.0  0.8001237803301037  0.1703642976328226  0.8302957446477566  1.0000
  C   C42       1.0  0.9919118535490483  0.07304552675734752  0.12181954477152601  1.0000
  C   C43       1.0  0.6989841358446397  0.9331802642761673  0.7834981766009792  1.0000
  C   C44       1.0  0.9948845935195793  0.10854681924133301  0.677391273865297  1.0000
  C   C45       1.0  0.1861557149059792  0.019835211854335504  0.980567694582753  1.0000
  C   C46       1.0  0.8942651699321471  0.8286963098810888  0.07828284740422482  1.0000
  C   C47       1.0  0.7420114184598318  0.0240647795054869  0.016705454113463206  1.0000
  C   C48       1.0  0.0451798691721024  0.21397585226914373  0.9273143449089504  1.0000
  C   C49       1.0  0.882338741636154  0.7674552255985247  0.21255796733338173  1.0000
  C   C50       1.0  0.8817395114098474  0.7922910089604471  0.14888411825229753  1.0000
  C   C51       1.0  0.896599159043518  0.8417442876277762  0.5572984528396107  1.0000
  C   C52       1.0  0.8945352781427757  0.8063983603909151  0.4946986518833684  1.0000
  C   C53       1.0  0.0010263247250109021  0.10669556831177829  0.19939679688037873  1.0000
  C   C54       1.0  0.0008266082980270981  0.14031119684656088  0.262635554153654  1.0000
  C   C55       1.0  0.0076731667175593985  0.1448690609655259  0.6068612235415358  1.0000
  C   C56       1.0  0.006611638841789604  0.17239602512019303  0.5444439960739305  1.0000
  C   C57       1.0  0.9879940394667913  0.43492289481485363  0.3284696272458661  1.0000
  C   C58       1.0  0.9572836714219475  0.39294598690358384  0.38679410509476503  1.0000
  C   C59       1.0  0.9107312671244827  0.4304478870134432  0.43807901182328385  1.0000
  C   C60       1.0  0.8957122693968529  0.5071740616542542  0.431442576166866  1.0000
  C   C61       1.0  0.9266288966274626  0.5491242652974366  0.37321975962198206  1.0000
  C   C62       1.0  0.972941753197915  0.5115383196036876  0.3217808501526279  1.0000
  C   C63       1.0  0.27630644005973437  0.9125944452296296  0.6742124165548591  1.0000
  C   C64       1.0  0.21250560208182628  0.910322698259769  0.6988640426727033  1.0000
  C   C65       1.0  0.5583503288241686  0.9265100563973617  0.7156960556813703  1.0000
  C   C66       1.0  0.6208700039764494  0.9271178886936013  0.7509909801917446  1.0000
  C   C67       1.0  0.3269426663466959  0.031137264244357296  0.048336881610175915  1.0000
  C   C68       1.0  0.26366628054481106  0.029901672293988196  0.0144686236080815  1.0000
  C   C69       1.0  0.671453355507495  0.037728107067089005  0.05266907526865341  1.0000
  C   C70       1.0  0.6090486912286224  0.038082992645300406  0.08015729635108222  1.0000
  C   C71       1.0  0.3862304530686557  0.9281496035829662  0.4007059459809313  1.0000
  C   C72       1.0  0.43887726965309787  0.9632107983599453  0.4585055363116981  1.0000
  C   C73       1.0  0.4986923320290657  0.013056876400455102  0.436458732311202  1.0000
  C   C74       1.0  0.5053489912531006  0.0274781298100351  0.35960294867366843  1.0000
  C   C75       1.0  0.4523902426145199  0.9927774428143793  0.3019403720794358  1.0000
  C   C76       1.0  0.3928380850317054  0.9426460850635152  0.323931458681173  1.0000
  C   C77       1.0  0.7389905034353745  0.30487922678531015  0.8206910939096022  1.0000
  C   C78       1.0  0.7635049425941459  0.24102623178891497  0.8184660323966001  1.0000
  C   C79       1.0  0.8149576355094154  0.6493204646723997  0.8350084604208164  1.0000
  C   C80       1.0  0.7798627848807412  0.5867675157781564  0.8344101856864585  1.0000
  C   C81       1.0  0.07917781963745801  0.2913837926341358  0.9373299229001121  1.0000
  C   C82       1.0  0.11284356894437046  0.3546792413464103  0.9385915049152519  1.0000
  C   C83       1.0  0.1438468557971717  0.6367106313957437  0.9456200782970684  1.0000
  C   C84       1.0  0.11647177352372749  0.6991704840483308  0.9453384353385774  1.0000
  C   C85       1.0  0.42363173816980987  0.5335928874416496  0.9348286451461761  1.0000
  C   C86       1.0  0.36607916703727733  0.48056512118203903  0.9000947646288682  1.0000
  C   C87       1.0  0.38825181301392314  0.4209921980381708  0.8500221335104003  1.0000
  C   C88       1.0  0.4650820874016972  0.41451061595294897  0.8356006143171586  1.0000
  C   C89       1.0  0.5227722836452314  0.46722476752010783  0.8706855788416519  1.0000
  C   C90       1.0  0.5005595351160181  0.5270464398970917  0.9204791466301289  1.0000
  O   O1        1.0  0.07876072952114299  0.8206559112214435  0.986911101435908  1.0000
  O   O2        1.0  0.870415745232968  0.93570187227926  0.6520441361267332  1.0000
  O   O3        1.0  0.9081245279121503  0.7441273493912703  0.8071333403086671  1.0000
  O   O4        1.0  0.09249340609523671  0.866198186007736  0.739199789734535  1.0000
  O   O5        1.0  0.13775309166678798  0.991162182627818  0.7639078430276457  1.0000
  O   O6        1.0  0.8093897058752474  0.7741333789375133  0.8810463899476206  1.0000
  O   O7        1.0  0.9446633536992193  0.8371674413222722  0.6817995773772128  1.0000
  O   O8        1.0  0.054101916907257006  0.7740534282876653  0.862201155926485  1.0000
  O   O9        1.0  0.9765634106032619  0.9707082641978886  0.784080437298414  1.0000
  O   O10       1.0  0.9428896905442486  0.876382801990765  0.9126893842628763  1.0000
  O   O11       1.0  0.857235482648825  0.8854129782291482  0.7934241896994154  1.0000
  O   O12       1.0  0.07364948930277389  0.9268209477532066  0.8808821415040102  1.0000
  O   O13       1.0  0.8032508515982143  0.12079147575305882  0.7742559329438665  1.0000
  O   O14       1.0  0.02375392586245789  0.0109665639605083  0.10527069930721922  1.0000
  O   O15       1.0  0.7158665393802437  0.8992334280111439  0.8441621819454215  1.0000
  O   O16       1.0  0.0503519503042398  0.10654826602333861  0.7278966969309624  1.0000
  O   O17       1.0  0.1694658570285341  0.051406330405036685  0.9183733656666818  1.0000
  O   O18       1.0  0.8383491877924099  0.8319314819706493  0.028524313059882907  1.0000
  O   O19       1.0  0.7928232481968819  0.07920972639416145  0.014701650452074905  1.0000
  O   O20       1.0  0.9830701399545275  0.19746340571003168  0.9590785850360749  1.0000
  O   O21       1.0  0.7461655451835512  0.9545913764216538  0.9900556143348498  1.0000
  O   O22       1.0  0.0817068665427811  0.1682156863050821  0.8847376387541532  1.0000
  O   O23       1.0  0.7457064993357249  0.9731730569113072  0.7455056341031467  1.0000
  O   O24       1.0  0.9633070609508324  0.856714686127475  0.07417374357581252  1.0000
  O   O25       1.0  0.1404771373875988  0.9774105245212825  0.017260664753855823  1.0000
  O   O26       1.0  0.9255440739870195  0.081523903394114  0.6817592928062766  1.0000
  O   O27       1.0  0.82849087214705  0.16616282118471298  0.8992220738091634  1.0000
  O   O28       1.0  0.9498184392340293  0.10984990498224079  0.07586604959853825  1.0000
  O   O29       1.0  0.007227533099225497  0.0350737642183248  0.9427762293858423  1.0000
  O   O30       1.0  0.8482695934946135  0.004869378865024  0.8787785535377284  1.0000
  O   O31       1.0  0.8991103139611736  0.9733907308116304  0.009520058383842032  1.0000
  O   O32       1.0  0.9450732013338764  0.10154894044862321  0.8345752214230873  1.0000
