data_image0
_chemical_formula_structural       Cd2H40C56N8Cl12O8
_chemical_formula_sum              "Cd2 H40 C56 N8 Cl12 O8"
_cell_length_a       9.327306134491218
_cell_length_b       13.981240206544998
_cell_length_c       13.981178813957644
_cell_angle_alpha    77.1019057951033
_cell_angle_beta     70.55183406323866
_cell_angle_gamma    70.55149420323268

_space_group_name_H-M_alt    "P 1"
_space_group_IT_number       1

loop_
  _space_group_symop_operation_xyz
  'x, y, z'

loop_
  _atom_site_type_symbol
  _atom_site_label
  _atom_site_symmetry_multiplicity
  _atom_site_fract_x
  _atom_site_fract_y
  _atom_site_fract_z
  _atom_site_occupancy
  Cd  Cd1       1.0  0.49999782073697935  0.22807547371796477  0.7719269160630449  1.0000
  Cd  Cd2       1.0  0.5000047689058746  0.727768335593936  0.2722261546170657  1.0000
  H   H1        1.0  0.2791842024381238  0.45068270636242846  0.8395808634056507  1.0000
  H   H2        1.0  0.720821677440199  0.1604249993810425  0.5493171526518453  1.0000
  H   H3        1.0  0.430259184471474  0.9505973094473247  0.33985350281550103  1.0000
  H   H4        1.0  0.5697232321585233  0.6601576683499173  0.049397464677667806  1.0000
  H   H5        1.0  0.2898952828553119  0.6278436125674532  0.8261906032913586  1.0000
  H   H6        1.0  0.7101012418192811  0.17381312938096724  0.3721581453196308  1.0000
  H   H7        1.0  0.25632681637627996  0.12788908033733992  0.3262073932227453  1.0000
  H   H8        1.0  0.7436669490115332  0.6737887748960316  0.8721121762767936  1.0000
  H   H9        1.0  0.746508272364281  0.5468720732988428  0.6027559840087306  1.0000
  H   H10       1.0  0.25348877691009625  0.39724659270189  0.45312818367453644  1.0000
  H   H11       1.0  0.10420015380061187  0.04700927779563807  0.10236501273455191  1.0000
  H   H12       1.0  0.8958014051287648  0.8976296246621158  0.9529937555241831  1.0000
  H   H13       1.0  0.7227993659069366  0.36742104726251046  0.6342748367602837  1.0000
  H   H14       1.0  0.27720172495466505  0.3657302787197451  0.6325805548076958  1.0000
  H   H15       1.0  0.27562124964938284  0.8674296104142412  0.13405477677130054  1.0000
  H   H16       1.0  0.7243763663035454  0.8659451091399075  0.1325727766800568  1.0000
  H   H17       1.0  0.6341766888756909  0.7236153252416312  0.6426847048833437  1.0000
  H   H18       1.0  0.3658206325333352  0.3573143563598434  0.27639230958919825  1.0000
  H   H19       1.0  0.9998243956938851  0.22371107958583977  0.14270173535901884  1.0000
  H   H20       1.0  0.0001773419516481774  0.8572904039462655  0.7762945638277544  1.0000
  H   H21       1.0  0.38200071976135763  0.7367238358516344  0.8536180944005383  1.0000
  H   H22       1.0  0.6180068862326779  0.1463823118366036  0.2632804474179339  1.0000
  H   H23       1.0  0.028090427700121264  0.2364258005555583  0.3538417810295515  1.0000
  H   H24       1.0  0.9719244942170067  0.6461505336642401  0.7635722944774204  1.0000
  H   H25       1.0  0.7033280341184852  0.8515467121954499  0.6593023769229021  1.0000
  H   H26       1.0  0.29667313314826743  0.34069667643095863  0.14845846440576344  1.0000
  H   H27       1.0  0.7862191421545003  0.35116518663321  0.1594418165310643  1.0000
  H   H28       1.0  0.2137865609474546  0.840558627706393  0.6488291398502782  1.0000
  H   H29       1.0  0.7143812808960135  0.023422144234466057  0.6667576865652053  1.0000
  H   H30       1.0  0.28561530820351083  0.33324370727543595  0.9765850088267102  1.0000
  H   H31       1.0  0.5956745626615502  0.5229524283370707  0.16708145312957615  1.0000
  H   H32       1.0  0.40433390045930656  0.8329225277064223  0.4770381852022823  1.0000
  H   H33       1.0  0.30671069098649884  0.07374179769362839  0.9102743687738412  1.0000
  H   H34       1.0  0.69328088933311  0.08972548352421222  0.9262624948299348  1.0000
  H   H35       1.0  0.7092867866293842  0.5733152095874272  0.410827081978674  1.0000
  H   H36       1.0  0.2907169650355782  0.5891770257755053  0.4266767032775008  1.0000
  H   H37       1.0  0.28332329365613157  0.8987701767765653  0.9175408385563701  1.0000
  H   H38       1.0  0.716676092074465  0.08245639680505677  0.10123205764747213  1.0000
  H   H39       1.0  0.9006012067697498  0.3984645577610378  0.4179973081876654  1.0000
  H   H40       1.0  0.09941477703115005  0.5820057953334012  0.6015272341541263  1.0000
  C   C1        1.0  0.3835400998161516  0.47394981330768343  0.7910596732060855  1.0000
  C   C2        1.0  0.6164604898972855  0.20894011230044632  0.5260536974016645  1.0000
  C   C3        1.0  0.3514298212075106  0.9739436644330082  0.2910926870939933  1.0000
  C   C4        1.0  0.6485667705782775  0.7089220172681432  0.026048201990519704  1.0000
  C   C5        1.0  0.3899301418979845  0.573145769414289  0.7823852205120901  1.0000
  C   C6        1.0  0.610061061791292  0.21760821579616854  0.42685848403976234  1.0000
  C   C7        1.0  0.2549255093909864  0.07320392800203014  0.2822318116496305  1.0000
  C   C8        1.0  0.7450631435656306  0.7177703437222359  0.9267972178315917  1.0000
  C   C9        1.0  0.5245482372529863  0.6014681582659306  0.7166990758570152  1.0000
  C   C10       1.0  0.4754376537624054  0.2832921112154592  0.3985416335008623  1.0000
  C   C11       1.0  0.15775757364291118  0.10149910849219165  0.2164838480329934  1.0000
  C   C12       1.0  0.8422488169121253  0.783508224457158  0.8985015127827367  1.0000
  C   C13       1.0  0.6429280447102171  0.5273907962720015  0.6580176621652926  1.0000
  C   C14       1.0  0.35706606198559826  0.3419723704869212  0.4726161092658075  1.0000
  C   C15       1.0  0.17199058874319922  0.02748383968120288  0.15772684727905073  1.0000
  C   C16       1.0  0.8280116915257092  0.8422695911301685  0.9725184146324964  1.0000
  C   C17       1.0  0.6293685022298517  0.4286272080710061  0.6737463370568264  1.0000
  C   C18       1.0  0.37063115105797817  0.3262534418304168  0.5713746711649536  1.0000
  C   C19       1.0  0.2682601796667331  0.9286844125133129  0.17362256505592913  1.0000
  C   C20       1.0  0.7317356986812624  0.8263792269815227  0.0713136679363942  1.0000
  C   C21       1.0  0.5464327974112705  0.701197313662632  0.7110500218606434  1.0000
  C   C22       1.0  0.4535556862206036  0.2889429932911725  0.2988089312339924  1.0000
  C   C23       1.0  0.041666997993957004  0.20120291988958167  0.21104769610036564  1.0000
  C   C24       1.0  0.9583538425181927  0.7889393967530791  0.7987967324247053  1.0000
  C   C25       1.0  0.4684261085042677  0.7618601075457077  0.78618917863178  1.0000
  C   C26       1.0  0.5315728624961623  0.2138071533602782  0.23814501304899954  1.0000
  C   C27       1.0  0.9839133434018379  0.2615961217905108  0.28642857001069194  1.0000
  C   C28       1.0  0.016098767560088025  0.7135697410549964  0.7384041539239664  1.0000
  C   C29       1.0  0.4885691382553146  0.860411024214478  0.7869064946973127  1.0000
  C   C30       1.0  0.5114318590684023  0.2130862812176416  0.1395951404049356  1.0000
  C   C31       1.0  0.8643530264687485  0.3600918022576778  0.2872470742292776  1.0000
  C   C32       1.0  0.1356536660531093  0.7127551910499718  0.6398992782356318  1.0000
  C   C33       1.0  0.6124274184312811  0.897180222089659  0.7166213779630227  1.0000
  C   C34       1.0  0.38756321113903164  0.2833759087397921  0.10282522119391763  1.0000
  C   C35       1.0  0.7740712872103829  0.39678372972122106  0.21689116183645754  1.0000
  C   C36       1.0  0.22592935412049547  0.7831169614461115  0.6032078312374907  1.0000
  C   C37       1.0  0.6190790033260712  0.9937425746708182  0.7202338045153028  1.0000
  C   C38       1.0  0.3809179106907196  0.2797605086461771  0.006266079102111602  1.0000
  C   C39       1.0  0.6672893560264371  0.4932564646743599  0.22055240748145624  1.0000
  C   C40       1.0  0.3327080999633266  0.7794535975165358  0.5067352806503465  1.0000
  C   C41       1.0  0.3935970813362672  0.020687696012423273  0.8575786887769326  1.0000
  C   C42       1.0  0.6063969681169328  0.14241255557070065  0.9793182577279823  1.0000
  C   C43       1.0  0.7283108110499654  0.5202563584429923  0.3580332578738563  1.0000
  C   C44       1.0  0.27169556842828513  0.6419735338475262  0.4797366815962576  1.0000
  C   C45       1.0  0.3802979192744331  0.9240164936382126  0.8602184390140836  1.0000
  C   C46       1.0  0.6196926166840201  0.1397778070402537  0.07598873416297641  1.0000
  C   C47       1.0  0.8356600938372126  0.4236464530008061  0.36065768609146437  1.0000
  C   C48       1.0  0.1643526148947172  0.63934738635254  0.576342695177857  1.0000
  C   C49       1.0  0.8944573659750361  0.11202065095004324  0.7177771493278797  1.0000
  C   C50       1.0  0.10554303169008243  0.28222477474149327  0.8879773414738352  1.0000
  C   C51       1.0  0.275756192404053  0.6116983023815762  0.21806078229963086  1.0000
  C   C52       1.0  0.7242537352742318  0.7819428026993547  0.38830434259579516  1.0000
  C   C53       1.0  0.0469297961544086  0.10809427006343944  0.621592924656376  1.0000
  C   C54       1.0  0.9530692970421272  0.37840823882935826  0.8919079710273152  1.0000
  C   C55       1.0  0.22322953778236615  0.6079166575613184  0.12184622546818963  1.0000
  C   C56       1.0  0.7767737037611442  0.8781577230158388  0.3920784348610837  1.0000
  N   N1        1.0  0.5029327698251079  0.4015220109072643  0.7403244980305034  1.0000
  N   N2        1.0  0.4970689057450103  0.25967695688591863  0.5984809708091987  1.0000
  N   N3        1.0  0.3548889233557445  0.9015037593138968  0.24042056666293385  1.0000
  N   N4        1.0  0.6450987741583564  0.7595854710642909  0.0984932276340516  1.0000
  N   N5        1.0  0.5105171957589079  0.0556885456591728  0.7879604720348325  1.0000
  N   N6        1.0  0.48946467554248596  0.21203564253413268  0.9443193465031214  1.0000
  N   N7        1.0  0.6461028297454519  0.5552138736254476  0.28833262261906617  1.0000
  N   N8        1.0  0.35390164352455133  0.7116740206541292  0.44477487879498784  1.0000
  Cl  Cl1       1.0  0.026050833904733284  0.03833963974178536  0.5351328502872265  1.0000
  Cl  Cl2       1.0  0.9739485064030903  0.46487358469041584  0.9616571933816972  1.0000
  Cl  Cl3       1.0  0.4001235425979032  0.5383096285421087  0.03532393182506151  1.0000
  Cl  Cl4       1.0  0.5998736362134235  0.9646753216789887  0.461688328703481  1.0000
  Cl  Cl5       1.0  0.05677689688090477  0.23252842910795118  0.557823843716527  1.0000
  Cl  Cl6       1.0  0.94322066816229  0.4421771799885617  0.7674711083994482  1.0000
  Cl  Cl7       1.0  0.15277070527321254  0.7324639648141726  0.05830034803136641  1.0000
  Cl  Cl8       1.0  0.8472194226870965  0.9417065683206542  0.267530648489803  1.0000
  Cl  Cl9       1.0  0.22614467261349344  0.04398563269042902  0.6545234673589208  1.0000
  Cl  Cl10      1.0  0.7738543368621578  0.3454805072599566  0.9560145355856734  1.0000
  Cl  Cl11      1.0  0.07513606232513588  0.5438586575371216  0.154584508108691  1.0000
  Cl  Cl12      1.0  0.9248697804295323  0.8454184871890146  0.4561334223359453  1.0000
  O   O1        1.0  0.7769623065189389  0.18626548005941126  0.7044644565228425  1.0000
  O   O2        1.0  0.2230374398133534  0.2955371244903801  0.8137338355040314  1.0000
  O   O3        1.0  0.33277643251973643  0.6857981345042743  0.2046547418399172  1.0000
  O   O4        1.0  0.6672273986729421  0.7953470558578459  0.3141927476253272  1.0000
  O   O5        1.0  0.9070759775582503  0.0411091033853166  0.7886843988402177  1.0000
  O   O6        1.0  0.09292942132456956  0.21131416530481312  0.9588930857293649  1.0000
  O   O7        1.0  0.26279593228458953  0.5408979553083098  0.28903912594306297  1.0000
  O   O8        1.0  0.737208995662982  0.7109684917708987  0.4591012950428068  1.0000
