data_image0
_chemical_formula_structural       Ag4H8C4N20
_chemical_formula_sum              "Ag4 H8 C4 N20"
_cell_length_a       3.3723789808022677
_cell_length_b       15.902666269136292
_cell_length_c       10.3535659632147
_cell_angle_alpha    89.99860349007206
_cell_angle_beta     89.99921780462219
_cell_angle_gamma    134.1531582371928

_space_group_name_H-M_alt    "P 1"
_space_group_IT_number       1

loop_
  _space_group_symop_operation_xyz
  'x, y, z'

loop_
  _atom_site_type_symbol
  _atom_site_label
  _atom_site_symmetry_multiplicity
  _atom_site_fract_x
  _atom_site_fract_y
  _atom_site_fract_z
  _atom_site_occupancy
  Ag  Ag1       1.0  0.30247073462223945  0.8963270692393761  0.1528301363153233  1.0000
  Ag  Ag2       1.0  0.6975103123770339  0.6036690545446676  0.652825082599918  1.0000
  Ag  Ag3       1.0  0.6975221689423279  0.10366809041408229  0.8471748012500909  1.0000
  Ag  Ag4       1.0  0.3024724710233072  0.39632586835357136  0.3471721281824003  1.0000
  H   H1        1.0  0.8812694376580624  0.16011904616172504  0.4730246549928978  1.0000
  H   H2        1.0  0.11869337971847918  0.3398521044448727  0.9730413455720992  1.0000
  H   H3        1.0  0.11876187369148965  0.8398883109559138  0.526982213896126  1.0000
  H   H4        1.0  0.8812587211530951  0.6601313151846923  0.026966489916098596  1.0000
  H   H5        1.0  0.7863144986292524  0.046606783342937816  0.4117000625516241  1.0000
  H   H6        1.0  0.21374003349587375  0.45342358985959647  0.9116970892212849  1.0000
  H   H7        1.0  0.21368319411651274  0.9533874612974387  0.58830294332747  1.0000
  H   H8        1.0  0.7863142343327206  0.546594576165617  0.0882962574404189  1.0000
  C   C1        1.0  0.7843041567442909  0.1371905502147044  0.2767567977586083  1.0000
  C   C2        1.0  0.2156098801657077  0.3627995570267117  0.7767642555412166  1.0000
  C   C3        1.0  0.21578602795956645  0.8628207527984558  0.7232462075257118  1.0000
  C   C4        1.0  0.7842426420886072  0.6371876948980599  0.22323005810736157  1.0000
  N   N1        1.0  0.6452139569110359  0.0722780278704462  0.1704735780951552  1.0000
  N   N2        1.0  0.35485151009599036  0.42771834613083837  0.6704608154367335  1.0000
  N   N3        1.0  0.3547849815276434  0.9277257470577284  0.8295226665820153  1.0000
  N   N4        1.0  0.6451859002314746  0.5722835046560704  0.3295344633733208  1.0000
  N   N5        1.0  0.7548833581076909  0.13966918712223733  0.0690467057827888  1.0000
  N   N6        1.0  0.24515845163420374  0.3603351135644672  0.5690252141244018  1.0000
  N   N7        1.0  0.2451303302056895  0.8603285133694599  0.9309534024280737  1.0000
  N   N8        1.0  0.7548108911326991  0.6396612923366903  0.4309652356872178  1.0000
  N   N9        1.0  0.9439844924733052  0.23919944315269254  0.11032526247966959  1.0000
  N   N10       1.0  0.05607556527930778  0.26080300082721664  0.610304686553917  1.0000
  N   N11       1.0  0.05603692236589744  0.7607989517994581  0.8896719481478144  1.0000
  N   N12       1.0  0.943896172078197  0.7391929475674032  0.38968479741453876  1.0000
  N   N13       1.0  0.9707839962167525  0.24147764397061877  0.2411361277996207  1.0000
  N   N14       1.0  0.029286398761698144  0.25852182994408673  0.7411167259229073  1.0000
  N   N15       1.0  0.029220113416826593  0.758521886480992  0.7588717071871186  1.0000
  N   N16       1.0  0.9707278330992041  0.7414779376932757  0.2588737237260331  1.0000
  N   N17       1.0  0.7200910184670803  0.09958975618734911  0.3998014678409092  1.0000
  N   N18       1.0  0.2800380042647105  0.4004347620540543  0.8998251298360316  1.0000
  N   N19       1.0  0.27990667356453247  0.9004044883039982  0.60021023069541  1.0000
  N   N20       1.0  0.7199861231543422  0.5995739675500857  0.10018656828410138  1.0000
