data_image0
_chemical_formula_structural       Dy4H32C24S6O28
_chemical_formula_sum              "Dy4 H32 C24 S6 O28"
_cell_length_a       7.9124191250348686
_cell_length_b       10.497589421751503
_cell_length_c       14.119572411895463
_cell_angle_alpha    71.03693524655719
_cell_angle_beta     75.93954395631391
_cell_angle_gamma    77.37556803443567

_space_group_name_H-M_alt    "P 1"
_space_group_IT_number       1

loop_
  _space_group_symop_operation_xyz
  'x, y, z'

loop_
  _atom_site_type_symbol
  _atom_site_label
  _atom_site_symmetry_multiplicity
  _atom_site_fract_x
  _atom_site_fract_y
  _atom_site_fract_z
  _atom_site_occupancy
  Dy  Dy1       1.0  0.0076275359179121165  0.8032324113977011  0.59683946877999  1.0000
  Dy  Dy2       1.0  0.9923725383739634  0.19676698081689642  0.40316015964154406  1.0000
  Dy  Dy3       1.0  0.5907182946916406  0.5919315083139765  0.858850031647634  1.0000
  Dy  Dy4       1.0  0.4092804774846429  0.4080678801277813  0.14114977645333224  1.0000
  H   H1        1.0  0.2733392477245146  0.4129502544018138  0.8213286688028416  1.0000
  H   H2        1.0  0.7266582160819438  0.5870491067785012  0.17866849261007892  1.0000
  H   H3        1.0  0.056344175401299906  0.45290434188800094  0.8887426321916647  1.0000
  H   H4        1.0  0.943652465057326  0.5470990898698957  0.11125293334063002  1.0000
  H   H5        1.0  0.9350752315250118  0.32673375241586905  0.7452176655024798  1.0000
  H   H6        1.0  0.06493053468764036  0.6732697468569526  0.25478158841686843  1.0000
  H   H7        1.0  0.9141000202187115  0.36474926864504204  0.6154710236400402  1.0000
  H   H8        1.0  0.08590588043725934  0.6352470871957508  0.38452925962220513  1.0000
  H   H9        1.0  0.5794923130549706  0.9729640831665521  0.16906901951126221  1.0000
  H   H10       1.0  0.42051166602009715  0.027035314494405296  0.8309293632801056  1.0000
  H   H11       1.0  0.40373388902304413  0.8736112934716549  0.223626370602929  1.0000
  H   H12       1.0  0.596267488947973  0.12638810838792847  0.7763737847310423  1.0000
  H   H13       1.0  0.652693362633002  0.5637371306087999  0.5621715649546387  1.0000
  H   H14       1.0  0.3473104156866852  0.43626330378104683  0.43782871529014494  1.0000
  H   H15       1.0  0.47645164303643367  0.4695554653297549  0.5907296419608696  1.0000
  H   H16       1.0  0.5235545387590436  0.530446013334661  0.4092721763784651  1.0000
  H   H17       1.0  0.7550449541445161  0.018629964342615296  0.29221793103135235  1.0000
  H   H18       1.0  0.24495313381795114  0.9813663688611529  0.7077834303074793  1.0000
  H   H19       1.0  0.5654968475667985  0.048208605303493406  0.38328833417839536  1.0000
  H   H20       1.0  0.4345036360536481  0.9517887428140884  0.6167110322956545  1.0000
  H   H21       1.0  0.9057989162581349  0.0981127325878859  0.9932247346035651  1.0000
  H   H22       1.0  0.094196638475907  0.901889717389807  0.0067761790734265775  1.0000
  H   H23       1.0  0.987590187463617  0.15709534629706207  0.07468059502392067  1.0000
  H   H24       1.0  0.012410092274322427  0.8429030268050968  0.9253192557197989  1.0000
  H   H25       1.0  0.18987373738170282  0.7319663956589294  0.7707017605066466  1.0000
  H   H26       1.0  0.8101259260180386  0.2680350347805316  0.22929742327050917  1.0000
  H   H27       1.0  0.9862159609884528  0.7258140552778087  0.8243528719807712  1.0000
  H   H28       1.0  0.013786512088522308  0.2741863635948931  0.17564617475971286  1.0000
  H   H29       1.0  0.1863560123844153  0.8981416973472136  0.3884888944146496  1.0000
  H   H30       1.0  0.8136412522302195  0.10185870643413612  0.6115108710435562  1.0000
  H   H31       1.0  0.2852431234112487  0.7604319813658407  0.44751216362983826  1.0000
  H   H32       1.0  0.7147569461899436  0.2395673932322993  0.5524853450160947  1.0000
  C   C1        1.0  0.25605856968984847  0.3846734159458123  0.980539097225865  1.0000
  C   C2        1.0  0.7439367733438758  0.6153300296557022  0.019458767761463467  1.0000
  C   C3        1.0  0.18060163981110114  0.3814987079472587  0.8929721354267028  1.0000
  C   C4        1.0  0.8193950022110883  0.6185047296827904  0.10702413669746129  1.0000
  C   C5        1.0  0.9213577958395336  0.5371447657959223  0.6645331703407036  1.0000
  C   C6        1.0  0.07864988569978243  0.4628556681681317  0.3354651576820514  1.0000
  C   C7        1.0  0.41649619674095834  0.6383027854413329  0.6526621070777663  1.0000
  C   C8        1.0  0.5835034682223466  0.3616986508702809  0.34733778329125187  1.0000
  C   C9        1.0  0.7938602991539626  0.3008305868240768  0.995317784608801  1.0000
  C   C10       1.0  0.20613390122447584  0.6991658055270095  0.004692594870739649  1.0000
  C   C11       1.0  0.35633041377786867  0.06795085734018609  0.25588391501702284  1.0000
  C   C12       1.0  0.643670343164274  0.9320515842402489  0.7441134535747761  1.0000
  C   C13       1.0  0.8697869699286969  0.39980878546478493  0.6838123632933062  1.0000
  C   C14       1.0  0.13022092018381667  0.6001906411311353  0.3161876002353806  1.0000
  C   C15       1.0  0.7782992931330311  0.9149057813675159  0.44675778939519256  1.0000
  C   C16       1.0  0.22169708494883622  0.08509259803258833  0.5532447201624249  1.0000
  C   C17       1.0  0.47814533932861286  0.9415336177218734  0.23661342673262445  1.0000
  C   C18       1.0  0.5218571306212426  0.0584667894065234  0.7633842068241206  1.0000
  C   C19       1.0  0.5459493386916066  0.5209627045945525  0.6226132721083741  1.0000
  C   C20       1.0  0.4540538264170024  0.479040798876902  0.37738775435357036  1.0000
  C   C21       1.0  0.6711752612860806  0.9682738122408382  0.3631686997054189  1.0000
  C   C22       1.0  0.32882433736515543  0.031721517367636  0.6368341174599121  1.0000
  C   C23       1.0  0.9513435375795254  0.18654451970242292  0.9994837906318209  1.0000
  C   C24       1.0  0.0486535247161655  0.8134569149356708  0.0005171656879312529  1.0000
  S   S1        1.0  0.13984375497384594  0.21571235558251803  0.897668474763634  1.0000
  S   S2        1.0  0.8601517950695127  0.7842900767787171  0.10233031913775652  1.0000
  S   S3        1.0  0.6366903006019627  0.39896440204057637  0.729468673985593  1.0000
  S   S4        1.0  0.36331416662223137  0.601039105203711  0.2705321727969262  1.0000
  S   S5        1.0  0.5803402309523308  0.8363300186698908  0.3441151987031858  1.0000
  S   S6        1.0  0.41965764843693876  0.16366732190201114  0.6558845271297215  1.0000
  O   O1        1.0  0.17137404023451103  0.35340360257035286  0.07132850579021979  1.0000
  O   O2        1.0  0.8286217784398529  0.6466039056372779  0.9286661704533187  1.0000
  O   O3        1.0  0.4074309175972317  0.42353868566061703  0.9618987680703694  1.0000
  O   O4        1.0  0.5925672304230504  0.5764637307576876  0.038096840104685684  1.0000
  O   O5        1.0  0.39594621299981725  0.18079288872070262  0.19865373396895336  1.0000
  O   O6        1.0  0.6040488504579711  0.8192054399293556  0.801343302533155  1.0000
  O   O7        1.0  0.8744160538893269  0.9950567456186475  0.4529743095834746  1.0000
  O   O8        1.0  0.12558532095456343  0.004942644496630099  0.5470244325667648  1.0000
  O   O9        1.0  0.8291851261235051  0.6205929519910215  0.7145593285028367  1.0000
  O   O10       1.0  0.1708212501731055  0.37940746645588774  0.28543776601561877  1.0000
  O   O11       1.0  0.16777518172595052  0.8031514979937882  0.4318017102731558  1.0000
  O   O12       1.0  0.8322233865678257  0.19684891543255395  0.568198582097487  1.0000
  O   O13       1.0  0.7811881289243204  0.392101957798225  0.911157675977236  1.0000
  O   O14       1.0  0.21880694547839852  0.6078964119568937  0.08884430666795133  1.0000
  O   O15       1.0  0.06583677575023475  0.7669023184414601  0.7610687076700698  1.0000
  O   O16       1.0  0.9341635024241411  0.23309604878855336  0.2389304364817874  1.0000
  O   O17       1.0  0.4089720610240875  0.6561292180900012  0.7390756886089418  1.0000
  O   O18       1.0  0.591027613320584  0.3438722534545279  0.260928441311286  1.0000
  O   O19       1.0  0.7753567955275571  0.7974165351937829  0.5091296695139957  1.0000
  O   O20       1.0  0.22464369591069303  0.20258084228455434  0.4908732299193871  1.0000
  O   O21       1.0  0.05548560425879855  0.5704199827542099  0.598034896263016  1.0000
  O   O22       1.0  0.944519882377918  0.42957839956714866  0.40196352917111255  1.0000
  O   O23       1.0  0.3183373464047037  0.7114700556864336  0.5910515531959887  1.0000
  O   O24       1.0  0.6816642432666242  0.2885283505493277  0.408951650827639  1.0000
  O   O25       1.0  0.6870937407997529  0.2937546725890242  0.07876661864492007  1.0000
  O   O26       1.0  0.3129058609786028  0.7062406687637621  0.9212376117041499  1.0000
  O   O27       1.0  0.2226237580293997  0.053634868554802005  0.3290368893962281  1.0000
  O   O28       1.0  0.7773771364831816  0.946360441337909  0.6709629217222  1.0000
