data_image0
_chemical_formula_structural       Cd2H34C46N4O12
_chemical_formula_sum              "Cd2 H34 C46 N4 O12"
_cell_length_a       7.266504298746483
_cell_length_b       10.48845093607401
_cell_length_c       14.392862471540077
_cell_angle_alpha    84.78799383096337
_cell_angle_beta     76.47714917091015
_cell_angle_gamma    77.32274706442503

_space_group_name_H-M_alt    "P 1"
_space_group_IT_number       1

loop_
  _space_group_symop_operation_xyz
  'x, y, z'

loop_
  _atom_site_type_symbol
  _atom_site_label
  _atom_site_symmetry_multiplicity
  _atom_site_fract_x
  _atom_site_fract_y
  _atom_site_fract_z
  _atom_site_occupancy
  Cd  Cd1       1.0  0.1159185037919528  0.0520349104547293  0.05897781846749688  1.0000
  Cd  Cd2       1.0  0.8840779169189403  0.9479666234003473  0.941025089365148  1.0000
  H   H1        1.0  0.4584068592288658  0.1652504545779507  0.08905924606388989  1.0000
  H   H2        1.0  0.541592426559184  0.8347510394221302  0.9109405526299952  1.0000
  H   H3        1.0  0.4163026456379768  0.3012174592452084  0.9518964657935951  1.0000
  H   H4        1.0  0.5837102987416996  0.698790054273296  0.04811451391945809  1.0000
  H   H5        1.0  0.8102089091048723  0.48186406811063154  0.05025093024524098  1.0000
  H   H6        1.0  0.18980632209789403  0.5181453526382357  0.9497561721241112  1.0000
  H   H7        1.0  0.6057333509102206  0.14728033114302258  0.3974194333642202  1.0000
  H   H8        1.0  0.394261401992054  0.8527221374658326  0.6025801265641703  1.0000
  H   H9        1.0  0.4545411341038771  0.30420760326855867  0.40776284791276396  1.0000
  H   H10       1.0  0.5454544820366748  0.6957919492289122  0.5922382118900343  1.0000
  H   H11       1.0  0.1888078426834099  0.0859252155968306  0.6678075810442506  1.0000
  H   H12       1.0  0.8111857958072546  0.9140762677803239  0.3321914845868932  1.0000
  H   H13       1.0  0.5619613044929608  0.21428134045329023  0.8158513428250345  1.0000
  H   H14       1.0  0.4380209310208441  0.7857250733467752  0.18415077564024065  1.0000
  H   H15       1.0  0.5941673805250857  0.22550541499561663  0.21903334320176526  1.0000
  H   H16       1.0  0.40582993656684613  0.77449316661491  0.7809682839691802  1.0000
  H   H17       1.0  0.6506852539169399  0.2696376484821457  0.5084187978918777  1.0000
  H   H18       1.0  0.3493174841561169  0.7303570153083356  0.4915824825168825  1.0000
  H   H19       1.0  0.04978840964992766  0.38693455926116377  0.5578190861615725  1.0000
  H   H20       1.0  0.9502268540973017  0.6130561503048214  0.44217894057627666  1.0000
  H   H21       1.0  0.11640372035974166  0.1070367778832164  0.4224904988511256  1.0000
  H   H22       1.0  0.8835947442865829  0.8929627528258379  0.5775088420809595  1.0000
  H   H23       1.0  0.9960566847264899  0.0559397284695322  0.2825069810899308  1.0000
  H   H24       1.0  0.003939777412867154  0.9440617602190855  0.7174924510725802  1.0000
  H   H25       1.0  0.29200336562276874  0.5289481884503502  0.5192329924949063  1.0000
  H   H26       1.0  0.7080013328607107  0.47104939676297863  0.4807671545708131  1.0000
  H   H27       1.0  0.15280188055528027  0.6518552673945808  0.7977018589418421  1.0000
  H   H28       1.0  0.8471861444488483  0.3481413349905297  0.20229821087320937  1.0000
  H   H29       1.0  0.8719178111075294  0.2635958425875701  0.7757174069050947  1.0000
  H   H30       1.0  0.12808581506088496  0.7363958779916473  0.22428328797600017  1.0000
  H   H31       1.0  0.6797104117427039  0.40328197409289157  0.7816785987686855  1.0000
  H   H32       1.0  0.32029659908901914  0.5967126570149688  0.2183201033340083  1.0000
  H   H33       1.0  0.9058595807153365  0.5150833668365847  0.8472948987217492  1.0000
  H   H34       1.0  0.09413104990691314  0.4849093033837377  0.15270376266573038  1.0000
  C   C1        1.0  0.38517956205132714  0.1568740845101644  0.16381532324086118  1.0000
  C   C2        1.0  0.6148172016436104  0.8431264170858411  0.8361834503230695  1.0000
  C   C3        1.0  0.6271861735101607  0.3793381621468583  0.0009626705214600194  1.0000
  C   C4        1.0  0.37283306270653316  0.6206673426428824  0.9990442493870404  1.0000
  C   C5        1.0  0.45249530427809503  0.38863910741328317  0.9725284348674846  1.0000
  C   C6        1.0  0.5475225153033276  0.611371233473328  0.027474131559600296  1.0000
  C   C7        1.0  0.7634902581081348  0.24965157509858923  0.002333739146962381  1.0000
  C   C8        1.0  0.23652468877850183  0.7503539804403516  0.997677149335658  1.0000
  C   C9        1.0  0.36567300395038416  0.14561071783798954  0.7503433605450383  1.0000
  C   C10       1.0  0.6343186741298651  0.8543878441163246  0.24965683842915348  1.0000
  C   C11       1.0  0.673929178030022  0.4909494572196068  0.02842817081396728  1.0000
  C   C12       1.0  0.3260923367240521  0.5090579638337829  0.9715755668848658  1.0000
  C   C13       1.0  0.4528538038705817  0.19892063576497784  0.40986880872340953  1.0000
  C   C14       1.0  0.547142641697391  0.8010808709902265  0.5901320137071552  1.0000
  C   C15       1.0  0.3113436195522751  0.1304589968322816  0.6660593393230911  1.0000
  C   C16       1.0  0.6886463492908914  0.8695405450422697  0.33394098741697315  1.0000
  C   C17       1.0  0.6196037068259271  0.25086403740370855  0.6612480536138676  1.0000
  C   C18       1.0  0.3803913565857043  0.7491326008432893  0.3387546703646649  1.0000
  C   C19       1.0  0.9580620891706674  0.4380734049243601  0.7061926512777461  1.0000
  C   C20       1.0  0.04193786668216852  0.561921208388199  0.29380478692951334  1.0000
  C   C21       1.0  0.41404533773314967  0.174225445393617  0.5787655575740303  1.0000
  C   C22       1.0  0.5859519959301733  0.8257731181503232  0.4212346793288689  1.0000
  C   C23       1.0  0.5207526486880455  0.20608931449123702  0.7490616717136546  1.0000
  C   C24       1.0  0.4792355943466544  0.7939112253701383  0.2509401730603429  1.0000
  C   C25       1.0  0.45994977698785533  0.18944954096375716  0.2365699160296018  1.0000
  C   C26       1.0  0.5400492741982388  0.8105480336266454  0.7634294979733838  1.0000
  C   C27       1.0  0.5694989384397784  0.23358675340305274  0.5753150176455719  1.0000
  C   C28       1.0  0.4304986802077335  0.7664108411148548  0.4246859509268006  1.0000
  C   C29       1.0  0.3654723398718218  0.17024915073452723  0.3317593831353562  1.0000
  C   C30       1.0  0.6345275490273892  0.8297503690803228  0.6682390983613757  1.0000
  C   C31       1.0  0.25556630283119125  0.0950994250877386  0.843138249450675  1.0000
  C   C32       1.0  0.744423817088915  0.9049089607653616  0.15686489553780086  1.0000
  C   C33       1.0  0.06853095936959618  0.4441899874922229  0.6130311233761816  1.0000
  C   C34       1.0  0.9314780622547827  0.5558026766027809  0.3869667923620597  1.0000
  C   C35       1.0  0.19479100452862497  0.12270966210292764  0.34955044287666936  1.0000
  C   C36       1.0  0.8052085745293096  0.8772908538378347  0.6504493923526623  1.0000
  C   C37       1.0  0.12786600643339338  0.0938888219823184  0.2725947845940411  1.0000
  C   C38       1.0  0.8721307324044639  0.9061117067135672  0.7274060743719772  1.0000
  C   C39       1.0  0.20452895223625928  0.5239004431138383  0.5919764619910878  1.0000
  C   C40       1.0  0.7954740873923781  0.47609323358402367  0.4080241598190995  1.0000
  C   C41       1.0  0.12844996568919942  0.5914472960745059  0.745471310706634  1.0000
  C   C42       1.0  0.8715408491527723  0.4085541819911926  0.25452738839314293  1.0000
  C   C43       1.0  0.812889086349358  0.3514171168750834  0.7349292716432458  1.0000
  C   C44       1.0  0.18711681007074774  0.6485765290010762  0.2650689361622085  1.0000
  C   C45       1.0  0.9894202667780261  0.5144678617783855  0.7736199515181709  1.0000
  C   C46       1.0  0.01058027561458627  0.4855247954155217  0.226377559759996  1.0000
  N   N1        1.0  0.221976043643771  0.10938422695309669  0.18132292097996577  1.0000
  N   N2        1.0  0.7780169917357324  0.8906192306092966  0.8186774618483312  1.0000
  N   N3        1.0  0.2364773829367407  0.5972367300165616  0.6560012253756682  1.0000
  N   N4        1.0  0.7635213501223886  0.40276184973304663  0.34400023749395103  1.0000
  O   O1        1.0  0.12583552577128643  0.0335375860661529  0.8377217218763419  1.0000
  O   O2        1.0  0.874163751731068  0.9664639169672214  0.1622787719515628  1.0000
  O   O3        1.0  0.7311467507533036  0.1591625111623998  0.958814630911057  1.0000
  O   O4        1.0  0.2688642829301172  0.8408420267335046  0.04119331134087641  1.0000
  O   O5        1.0  0.30043814581203077  0.11645905203663176  0.920088286453776  1.0000
  O   O6        1.0  0.6995533983609689  0.8835493229222565  0.07991399909933958  1.0000
  O   O7        1.0  0.34826920946741063  0.15731809460871926  0.4998445508500425  1.0000
  O   O8        1.0  0.6517304199727648  0.8426775328963391  0.5001556313578703  1.0000
  O   O9        1.0  0.8972479652420944  0.24057704785561643  0.04746671907230389  1.0000
  O   O10       1.0  0.10276505370882913  0.7594303843632632  0.9525380044345014  1.0000
  O   O11       1.0  0.7699612575258356  0.31405979991875205  0.650370137147192  1.0000
  O   O12       1.0  0.23003471055253036  0.6859338770503954  0.3496306110356215  1.0000
