data_image0
_chemical_formula_structural       Zn6H36C61O26
_chemical_formula_sum              "Zn6 H36 C61 O26"
_cell_length_a       18.632823658829526
_cell_length_b       18.770778347157496
_cell_length_c       18.669497616677937
_cell_angle_alpha    109.86508594448205
_cell_angle_beta     109.19116156467587
_cell_angle_gamma    109.30006100298935

_space_group_name_H-M_alt    "P 1"
_space_group_IT_number       1

loop_
  _space_group_symop_operation_xyz
  'x, y, z'

loop_
  _atom_site_type_symbol
  _atom_site_label
  _atom_site_symmetry_multiplicity
  _atom_site_fract_x
  _atom_site_fract_y
  _atom_site_fract_z
  _atom_site_occupancy
  Zn  Zn1       1.0  0.9447089978681762  0.001763283563967402  0.4428699232064943  1.0000
  Zn  Zn2       1.0  0.0698341914922835  0.0092031645567303  0.5747212649670317  1.0000
  Zn  Zn3       1.0  0.05575204600985734  0.5624617217264147  0.0015126541755208314  1.0000
  Zn  Zn4       1.0  0.9279155023102562  0.4393232442473336  0.9993107249895558  1.0000
  Zn  Zn5       1.0  0.5005267291324813  0.446850766284385  0.43696786527527115  1.0000
  Zn  Zn6       1.0  0.5004332959747586  0.5669117205042654  0.5675219333561046  1.0000
  H   H1        1.0  0.15809400152120665  0.8312110325167272  0.2736200542879318  1.0000
  H   H2        1.0  0.7796607097951095  0.15330022240955546  0.5522206115427438  1.0000
  H   H3        1.0  0.3004457725348929  0.27453576708488486  0.681721527364175  1.0000
  H   H4        1.0  0.10371804066002707  0.8008992675176431  0.39165127475742173  1.0000
  H   H5        1.0  0.3981852686945686  0.4014347408550237  0.6809023780711314  1.0000
  H   H6        1.0  0.18901656625146043  0.25431012694349425  0.336239231462045  1.0000
  H   H7        1.0  0.2554326832044325  0.20464613797138756  0.332369812190386  1.0000
  H   H8        1.0  0.08390675182937463  0.13030865547453635  0.3381105152811088  1.0000
  H   H9        1.0  0.1498008759389222  0.08009386199366023  0.3330760932532613  1.0000
  H   H10       1.0  0.09292204452037821  0.4508086835446294  0.2560967980935445  1.0000
  H   H11       1.0  0.2210409506443938  0.46381903313825046  0.368305232237404  1.0000
  H   H12       1.0  0.6029335542797016  0.6170474728823552  0.32916675238511334  1.0000
  H   H13       1.0  0.4005093920835208  0.5377466481137391  0.21053951178500807  1.0000
  H   H14       1.0  0.2736811397622887  0.5239700389076206  0.09440450660944318  1.0000
  H   H15       1.0  0.9633401328864365  0.6322476990273885  0.2491954428545072  1.0000
  H   H16       1.0  0.2245132296095491  0.40697960330645344  0.03924797757569823  1.0000
  H   H17       1.0  0.6878950819579687  0.44509954259324064  0.8322560431607329  1.0000
  H   H18       1.0  0.589796622733381  0.4506769815452857  0.7096513639376596  1.0000
  H   H19       1.0  0.779407413724762  0.40428151857421574  0.5517522227152653  1.0000
  H   H20       1.0  0.8283867798997734  0.5204257679394646  0.6084131713526234  1.0000
  H   H21       1.0  0.8871399481228223  0.4144563571526234  0.6838012257075973  1.0000
  H   H22       1.0  0.9338768092411908  0.5301369477183402  0.7412183364250564  1.0000
  H   H23       1.0  0.7917528316217215  0.679794568775478  0.3622697641080422  1.0000
  H   H24       1.0  0.8547926150221272  0.7076495222748991  0.2158972253072378  1.0000
  H   H25       1.0  0.9100651165793039  0.735572260077561  0.09797492312825554  1.0000
  H   H26       1.0  0.04744664074397064  0.9039446928655653  0.2394820752909085  1.0000
  H   H27       1.0  0.8850013595418886  0.9157741706196988  0.683725793038292  1.0000
  H   H28       1.0  0.7563563582904251  0.8132374135858883  0.6785723810474096  1.0000
  H   H29       1.0  0.6685824112433353  0.5715231902467581  0.3622855838255037  1.0000
  H   H30       1.0  0.4559828392676337  0.38156995877195515  0.15244937965555044  1.0000
  H   H31       1.0  0.7278407429068636  0.7285579351634939  0.3329660524818294  1.0000
  H   H32       1.0  0.12792550079347356  0.27703414608551213  0.7230066684965307  1.0000
  H   H33       1.0  0.1431927433818956  0.3999960673445174  0.8447146059239259  1.0000
  H   H34       1.0  0.805325047004551  0.20859510516702784  0.7385510441231061  1.0000
  H   H35       1.0  0.7942936554775885  0.2688475593281013  0.6836357558341676  1.0000
  H   H36       1.0  0.7868269664086539  0.09146486174499564  0.6061309976827829  1.0000
  C   C1        1.0  0.9146324788319474  0.9008794246954114  0.543773613174807  1.0000
  C   C2        1.0  0.7081528610697561  0.6990309655207981  0.469405092382111  1.0000
  C   C3        1.0  0.6688408053889532  0.6330206136451013  0.37374023510802357  1.0000
  C   C4        1.0  0.9922315776383002  0.8887403324107911  0.3736946522180988  1.0000
  C   C5        1.0  0.7471012086456099  0.7016519725017932  0.37503050177766556  1.0000
  C   C6        1.0  0.9140929328172902  0.2077139115512453  0.6582815011866148  1.0000
  C   C7        1.0  0.9866338949558366  0.20556302877624702  0.6542742170112064  1.0000
  C   C8        1.0  0.06956145964097259  0.2768385073852855  0.7236066386788237  1.0000
  C   C9        1.0  0.07826880960046624  0.34535806182221773  0.7927249806440101  1.0000
  C   C10       1.0  0.004655889111511282  0.3435289373452834  0.7995959307557713  1.0000
  C   C11       1.0  0.923126292952112  0.2732836434257422  0.7306620592336799  1.0000
  C   C12       1.0  0.9524880282976371  0.7508558461687189  0.1640217141699269  1.0000
  C   C13       1.0  0.8253097041506762  0.2308636442016408  0.6974390028656784  1.0000
  C   C14       1.0  0.8149264837320516  0.15727277095317052  0.6148075246500824  1.0000
  C   C15       1.0  0.20734842842864507  0.19569552620875197  0.46327707930166884  1.0000
  C   C16       1.0  0.151756614533582  0.12335533594945503  0.5385728204456584  1.0000
  C   C17       1.0  0.21776303687413187  0.19638538971060632  0.5409582757667266  1.0000
  C   C18       1.0  0.2895560987741845  0.2716575058531988  0.6194801348327202  1.0000
  C   C19       1.0  0.3449862219087407  0.34291596011181735  0.6189735548034037  1.0000
  C   C20       1.0  0.33462266204238483  0.3405890761392031  0.5397797493971979  1.0000
  C   C21       1.0  0.2654949312952155  0.2644932531874248  0.46261363075261386  1.0000
  C   C22       1.0  0.21770516005367568  0.22051322284829672  0.3633012170188152  1.0000
  C   C23       1.0  0.02976508308610462  0.8431781662214706  0.24135280119895003  1.0000
  C   C24       1.0  0.1514209123767785  0.14239193897176258  0.3640624148242466  1.0000
  C   C25       1.0  0.0783162830700945  0.46567071339107013  0.11012284558778873  1.0000
  C   C26       1.0  0.015988398046090434  0.6423491995395597  0.11682401150650899  1.0000
  C   C27       1.0  0.8520939650629344  0.4683626992229365  0.8740195056453645  1.0000
  C   C28       1.0  0.9815036026973303  0.12946039703000173  0.5881746347887784  1.0000
  C   C29       1.0  0.013651623182674757  0.41047372792082387  0.8779708901723424  1.0000
  C   C30       1.0  0.6115082321220342  0.4672388085669328  0.5806628334656382  1.0000
  C   C31       1.0  0.6206499958525953  0.6502304015200979  0.5363689499582663  1.0000
  C   C32       1.0  0.37186520524255684  0.4781621257770114  0.36747467268722994  1.0000
  C   C33       1.0  0.3945505498586641  0.4125762296206902  0.5358400324041597  1.0000
  C   C34       1.0  0.00036604818522789964  0.8261913845902243  0.3070931626026833  1.0000
  C   C35       1.0  0.21888294670009859  0.4624309289589804  0.1611751447913647  1.0000
  C   C36       1.0  0.14701108323520634  0.45850025170575054  0.17122274468364657  1.0000
  C   C37       1.0  0.14835002450834625  0.45546457246727834  0.24602057951911152  1.0000
  C   C38       1.0  0.22043842859756785  0.46208673525459454  0.30913151363584035  1.0000
  C   C39       1.0  0.2933933915535079  0.46740465429629563  0.2989226065745073  1.0000
  C   C40       1.0  0.06064917014844441  0.786017286837975  0.3260606604887641  1.0000
  C   C41       1.0  0.2885535540164099  0.4649872952298751  0.22211268858216485  1.0000
  C   C42       1.0  0.34086203447389357  0.47389626324037704  0.17447877259785122  1.0000
  C   C43       1.0  0.25916323784733925  0.4668819229680282  0.10315172646051714  1.0000
  C   C44       1.0  0.8040783812879368  0.45914462125470845  0.7270862255822195  1.0000
  C   C45       1.0  0.777794531522872  0.7589539801144485  0.4709547692346377  1.0000
  C   C46       1.0  0.7863947446704316  0.45685505787200514  0.7934653686741769  1.0000
  C   C47       1.0  0.7051204597737878  0.44886294624409845  0.7826994557332939  1.0000
  C   C48       1.0  0.6493678556139315  0.4507876999726509  0.713016701176649  1.0000
  C   C49       1.0  0.6684733398577264  0.4546689486046561  0.6467690066504872  1.0000
  C   C50       1.0  0.7453289691301279  0.45497053995208614  0.6540313705914116  1.0000
  C   C51       1.0  0.8050945408154319  0.4620871214282546  0.6146349559751771  1.0000
  C   C52       1.0  0.09085891619394461  0.8036262407881197  0.2615665415585582  1.0000
  C   C53       1.0  0.8719687412260269  0.467794218839714  0.6977794929304864  1.0000
  C   C54       1.0  0.01405092305403601  0.7103249640902264  0.18469204724036106  1.0000
  C   C55       1.0  0.9826887742727308  0.6935955811852214  0.24848500238300647  1.0000
  C   C56       1.0  0.8434927006043011  0.8379146803862415  0.5469816149189413  1.0000
  C   C57       1.0  0.9221355660655849  0.7335324904369149  0.2280791399641873  1.0000
  C   C58       1.0  0.3610898903253386  0.4015020032256872  0.14236766921644778  1.0000
  C   C59       1.0  0.8347901992476353  0.8550116929314274  0.6224121864391138  1.0000
  C   C60       1.0  0.7622330535926382  0.7968556819443013  0.6196303698405857  1.0000
  C   C61       1.0  0.69682239111485  0.7163701315235403  0.5425315191434379  1.0000
  O   O1        1.0  0.8892387090004945  0.9166879731741064  0.4818979643576213  1.0000
  O   O2        1.0  0.5891930667578719  0.5226952487371649  0.6101746092388112  1.0000
  O   O3        1.0  0.5840764642815941  0.572697321524359  0.4733480868642559  1.0000
  O   O4        1.0  0.9950578909622152  0.9332399703990506  0.6008393829865356  1.0000
  O   O5        1.0  0.5950746957905794  0.673015454373456  0.5925378773517949  1.0000
  O   O6        1.0  0.406384641920468  0.4338133703767897  0.3391837014386568  1.0000
  O   O7        1.0  0.39899745802826203  0.5298336295111384  0.447200960147022  1.0000
  O   O8        1.0  0.41177776067438293  0.3895347429377979  0.4740830774557735  1.0000
  O   O9        1.0  0.4241913568291551  0.49220995781291077  0.5932746719910043  1.0000
  O   O10       1.0  0.9368130939115105  0.9127993042761989  0.3445849995465339  1.0000
  O   O11       1.0  0.03950866431844715  0.9140545440877692  0.4539806114455447  1.0000
  O   O12       1.0  0.997271814110938  0.41862859260988483  0.08588622429245879  1.0000
  O   O13       1.0  0.0733034646765915  0.08757782743787602  0.47789500407598245  1.0000
  O   O14       1.0  0.17651285544549472  0.10083735977314492  0.5963034770892648  1.0000
  O   O15       1.0  0.9252810066829579  0.09332719670622683  0.506239107755256  1.0000
  O   O16       1.0  0.033720689850575504  0.10433706689997994  0.6181643779677087  1.0000
  O   O17       1.0  0.10605540195511763  0.519652520765682  0.08601481200477686  1.0000
  O   O18       1.0  0.3070026878811376  0.3243163381887301  0.09216157601094478  1.0000
  O   O19       1.0  0.44918684147744153  0.43279169972894505  0.1758060610297463  1.0000
  O   O20       1.0  0.07073897368757537  0.6663976328261542  0.0902744727640226  1.0000
  O   O21       1.0  0.9620314276599726  0.563442534638732  0.08853467300346565  1.0000
  O   O22       1.0  0.9313628421618603  0.5238024938416361  0.9047963807127815  1.0000
  O   O23       1.0  0.8249360084011103  0.42205950694734923  0.9069264518126375  1.0000
  O   O24       1.0  0.07312748651523293  0.4905633124929382  0.913031957538749  1.0000
  O   O25       1.0  0.9613128664943389  0.38391403272005686  0.9046313049421713  1.0000
  O   O26       1.0  0.5877818571786192  0.42232587359065127  0.4989040729136248  1.0000
