data_image0
_chemical_formula_structural       U4H24C32O30
_chemical_formula_sum              "U4 H24 C32 O30"
_cell_length_a       8.675824020460722
_cell_length_b       10.592425521519566
_cell_length_c       14.188672876610276
_cell_angle_alpha    71.14033602516876
_cell_angle_beta     72.54690591632962
_cell_angle_gamma    65.04663037874124

_space_group_name_H-M_alt    "P 1"
_space_group_IT_number       1

loop_
  _space_group_symop_operation_xyz
  'x, y, z'

loop_
  _atom_site_type_symbol
  _atom_site_label
  _atom_site_symmetry_multiplicity
  _atom_site_fract_x
  _atom_site_fract_y
  _atom_site_fract_z
  _atom_site_occupancy
  U   U1        1.0  0.4008590929924124  0.27350477421148867  0.042890408081476004  1.0000
  U   U2        1.0  0.5991237161962318  0.7264967767663179  0.9571115150700392  1.0000
  U   U3        1.0  0.1402402034865631  0.2148012075580183  0.5020936128521214  1.0000
  U   U4        1.0  0.8597829215419708  0.785199300150168  0.497902517644512  1.0000
  H   H1        1.0  0.08812740546326131  0.22145754133526194  0.225093757704002  1.0000
  H   H2        1.0  0.9118562750177333  0.7785418575246084  0.7749092105711242  1.0000
  H   H3        1.0  0.08403849416501429  0.3815210815923678  0.2028918145251453  1.0000
  H   H4        1.0  0.9159530526732377  0.6184738301734072  0.7971135653843858  1.0000
  H   H5        1.0  0.3012335780463431  0.21197342692963148  0.2850683163988705  1.0000
  H   H6        1.0  0.6987645057263592  0.7880172037510461  0.7149312144212914  1.0000
  H   H7        1.0  0.45943445586886617  0.2062038599498237  0.3220520265531234  1.0000
  H   H8        1.0  0.5405645600883774  0.7937963834689794  0.6779394547104971  1.0000
  H   H9        1.0  0.15709373900738652  0.9521202499853133  0.4358976572287289  1.0000
  H   H10       1.0  0.8429152807868263  0.047876309143717294  0.5641055219481146  1.0000
  H   H11       1.0  0.3456501206071395  0.9565163667819261  0.414229064919887  1.0000
  H   H12       1.0  0.6543615040409847  0.04347375059997201  0.5857765430375892  1.0000
  H   H13       1.0  0.9930135647159092  0.27756656566696586  0.9682672817036958  1.0000
  H   H14       1.0  0.006969856216990371  0.7224275070526929  0.03173908939285034  1.0000
  H   H15       1.0  0.22556934462602382  0.044377332460321404  0.9464569576109128  1.0000
  H   H16       1.0  0.7744194257717963  0.9556304159484341  0.05354242142986006  1.0000
  H   H17       1.0  0.21437499971169427  0.9184095135124365  0.8289866156579251  1.0000
  H   H18       1.0  0.7856362998831941  0.08159030576324261  0.17100833474086127  1.0000
  H   H19       1.0  0.34963605444898604  0.19256188943418104  0.7503978703479248  1.0000
  H   H20       1.0  0.650358038417913  0.8074565197990964  0.2495874703036165  1.0000
  H   H21       1.0  0.28933206362293623  0.4231175217082351  0.620295239636647  1.0000
  H   H22       1.0  0.7106873956265646  0.5768980039742003  0.3796924316872108  1.0000
  H   H23       1.0  0.49632694676056827  0.5519239499305043  0.5665053452597846  1.0000
  H   H24       1.0  0.5037009815673201  0.4480796250063577  0.4334884790533025  1.0000
  C   C1        1.0  0.8467624006319242  0.2128124781475336  0.7963702503981195  1.0000
  C   C2        1.0  0.15322129128898607  0.7871689216337856  0.2036376121530736  1.0000
  C   C3        1.0  0.8514035955795267  0.27973400226015593  0.8660698321325954  1.0000
  C   C4        1.0  0.14860406772250206  0.7202628066978745  0.13392296654987484  1.0000
  C   C5        1.0  0.9909331180888333  0.22184519698844696  0.916539873915056  1.0000
  C   C6        1.0  0.009049494713622132  0.7781509256024675  0.08347039818929149  1.0000
  C   C7        1.0  0.12125481765334462  0.09174649441644078  0.9038179179670607  1.0000
  C   C8        1.0  0.8787391961280308  0.9082662965432676  0.09618495730992284  1.0000
  C   C9        1.0  0.11464258979619052  0.021248048137493897  0.838479405759216  1.0000
  C   C10       1.0  0.8853536699630593  0.978756194292792  0.16152645519045458  1.0000
  C   C11       1.0  0.9818535329620843  0.08308126404866563  0.7827454782543768  1.0000
  C   C12       1.0  0.01815281881631849  0.9169218390741775  0.21725032601042218  1.0000
  C   C13       1.0  0.7041939819284978  0.40514885458650696  0.898409321347735  1.0000
  C   C14       1.0  0.29579454028760926  0.5948386272880554  0.10160328135336273  1.0000
  C   C15       1.0  0.9907243953377362  0.007998676300836399  0.7072626303132736  1.0000
  C   C16       1.0  0.009254919511327779  0.9920176151245244  0.2927442588792886  1.0000
  C   C17       1.0  0.6979619531879493  0.2711344680840355  0.7436248656261668  1.0000
  C   C18       1.0  0.30203876911439664  0.7288676468947201  0.25637573264957325  1.0000
  C   C19       1.0  0.578827365488138  0.201045099053573  0.774517485177725  1.0000
  C   C20       1.0  0.42118021653219273  0.7989549000490398  0.22547388075578573  1.0000
  C   C21       1.0  0.43688047638656263  0.25148918773948736  0.7271981429076106  1.0000
  C   C22       1.0  0.5631183768602169  0.7485235533376481  0.2728003259837876  1.0000
  C   C23       1.0  0.40390464650251806  0.37996342850470904  0.6541283467272194  1.0000
  C   C24       1.0  0.5961061045835478  0.6200407080978607  0.345862175295089  1.0000
  C   C25       1.0  0.5188030570093362  0.45225259725108186  0.6241993411796543  1.0000
  C   C26       1.0  0.48120203745775575  0.5477536537119859  0.3757987816458339  1.0000
  C   C27       1.0  0.670273128967139  0.3945666314417409  0.6642879362504814  1.0000
  C   C28       1.0  0.329737021741046  0.605430043024988  0.33570795866570075  1.0000
  C   C29       1.0  0.5958626397723421  0.0774100138206961  0.8650075565752147  1.0000
  C   C30       1.0  0.40411594844857757  0.9225959612776077  0.13498988668556683  1.0000
  C   C31       1.0  0.804971222539038  0.460154433264087  0.6128992329992755  1.0000
  C   C32       1.0  0.19506118857437837  0.539838176589754  0.3871097091946893  1.0000
  O   O1        1.0  0.24275469165271352  0.3185385007026653  0.9675822372081484  1.0000
  O   O2        1.0  0.7572353631258083  0.6814660560458632  0.03241694304253431  1.0000
  O   O3        1.0  0.5539042274552557  0.2357535402636585  0.12020320879459945  1.0000
  O   O4        1.0  0.44608898075953374  0.7642371987262632  0.879797902050342  1.0000
  O   O5        1.0  0.9790980615171704  0.29544138854317487  0.42325315700271204  1.0000
  O   O6        1.0  0.020910418717818385  0.7045625319906604  0.5767512269507123  1.0000
  O   O7        1.0  0.3045137658940007  0.13369784500373066  0.5793430377415874  1.0000
  O   O8        1.0  0.6955058944281873  0.8662932574909661  0.4206545131268553  1.0000
  O   O9        1.0  0.5496245508764162  0.4070238629076357  0.9167851064802336  1.0000
  O   O10       1.0  0.45035436915115673  0.5929842627929601  0.08320966011788761  1.0000
  O   O11       1.0  0.7415241292029506  0.5020528080666367  0.9106572741034711  1.0000
  O   O12       1.0  0.25845695544726516  0.4979530179337032  0.08934397198122207  1.0000
  O   O13       1.0  0.9678481024753369  0.08795391552325071  0.6161421511476206  1.0000
  O   O14       1.0  0.032172887269652596  0.9120369809624476  0.3838636604445895  1.0000
  O   O15       1.0  0.020707925553970996  0.8773918036001618  0.730622146587777  1.0000
  O   O16       1.0  0.979269721459282  0.12260457336667939  0.2693826396393391  1.0000
  O   O17       1.0  0.5877734996705755  0.1023546853674233  0.9493216030636515  1.0000
  O   O18       1.0  0.4122154333641746  0.8976436240675767  0.05067571491219517  1.0000
  O   O19       1.0  0.6160143794696679  0.9570514164596345  0.8546392242324928  1.0000
  O   O20       1.0  0.383975702451778  0.04295003778430839  0.1453571492259442  1.0000
  O   O21       1.0  0.9650111724376768  0.37802589434365785  0.6031053557877045  1.0000
  O   O22       1.0  0.035017683738111295  0.6219574563633756  0.3968979408760588  1.0000
  O   O23       1.0  0.7542681089982821  0.5943391494222041  0.5768681228222617  1.0000
  O   O24       1.0  0.24575433437068026  0.4056570862947383  0.4231319478192858  1.0000
  O   O25       1.0  0.16134052283474895  0.28338336970595174  0.20095345785687607  1.0000
  O   O26       1.0  0.838649667437778  0.7166148505734  0.7990464681211265  1.0000
  O   O27       1.0  0.3645768534144694  0.17088500957446232  0.3426584226403051  1.0000
  O   O28       1.0  0.6354206095173112  0.8291161726556027  0.657340880207464  1.0000
  O   O29       1.0  0.23531101002308918  0.9744117740351753  0.46216051754690574  1.0000
  O   O30       1.0  0.7646976418719548  0.0255826929182348  0.5378425119317924  1.0000
