data_image0
_chemical_formula_structural       Ag4H40C48N16Cl4O16F16
_chemical_formula_sum              "Ag4 H40 C48 N16 Cl4 O16 F16"
_cell_length_a       6.435963477
_cell_length_b       14.787994705104703
_cell_length_c       16.1283
_cell_angle_alpha    90.0
_cell_angle_beta     90.0
_cell_angle_gamma    101.44933809050052

_space_group_name_H-M_alt    "P 1"
_space_group_IT_number       1

loop_
  _space_group_symop_operation_xyz
  'x, y, z'

loop_
  _atom_site_type_symbol
  _atom_site_label
  _atom_site_symmetry_multiplicity
  _atom_site_fract_x
  _atom_site_fract_y
  _atom_site_fract_z
  _atom_site_occupancy
  Ag  Ag1       1.0  0.48710508205056147  0.4173144593830926  0.3578982285795789  1.0000
  Ag  Ag2       1.0  0.5128950878373644  0.0826875217159539  0.8579038088329227  1.0000
  Ag  Ag3       1.0  0.5129044912094756  0.582688122907264  0.6420986712796761  1.0000
  Ag  Ag4       1.0  0.4871085850343916  0.9173157505282674  0.142101151392275  1.0000
  H   H1        1.0  0.13392302263543598  0.4290650637666218  0.460687735223182  1.0000
  H   H2        1.0  0.8660765375457089  0.0709389871940402  0.960693935504672  1.0000
  H   H3        1.0  0.8660911922633829  0.5709340687543758  0.5393073045516275  1.0000
  H   H4        1.0  0.13392495218236888  0.9290629051424446  0.0393110247205257  1.0000
  H   H5        1.0  0.8582777990431223  0.402054059655832  0.4649640693687473  1.0000
  H   H6        1.0  0.14171926330696039  0.0979479214432146  0.964969029593945  1.0000
  H   H7        1.0  0.14172148787330485  0.5979430030035502  0.5350334505186538  1.0000
  H   H8        1.0  0.8582844095647885  0.9020553508010067  0.0350359306312527  1.0000
  H   H9        1.0  0.31102707144798797  0.4258271102482212  0.1882287655859542  1.0000
  H   H10       1.0  0.688965958970101  0.074176250758569  0.6882355858955975  1.0000
  H   H11       1.0  0.6889753426742471  0.57417340218052  0.8117650341325486  1.0000
  H   H12       1.0  0.3110280569327912  0.9258228817624286  0.3117718544421919  1.0000
  H   H13       1.0  0.6311932522582138  0.3574720003025149  0.1992001636874292  1.0000
  H   H14       1.0  0.3688009779054653  0.1425237712116925  0.6992051239126269  1.0000
  H   H15       1.0  0.3688113450076926  0.6425298920339699  0.8007948760873729  1.0000
  H   H16       1.0  0.6311933526848108  0.8574760512631769  0.3007979762281181  1.0000
  H   H17       1.0  0.23972886405864097  0.4070044786830067  0.8030220171995808  1.0000
  H   H18       1.0  0.7602647760662364  0.0929968124621681  0.3030244973121796  1.0000
  H   H19       1.0  0.7602611199122647  0.5929960337457345  0.196974262631521  1.0000
  H   H20       1.0  0.23973673332981343  0.9070085296436687  0.6969761227159736  1.0000
  H   H21       1.0  0.07186006364353398  0.4053292706832892  0.7150902450971302  1.0000
  H   H22       1.0  0.9281341861881243  0.0946699506002773  0.2150939652660213  1.0000
  H   H23       1.0  0.9281317887836664  0.5946719316993239  0.2849047946776793  1.0000
  H   H24       1.0  0.07186793291470647  0.9053333216439512  0.7849072747902781  1.0000
  H   H25       1.0  0.14386460600478296  0.3018382598373748  0.748890459626864  1.0000
  H   H26       1.0  0.8561380420462186  0.1981623413539282  0.24889541985206168  1.0000
  H   H27       1.0  0.8561331468107054  0.6981622525913664  0.2511033400916389  1.0000
  H   H28       1.0  0.14387123619441408  0.8018430007519086  0.7511064402323839  1.0000
  H   H29       1.0  0.5891996968290412  0.2953078464447287  0.8247521437473253  1.0000
  H   H30       1.0  0.4107948480220215  0.2046886150233505  0.3247564839443697  1.0000
  H   H31       1.0  0.4107989803806048  0.7046912860762689  0.1752472362245214  1.0000
  H   H32       1.0  0.5892053632885704  0.7953070677282952  0.6752472362245214  1.0000
  H   H33       1.0  0.7261965445478679  0.2775035867936779  0.7319810519397547  1.0000
  H   H34       1.0  0.2737980003031879  0.2224928746744013  0.231987252221252  1.0000
  H   H35       1.0  0.27378502153571554  0.7224920959579606  0.2680164679476462  1.0000
  H   H36       1.0  0.7262121629956582  0.7775041879849809  0.7680170879757924  1.0000
  H   H37       1.0  0.6639717581282127  0.3867764110817831  0.75159316232957  1.0000
  H   H38       1.0  0.3360249698665213  0.1132214302940326  0.2515968824984682  1.0000
  H   H39       1.0  0.3360135448679671  0.6132206515775991  0.24840559761413064  1.0000
  H   H40       1.0  0.6639774245877419  0.8867756323653495  0.7484080777267295  1.0000
  C   C1        1.0  0.9857667021596724  0.4069030554639141  0.3477489878040458  1.0000
  C   C2        1.0  0.014227862359362594  0.093096855773517  0.8477489878040458  1.0000
  C   C3        1.0  0.014239743894556471  0.5930960770570834  0.6522584525337436  1.0000
  C   C4        1.0  0.9857717589124206  0.9069043466090889  0.1522528722803997  1.0000
  C   C5        1.0  0.16046477855253014  0.4121618838715975  0.221169621100799  1.0000
  C   C6        1.0  0.8395366500849092  0.0878428570429364  0.7211739612978432  1.0000
  C   C7        1.0  0.8395348427192528  0.5878393185110156  0.778824178617711  1.0000
  C   C8        1.0  0.16046328587425046  0.9121590352935485  0.2788297588710549  1.0000
  C   C9        1.0  0.9693880895842214  0.3904925026330588  0.1773708326358019  1.0000
  C   C10       1.0  0.030602738022224688  0.10950602869663581  0.6773782729735913  1.0000
  C   C11       1.0  0.030614934244795198  0.609505939934067  0.8226223470545548  1.0000
  C   C12       1.0  0.9693884653622431  0.8904903440088745  0.3226279273078987  1.0000
  C   C13       1.0  0.7873498016613778  0.3780167567307018  0.2270375675055618  1.0000
  C   C14       1.0  0.21264320908873904  0.12198315450673651  0.7270381875337151  1.0000
  C   C15       1.0  0.21264608269780888  0.6219830657441676  0.7729605724099855  1.0000
  C   C16       1.0  0.7873542290393728  0.8780166679681329  0.2729618124662849  1.0000
  C   C17       1.0  0.9583449818233729  0.3813071467433318  0.0869787888370155  1.0000
  C   C18       1.0  0.04165674183347079  0.1186948343557219  0.5869825090059066  1.0000
  C   C19       1.0  0.04165991046194509  0.6186919857776658  0.9130187310503928  1.0000
  C   C20       1.0  0.9583465966829292  0.8813042981652757  0.4130199711066851  1.0000
  C   C21       1.0  0.10499512959863468  0.3437391584464962  0.0405120192456749  1.0000
  C   C22       1.0  0.8949991202330237  0.1562600628370703  0.540518219527165  1.0000
  C   C23       1.0  0.8950007350925873  0.6562572142590142  0.9594780603039368  1.0000
  C   C24       1.0  0.10499955697662235  0.8437390696839273  0.4594855006417262  1.0000
  C   C25       1.0  0.09269132520497438  0.3339597522735076  0.9550448590365974  1.0000
  C   C26       1.0  0.9073072712460541  0.166038779056187  0.4550467191210501  1.0000
  C   C27       1.0  0.9073064079425349  0.6660373103858745  0.0449526608508037  1.0000
  C   C28       1.0  0.09269669664509908  0.8339617333725542  0.5449545209352493  1.0000
  C   C29       1.0  0.930874366960353  0.3615247893430222  0.9078904782277135  1.0000
  C   C30       1.0  0.0691211219528398  0.13847374198667242  0.4078966785092035  1.0000
  C   C31       1.0  0.06911778048624478  0.6384736532241035  0.0921033214907965  1.0000
  C   C32       1.0  0.9308787943383477  0.8615247005804534  0.5921076616878409  1.0000
  C   C33       1.0  0.7842274736118284  0.3997323648786235  0.9548359095502903  1.0000
  C   C34       1.0  0.21577019844503545  0.1002675463588076  0.4548414898036341  1.0000
  C   C35       1.0  0.21577183297257105  0.6002681475501177  0.045162230365257  1.0000
  C   C36       1.0  0.7842256662461791  0.8997288263467027  0.5451616103371109  1.0000
  C   C37       1.0  0.7974545117571238  0.4084733904751801  0.0401691436791225  1.0000
  C   C38       1.0  0.2025353914551573  0.0915265207622511  0.5401772040450652  1.0000
  C   C39       1.0  0.2025394844777963  0.5915222922764585  0.9598227959549348  1.0000
  C   C40       1.0  0.7974567559914404  0.9084719218048748  0.4598289962364319  1.0000
  C   C41       1.0  0.10301521506696076  0.3666138890983461  0.7704413980394733  1.0000
  C   C42       1.0  0.8969802738462319  0.1333846422313485  0.2704463582646639  1.0000
  C   C43       1.0  0.8969788008359386  0.6333852434226515  0.2295530217071828  1.0000
  C   C44       1.0  0.10302184525659899  0.8666186300128801  0.729556121847935  1.0000
  C   C45       1.0  0.7130136415515479  0.3273582736321075  0.7813489332415671  1.0000
  C   C46       1.0  0.2869824570684257  0.1726381878359717  0.2813538934667648  1.0000
  C   C47       1.0  0.28698037435134427  0.6726408588888901  0.2186479666176879  1.0000
  C   C48       1.0  0.7130214911547483  0.8273588748234175  0.7186510667584329  1.0000
  N   N1        1.0  0.7927810304597855  0.38949551928890713  0.3093983866867589  1.0000
  N   N2        1.0  0.2072113509155784  0.1105030120407804  0.8094070670808478  1.0000
  N   N3        1.0  0.20722480588766246  0.6105056830937059  0.6905947930036049  1.0000
  N   N4        1.0  0.7927854775057452  0.8894988802956973  0.1905991332006494  1.0000
  N   N5        1.0  0.9930582250273332  0.4137701663457918  0.4300304433821296  1.0000
  N   N6        1.0  0.006942259547962205  0.08623250470712661  0.9300403638325179  1.0000
  N   N7        1.0  0.00695225295888947  0.5862275862674622  0.5699534358859921  1.0000
  N   N8        1.0  0.9930620426985468  0.9137721474448455  0.0699670765052716  1.0000
  N   N9        1.0  0.1710896667735682  0.4171054033600612  0.304168449247598  1.0000
  N   N10       1.0  0.8289092640328093  0.0828972676928572  0.8041765096135336  1.0000
  N   N11       1.0  0.8289189624243319  0.58289510906868  0.695822250330167  1.0000
  N   N12       1.0  0.17109254038264501  0.9171053145974994  0.1958309307242558  1.0000
  N   N13       1.0  0.9162942124331008  0.3520586222276378  0.8233738211714794  1.0000
  N   N14       1.0  0.0837024958936539  0.1479357693788259  0.3233775413403777  1.0000
  N   N15       1.0  0.08370009848919578  0.6479377504778725  0.1766230786877756  1.0000
  N   N16       1.0  0.9162996035412049  0.8520640530960435  0.6766236987159218  1.0000
  Cl  Cl1       1.0  0.5481616323051668  0.63887520637725  0.4377163123205818  1.0000
  Cl  Cl2       1.0  0.45185236833285797  0.8611272871505378  0.9377218925739257  1.0000
  Cl  Cl3       1.0  0.45184111617242445  0.361129445774715  0.562283067651272  1.0000
  Cl  Cl4       1.0  0.5481590733834735  0.1388759850936907  0.0622843077075714  1.0000
  O   O1        1.0  0.6695407026793345  0.5635819203009121  0.4320021328968338  1.0000
  O   O2        1.0  0.3304885602964305  0.9364267828117221  0.9320188736568653  1.0000
  O   O3        1.0  0.33046422894192756  0.4364241117588037  0.5679947669624212  1.0000
  O   O4        1.0  0.6695328530761343  0.063581319109602  0.0679984871313124  1.0000
  O   O5        1.0  0.5988912632388121  0.6856975459509513  0.5176274002839705  1.0000
  O   O6        1.0  0.4011174270497334  0.8143001178997409  0.0176317404810149  1.0000
  O   O7        1.0  0.40110961678248447  0.3143064162471489  0.4823701196034307  1.0000
  O   O8        1.0  0.5988946243733793  0.1857010844828721  0.9823732197441757  1.0000
  O   O9        1.0  0.32151627110770414  0.5988330434976348  0.4339217400469977  1.0000
  O   O10       1.0  0.678494897343917  0.9011632404453067  0.9339267002721954  1.0000
  O   O11       1.0  0.6784833501640788  0.4011681588849711  0.5660776399248562  1.0000
  O   O12       1.0  0.3215146759161199  0.0988393418450428  0.0660807400656012  1.0000
  O   O13       1.0  0.6079878329368852  0.7031720076514816  0.3703713348586035  1.0000
  O   O14       1.0  0.39200724712271295  0.7968366954611527  0.8703731949430491  1.0000
  O   O15       1.0  0.3920102542339592  0.2968326445004905  0.6296268050569509  1.0000
  O   O16       1.0  0.6079939672539324  0.2031714064601786  0.1296305252258421  1.0000
  F   F1        1.0  0.2589983910706977  0.3096554372001492  0.0804182709895045  1.0000
  F   F2        1.0  0.7409930659105086  0.1903444740372819  0.5804195110458039  1.0000
  F   F3        1.0  0.740990019463311  0.6903416254592329  0.9195767687853049  1.0000
  F   F4        1.0  0.2590090335243501  0.8096553484375875  0.4195817290104955  1.0000
  F   F5        1.0  0.23453593183992885  0.2911915816480573  0.9165882331057844  1.0000
  F   F6        1.0  0.7654654574615589  0.2088062597277656  0.4165907132183833  1.0000
  F   F7        1.0  0.7654633550764984  0.7088054810113249  0.0834061866408717  1.0000
  F   F8        1.0  0.23454254236158784  0.791192872793232  0.5834117668942156  1.0000
  F   F9        1.0  0.630964691204177  0.4342438575252316  0.9148664149352399  1.0000
  F   F10       1.0  0.3690295586274814  0.0657553637583348  0.4148750953293288  1.0000
  F   F11       1.0  0.3690339860054692  0.5657552749957659  0.0851273847832701  1.0000
  F   F12       1.0  0.6309628838385207  0.9342403189933037  0.5851304849240151  1.0000
  F   F13       1.0  0.6541684402601432  0.4506633797564135  0.0785650068513135  1.0000
  F   F14       1.0  0.345836705621906  0.049339291296504904  0.5785712071328035  1.0000
  F   F15       1.0  0.34583395419411284  0.5493336829029687  0.9214300329234959  1.0000
  F   F16       1.0  0.6541672622692474  0.9506612211322363  0.4214312729797953  1.0000
