data_image0
_chemical_formula_structural       MnH20C20N2O6
_chemical_formula_sum              "Mn1 H20 C20 N2 O6"
_cell_length_a       5.508309238864365
_cell_length_b       7.908532163991111
_cell_length_c       10.842512793557583
_cell_angle_alpha    108.91930453944488
_cell_angle_beta     98.15026122890625
_cell_angle_gamma    96.7907063892244

_space_group_name_H-M_alt    "P 1"
_space_group_IT_number       1

loop_
  _space_group_symop_operation_xyz
  'x, y, z'

loop_
  _atom_site_type_symbol
  _atom_site_label
  _atom_site_symmetry_multiplicity
  _atom_site_fract_x
  _atom_site_fract_y
  _atom_site_fract_z
  _atom_site_occupancy
  Mn  Mn1       1.0  0.00014358060909807008  0.9995717584274927  0.9996844076056209  1.0000
  H   H1        1.0  0.2685048766441582  0.5829750713735181  0.2516665706913842  1.0000
  H   H2        1.0  0.7319527260477016  0.4170167110968776  0.7483651673065952  1.0000
  H   H3        1.0  0.5090922698967048  0.6858474094526983  0.1915766912320863  1.0000
  H   H4        1.0  0.4915184509448737  0.3142223432045697  0.8083930778573606  1.0000
  H   H5        1.0  0.09026703631172951  0.7986410636871  0.4421764044127131  1.0000
  H   H6        1.0  0.9098878367554519  0.20148780833046936  0.5577809489945198  1.0000
  H   H7        1.0  0.7841038942193208  0.9594059840348093  0.33797815864806324  1.0000
  H   H8        1.0  0.21584958570728924  0.04063169210873239  0.6619810136806169  1.0000
  H   H9        1.0  0.6828969877882328  0.277712197479616  0.11407349414860593  1.0000
  H   H10       1.0  0.31804826026092303  0.7235698842779144  0.8856407951763148  1.0000
  H   H11       1.0  0.6669818587850571  0.4917561270273509  0.3304550006634558  1.0000
  H   H12       1.0  0.33334975134927447  0.5094860108384438  0.669435561779274  1.0000
  H   H13       1.0  0.354181736860788  0.34951895306107156  0.48505858773760496  1.0000
  H   H14       1.0  0.6442788873554903  0.6496160106170308  0.5154202931118804  1.0000
  H   H15       1.0  0.34534008686115675  0.1454690869469744  0.26113314736745963  1.0000
  H   H16       1.0  0.6533064827478867  0.8535707461546379  0.7392696790442913  1.0000
  H   H17       1.0  0.5598483136766744  0.9074307153343353  0.06786777704906648  1.0000
  H   H18       1.0  0.4405928375023649  0.09227319033626458  0.9321678719373171  1.0000
  H   H19       1.0  0.7615905312039573  0.7705464889928137  0.06298443511980881  1.0000
  H   H20       1.0  0.23872675607780985  0.2289549223691907  0.9368240127665219  1.0000
  C   C1        1.0  0.14594509314852636  0.7553131871147086  0.15014825897297612  1.0000
  C   C2        1.0  0.8542158195766091  0.24432876558618227  0.8496935145386078  1.0000
  C   C3        1.0  0.3475382127072351  0.709309221236886  0.23949560815155024  1.0000
  C   C4        1.0  0.6528871848525668  0.29063533576702116  0.7604583385909794  1.0000
  C   C5        1.0  0.4275614592616462  0.8598713363625591  0.37376546448923886  1.0000
  C   C6        1.0  0.5725308647368479  0.14020995579334536  0.6261873705898469  1.0000
  C   C7        1.0  0.2712138471513583  0.8862323350106465  0.4672585237703333  1.0000
  C   C8        1.0  0.7289854130644285  0.11379859215860222  0.5327369378267408  1.0000
  C   C9        1.0  0.6576716400553905  0.9768411244183354  0.4083191377002323  1.0000
  C   C10       1.0  0.3424382937396402  0.023177544949433596  0.591689867383238  1.0000
  C   C11       1.0  0.8282280782324847  0.29601109467717623  0.19848952775834058  1.0000
  C   C12       1.0  0.1723266222886792  0.7049072297323563  0.8013888915841821  1.0000
  C   C13       1.0  0.8206512299539951  0.4167291831439428  0.3223008346694059  1.0000
  C   C14       1.0  0.17930959820233738  0.5840327878706475  0.6776475369058306  1.0000
  C   C15       1.0  0.005066939385592685  0.4405365122899596  0.4334783993643968  1.0000
  C   C16       1.0  0.9943227349105894  0.5597486632608124  0.5666168044456514  1.0000
  C   C17       1.0  0.199456265205491  0.3405688825428256  0.4073344807934448  1.0000
  C   C18       1.0  0.7995268717571946  0.6591563863984361  0.5930069751057945  1.0000
  C   C19       1.0  0.19664775710036508  0.22333282959277057  0.2807136628524774  1.0000
  C   C20       1.0  0.8024456370264443  0.7762748863139703  0.7196054869124212  1.0000
  N   N1        1.0  0.010298400551342011  0.19431861558413036  0.17525283309719705  1.0000
  N   N2        1.0  0.9895492727265277  0.8059766195093943  0.8249611695835741  1.0000
  O   O1        1.0  0.2183019266048659  0.8715313987693417  0.09601221405382888  1.0000
  O   O2        1.0  0.7819060704984223  0.12821518079932298  0.9039465074188944  1.0000
  O   O3        1.0  0.9215206460417562  0.6843014759008881  0.13686118043562354  1.0000
  O   O4        1.0  0.07858032712930907  0.31516608236988464  0.8627203510229083  1.0000
  O   O5        1.0  0.6832414353679964  0.8538193065987513  0.016560114855920415  1.0000
  O   O6        1.0  0.3171573509420682  0.1459511799792708  0.9834184101568726  1.0000
