data_image0
_chemical_formula_structural       Li4H28C16O24
_chemical_formula_sum              "Li4 H28 C16 O24"
_cell_length_a       5.830761833336507
_cell_length_b       5.95923647111255
_cell_length_c       18.70976879909164
_cell_angle_alpha    90.00043007762939
_cell_angle_beta     90.63992601825845
_cell_angle_gamma    90.00054018397495

_space_group_name_H-M_alt    "P 1"
_space_group_IT_number       1

loop_
  _space_group_symop_operation_xyz
  'x, y, z'

loop_
  _atom_site_type_symbol
  _atom_site_label
  _atom_site_symmetry_multiplicity
  _atom_site_fract_x
  _atom_site_fract_y
  _atom_site_fract_z
  _atom_site_occupancy
  Li  Li1       1.0  0.791818217836159  0.39187586889224935  0.2755465490169868  1.0000
  Li  Li2       1.0  0.7081982130190667  0.8918684525832385  0.22445412874113663  1.0000
  Li  Li3       1.0  0.20818917414322163  0.6081331413258935  0.7244511504300846  1.0000
  Li  Li4       1.0  0.29180400177488514  0.10813552343007156  0.7755451461770448  1.0000
  H   H1        1.0  0.9264430978701199  0.24700888922460945  0.4091833843701238  1.0000
  H   H2        1.0  0.573542634517672  0.7470036840587821  0.09081947632982688  1.0000
  H   H3        1.0  0.0735642410207618  0.7529866964880082  0.5908169872267095  1.0000
  H   H4        1.0  0.42644241840081787  0.25297847701023096  0.9091802402557363  1.0000
  H   H5        1.0  0.013335499301490502  0.23932424712848632  0.5310030331096272  1.0000
  H   H6        1.0  0.48666919859869745  0.739318634252427  0.9689994981618356  1.0000
  H   H7        1.0  0.9866803940216754  0.7606830851064784  0.4689984537370363  1.0000
  H   H8        1.0  0.513324429951261  0.2606735952583819  0.0310002648055914  1.0000
  H   H9        1.0  0.5414911728057774  0.2395083024900727  0.1694984280639318  1.0000
  H   H10       1.0  0.9585151170336702  0.7395241638461412  0.3305018546167132  1.0000
  H   H11       1.0  0.4585144934106467  0.7604923173904936  0.830499796532493  1.0000
  H   H12       1.0  0.0414888341098987  0.2604848463634751  0.6694963607152431  1.0000
  H   H13       1.0  0.8026591519847699  0.2350471914759068  0.1482386124723973  1.0000
  H   H14       1.0  0.6973505222403417  0.7350613128442871  0.3517616785439586  1.0000
  H   H15       1.0  0.19734478851179924  0.7649534284037071  0.8517601372829873  1.0000
  H   H16       1.0  0.3026568379359419  0.2649493754610218  0.648237624204107  1.0000
  H   H17       1.0  0.15505512927010298  0.2626462076026783  0.22679825825393612  1.0000
  H   H18       1.0  0.3449520487064248  0.762651263416792  0.2732049382742616  1.0000
  H   H19       1.0  0.8449436765170049  0.7373611245169084  0.7731999292538988  1.0000
  H   H20       1.0  0.6550501661133908  0.23735774679848728  0.7267943366496823  1.0000
  H   H21       1.0  0.24263943470340624  0.28523099809454766  0.305419175587069  1.0000
  H   H22       1.0  0.25738174914116024  0.7852098401134453  0.1945814746298566  1.0000
  H   H23       1.0  0.7573628225147858  0.7147746559596225  0.6945779616009347  1.0000
  H   H24       1.0  0.742620486791637  0.21478071134804108  0.8054167314069145  1.0000
  H   H25       1.0  0.400196456582222  0.24638685266140925  0.5002755847065146  1.0000
  H   H26       1.0  0.099794571736517  0.7463786432743401  0.9997279574001396  1.0000
  H   H27       1.0  0.5998108611698142  0.7536221576030399  0.49972585577172884  1.0000
  H   H28       1.0  0.9001939114483548  0.2536102300791043  0.0002717777412399996  1.0000
  C   C1        1.0  0.5566817497536504  0.25967499601635774  0.4078537213832334  1.0000
  C   C2        1.0  0.943314435197273  0.7596529009485309  0.0921476206324741  1.0000
  C   C3        1.0  0.44333936316193967  0.7403356923296653  0.5921440522582984  1.0000
  C   C4        1.0  0.056663725437076116  0.24032758204273105  0.9078536621539753  1.0000
  C   C5        1.0  0.7818061874715668  0.2494284902012679  0.44580814111272815  1.0000
  C   C6        1.0  0.7181863347732148  0.749416917066206  0.0541995721113295  1.0000
  C   C7        1.0  0.21819936209326582  0.7505704516847301  0.5541959622450535  1.0000
  C   C8        1.0  0.28179698181288865  0.2505635659411423  0.9458012040642955  1.0000
  C   C9        1.0  0.8320345800025989  0.24433665267919474  0.5163010770330345  1.0000
  C   C10       1.0  0.6679540299045996  0.7443353485151147  0.9837011935114504  1.0000
  C   C11       1.0  0.1679762103624753  0.7556656453046315  0.48369824425356717  1.0000
  C   C12       1.0  0.3320258564840941  0.255651846746396  0.0162995641237202  1.0000
  C   C13       1.0  0.6791896957548574  0.24373435288639902  0.5797379850843782  1.0000
  C   C14       1.0  0.8208040427236797  0.7437361521329533  0.9202648463403662  1.0000
  C   C15       1.0  0.32081757959017654  0.756276335471824  0.420265593127894  1.0000
  C   C16       1.0  0.17918616621552994  0.2562594334907472  0.07973436364974158  1.0000
  O   O1        1.0  0.5526114800697498  0.275100621603613  0.3412839379660966  1.0000
  O   O2        1.0  0.9473795907827097  0.7750785431770592  0.1587238247293854  1.0000
  O   O3        1.0  0.4473958483120555  0.7249134228561898  0.6587169680848817  1.0000
  O   O4        1.0  0.052605377304530486  0.2249036179448679  0.8412801673203845  1.0000
  O   O5        1.0  0.36426162387738975  0.253675513762623  0.443530600170007  1.0000
  O   O6        1.0  0.13573171967642136  0.7536582465018071  0.05647357047433129  1.0000
  O   O7        1.0  0.6357302472185822  0.7463318183729936  0.5564712912727359  1.0000
  O   O8        1.0  0.864256731645007  0.24632055846753784  0.9435277679546062  1.0000
  O   O9        1.0  0.45901057160519093  0.24245124366677825  0.5709956048435529  1.0000
  O   O10       1.0  0.04098728734896891  0.7424441165411931  0.9290074309198957  1.0000
  O   O11       1.0  0.5409950734896256  0.7575661569002676  0.42900368863812577  1.0000
  O   O12       1.0  0.9590045942905621  0.2575514691165353  0.0709939260763761  1.0000
  O   O13       1.0  0.772707197725005  0.24371370331116535  0.6406319826674505  1.0000
  O   O14       1.0  0.7272933797681278  0.7437098158666087  0.8593719546658392  1.0000
  O   O15       1.0  0.22729498534344117  0.7563070533952254  0.3593688955690126  1.0000
  O   O16       1.0  0.2727019745447876  0.256290803981777  0.14062728315222733  1.0000
  O   O17       1.0  0.6990952304513839  0.2158132514491483  0.1897787970026812  1.0000
  O   O18       1.0  0.8009176339373739  0.7158222033660874  0.31022360626599266  1.0000
  O   O19       1.0  0.3009087100451779  0.7841873684304584  0.8102199527526963  1.0000
  O   O20       1.0  0.19909312465046722  0.28418680690688086  0.6897773183273657  1.0000
  O   O21       1.0  0.10079915967786951  0.2773615643933169  0.2765631283346934  1.0000
  O   O22       1.0  0.39922021765125487  0.7773524268494324  0.22343802904364907  1.0000
  O   O23       1.0  0.8992099580041212  0.7226440896911366  0.723434045949581  1.0000
  O   O24       1.0  0.6007854379698756  0.22264987110506948  0.7765607299877217  1.0000
