data_image0
_chemical_formula_structural       Zn2H26C42N2O14
_chemical_formula_sum              "Zn2 H26 C42 N2 O14"
_cell_length_a       9.753490547047596
_cell_length_b       11.021216882148195
_cell_length_c       14.642659512825807
_cell_angle_alpha    90.03406235908977
_cell_angle_beta     103.75740641645113
_cell_angle_gamma    91.61563374378477

_space_group_name_H-M_alt    "P 1"
_space_group_IT_number       1

loop_
  _space_group_symop_operation_xyz
  'x, y, z'

loop_
  _atom_site_type_symbol
  _atom_site_label
  _atom_site_symmetry_multiplicity
  _atom_site_fract_x
  _atom_site_fract_y
  _atom_site_fract_z
  _atom_site_occupancy
  Zn  Zn1       1.0  0.14788706480767644  0.5140018967054799  0.49840880655443703  1.0000
  Zn  Zn2       1.0  0.8641443704043467  0.504095620357333  0.507266430767757  1.0000
  H   H1        1.0  0.7491113519936404  0.7411805089296164  0.924639009578506  1.0000
  H   H2        1.0  0.8336926666663798  0.0802319662883093  0.6761172529213013  1.0000
  H   H3        1.0  0.6974319992512575  0.0936560577244521  0.5715646185674359  1.0000
  H   H4        1.0  0.832252140534017  0.854477064423712  0.6507644028831265  1.0000
  H   H5        1.0  0.6975477127456812  0.8685959957035579  0.5453503153222883  1.0000
  H   H6        1.0  0.67192444718156  0.3550830696308225  0.5934979188792228  1.0000
  H   H7        1.0  0.3002579250299249  0.6445749157810781  0.3208378323267738  1.0000
  H   H8        1.0  0.30626916764686735  0.6218628651596205  0.7860042686345778  1.0000
  H   H9        1.0  0.34257647728455953  0.7555569793846004  0.4117734064421796  1.0000
  H   H10       1.0  0.5553703540680744  0.6465399615726356  0.308292322648903  1.0000
  H   H11       1.0  0.6019460659561416  0.7552450067941623  0.40148794011089  1.0000
  H   H12       1.0  0.9613739854019983  0.7067479594518103  0.049706737782024425  1.0000
  H   H13       1.0  0.07426542825123758  0.6192808041164567  0.2053304289440305  1.0000
  H   H14       1.0  0.6765810138900077  0.47043540181315535  0.2312424887575659  1.0000
  H   H15       1.0  0.4759747160125656  0.4604753139306085  0.18263434113807622  1.0000
  H   H16       1.0  0.8940100644029698  0.4166858679980194  0.9466631070515206  1.0000
  H   H17       1.0  0.2265900387808344  0.9894134601443056  0.3800363418698893  1.0000
  H   H18       1.0  0.17607318556025578  0.23473294211435566  0.4469992559656433  1.0000
  H   H19       1.0  0.3589617381748553  0.4667440989587845  0.715366787698855  1.0000
  H   H20       1.0  0.301923085747461  0.3191653666761098  0.8288988358891417  1.0000
  H   H21       1.0  0.3231266730904352  0.09691753859664227  0.803372482126619  1.0000
  H   H22       1.0  0.405395616520984  0.025284953676326407  0.6645058153418546  1.0000
  H   H23       1.0  0.4669407266078807  0.1742035262641011  0.5525302332835765  1.0000
  H   H24       1.0  0.8583311518249415  0.4960959769068935  0.7439266213896474  1.0000
  H   H25       1.0  0.2640200291409727  0.4021170859787588  0.192956606579358  1.0000
  H   H26       1.0  0.5605364263177605  0.7682923330397388  0.8199977807170953  1.0000
  C   C1        1.0  0.0068209316886936  0.742920894596523  0.4819120249832594  1.0000
  C   C2        1.0  0.6669042378877846  0.5696745523247202  0.1009380378205549  1.0000
  C   C3        1.0  0.7516043696902274  0.637532408372856  0.05040075044445305  1.0000
  C   C4        1.0  0.5168469120516903  0.5525635996120571  0.0601105400771615  1.0000
  C   C5        1.0  0.45378533032702967  0.5956980285555816  0.9686677495410836  1.0000
  C   C6        1.0  0.5435279002376632  0.6671767509227139  0.9229164505074792  1.0000
  C   C7        1.0  0.6854179370838905  0.6863511496592667  0.9623054597967952  1.0000
  C   C8        1.0  0.4291925763769555  0.4923725022152894  0.1118544577093132  1.0000
  C   C9        1.0  0.2864959400712905  0.4727541963318913  0.07753740701142682  1.0000
  C   C10       1.0  0.2188761431062076  0.5062064373268101  0.9830769407105038  1.0000
  C   C11       1.0  0.30534693860552403  0.5656274862748772  0.9274046928469843  1.0000
  C   C12       1.0  0.9426269599315306  0.4973053288392392  0.32291321558419384  1.0000
  C   C13       1.0  0.07420544185502818  0.47898904413361276  0.9417493542892998  1.0000
  C   C14       1.0  0.016556044246456694  0.5044979181951987  0.8468808319202381  1.0000
  C   C15       1.0  0.24386541628441452  0.583782326161213  0.8315245357111678  1.0000
  C   C16       1.0  0.9095853657863768  0.9342509895719501  0.5320095211576897  1.0000
  C   C17       1.0  0.0013215337215583952  0.8774589766133045  0.4857531004846365  1.0000
  C   C18       1.0  0.0916690004469132  0.9563824596171956  0.4500908554716858  1.0000
  C   C19       1.0  0.0907266797260604  0.0837232700421708  0.4635137689006044  1.0000
  C   C20       1.0  0.9994765836478618  0.1389457236824612  0.5121339177450679  1.0000
  C   C21       1.0  0.9085968773537301  0.0588477773018212  0.5452939697562655  1.0000
  C   C22       1.0  0.7978575118169005  0.0503390952812737  0.6024289472478657  1.0000
  C   C23       1.0  0.001425628501856098  0.2721721268824098  0.5224223867831697  1.0000
  C   C24       1.0  0.7979486907894112  0.9083106206397463  0.5866138520101813  1.0000
  C   C25       1.0  0.5574692368634261  0.5712511100803894  0.44845271730641667  1.0000
  C   C26       1.0  0.5982492595627492  0.41860075596246565  0.5527536322853379  1.0000
  C   C27       1.0  0.45757961858614493  0.41823731033290573  0.5611250522454867  1.0000
  C   C28       1.0  0.4176375470058957  0.572050493787458  0.45567323752292305  1.0000
  C   C29       1.0  0.3788190048761422  0.6724757652629592  0.3847947564860732  1.0000
  C   C30       1.0  0.538967072843718  0.6722343759606773  0.3773052793272313  1.0000
  C   C31       1.0  0.0516758475253241  0.5490810162486001  0.6867667730023683  1.0000
  C   C32       1.0  0.8788821662203788  0.5402006321430761  0.22627578642158852  1.0000
  C   C33       1.0  0.10406326725209421  0.5505756042007662  0.7904365628779431  1.0000
  C   C34       1.0  0.8984795434126978  0.6550866201862817  0.08953120851388259  1.0000
  C   C35       1.0  0.9614797646327701  0.6067673551759185  0.1753272161456039  1.0000
  C   C36       1.0  0.7347093600950529  0.5226258492266567  0.1889916211942904  1.0000
  C   C37       1.0  0.41624208742585006  0.3302686205014212  0.6265757134759724  1.0000
  C   C38       1.0  0.3694257362962361  0.37025157343546067  0.7044541321587374  1.0000
  C   C39       1.0  0.3369404656725905  0.2866035176319954  0.7680917270130365  1.0000
  C   C40       1.0  0.3496683297644196  0.1624189669475413  0.753977343576004  1.0000
  C   C41       1.0  0.39675087086285293  0.1221351611447119  0.6764756402948463  1.0000
  C   C42       1.0  0.4317264235533925  0.20560754244037582  0.6135747578727404  1.0000
  N   N1        1.0  0.6511816051472862  0.4962474557617611  0.4973885102354317  1.0000
  N   N2        1.0  0.36370366820248984  0.49900002328764265  0.5115495716651921  1.0000
  O   O1        1.0  0.1244791395926299  0.6965876150663705  0.4812659293790631  1.0000
  O   O2        1.0  0.8921506755453166  0.6842655716385977  0.4832792950963096  1.0000
  O   O3        1.0  0.07680016720789949  0.5044629770488385  0.3530119752848435  1.0000
  O   O4        1.0  0.8572968768627405  0.45990770458450203  0.3720504041190723  1.0000
  O   O5        1.0  0.10839601950137727  0.3302895288663095  0.5029934381104155  1.0000
  O   O6        1.0  0.9014697071105003  0.32346777704184865  0.5472597123962971  1.0000
  O   O7        1.0  0.1411658248240002  0.5510928660676272  0.636727585613329  1.0000
  O   O8        1.0  0.9165185728277693  0.5393839429325737  0.6530000972876095  1.0000
  O   O9        1.0  0.9873534985769085  0.42350505312197123  0.990283104612324  1.0000
  O   O10       1.0  0.18300450686878383  0.9156555756514281  0.39986143690388326  1.0000
  O   O11       1.0  0.1837867309953509  0.14837482895895696  0.4251005051888725  1.0000
  O   O12       1.0  0.8772009178219381  0.4752515216564888  0.8128449220771118  1.0000
  O   O13       1.0  0.20501902041367262  0.4186289500924758  0.13077802852538412  1.0000
  O   O14       1.0  0.48554822407211873  0.7206602039762944  0.8379703153611473  1.0000
