data_image0
_chemical_formula_structural       Zn2H28C44N6O12
_chemical_formula_sum              "Zn2 H28 C44 N6 O12"
_cell_length_a       9.722607555052699
_cell_length_b       10.872890581772799
_cell_length_c       19.25149316320417
_cell_angle_alpha    91.61342298726349
_cell_angle_beta     90.20242661610374
_cell_angle_gamma    94.54792788851395

_space_group_name_H-M_alt    "P 1"
_space_group_IT_number       1

loop_
  _space_group_symop_operation_xyz
  'x, y, z'

loop_
  _atom_site_type_symbol
  _atom_site_label
  _atom_site_symmetry_multiplicity
  _atom_site_fract_x
  _atom_site_fract_y
  _atom_site_fract_z
  _atom_site_occupancy
  Zn  Zn1       1.0  0.6381857438272859  0.5048825888356703  0.4990200933952594  1.0000
  Zn  Zn2       1.0  0.3467481944187226  0.5133095902144903  0.4941307780269  1.0000
  H   H1        1.0  0.7095854108953359  0.5705077161333635  0.2809285504559966  1.0000
  H   H2        1.0  0.32681210073152306  0.3731838075629527  0.7103190709629814  1.0000
  H   H3        1.0  0.3400300142408311  0.3453667451911784  0.8388464585433227  1.0000
  H   H4        1.0  0.2873531474526843  0.952334895158195  0.6114212691425323  1.0000
  H   H5        1.0  0.3384313985840421  0.7143212372073009  0.3299373038436784  1.0000
  H   H6        1.0  0.06552383543119329  0.47214300959871025  0.6718109206230523  1.0000
  H   H7        1.0  0.9975405457322565  0.3961985322050053  0.7877820915111045  1.0000
  H   H8        1.0  0.7771751187490565  0.26612057243282544  0.8020495682990969  1.0000
  H   H9        1.0  0.6252722186677105  0.2110836784343988  0.6988750874496716  1.0000
  H   H10       1.0  0.6898834216578678  0.28985561550585004  0.5837752017464055  1.0000
  H   H11       1.0  0.8585949332931122  0.6467303656240374  0.7683534298879948  1.0000
  H   H12       1.0  0.6287964304615129  0.939956695389263  0.5043617146162943  1.0000
  H   H13       1.0  0.005338015673558495  0.8281415858920269  0.7287905675310284  1.0000
  H   H14       1.0  0.902046935466927  0.9885456284023134  0.6591323395024133  1.0000
  H   H15       1.0  0.6518846236095258  0.96416132564255  0.6292340453353802  1.0000
  H   H16       1.0  0.5069946816328893  0.7800661432202104  0.6663496600986747  1.0000
  H   H17       1.0  0.6743805910707295  0.19444741286056197  0.3962674630583791  1.0000
  H   H18       1.0  0.731891591805713  0.2665683497022115  0.2776774403135748  1.0000
  H   H19       1.0  0.5616017102316633  0.22664028644414458  0.1811680093657628  1.0000
  H   H20       1.0  0.3320118403764241  0.11802919100352233  0.2044227864872568  1.0000
  H   H21       1.0  0.2748761234606434  0.0450927648975892  0.3228061430408502  1.0000
  H   H22       1.0  0.8907653755023548  0.491254965557154  0.4593662665048655  1.0000
  H   H23       1.0  0.1334119718460016  0.3747191510047827  0.5602484716591434  1.0000
  H   H24       1.0  0.0838108155678938  0.5995232192697911  0.4864334322151506  1.0000
  H   H25       1.0  0.7209239886338067  0.562015421383542  0.150695030756431  1.0000
  H   H26       1.0  0.293420227610568  0.424347817803479  0.1415522281293491  1.0000
  H   H27       1.0  0.2819485963253073  0.438687615027554  0.2715558961002174  1.0000
  H   H28       1.0  0.663947774249422  0.6386483900080434  0.8526932019525048  1.0000
  C   C1        1.0  0.5509210482327448  0.7442404833615869  0.4890762596375496  1.0000
  C   C2        1.0  0.5051771398569969  0.4888830682496419  0.8533520345700651  1.0000
  C   C3        1.0  0.4429858599264378  0.060695040814351786  0.43657896505581556  1.0000
  C   C4        1.0  0.4911799760918213  0.5026224242901947  0.3612647314981388  1.0000
  C   C5        1.0  0.4225594059070871  0.1287687113998288  0.49494891855431433  1.0000
  C   C6        1.0  0.4503660296394116  0.9257138058071634  0.44004763793446944  1.0000
  C   C7        1.0  0.5487426826910564  0.8789765920333963  0.4784778172771098  1.0000
  C   C8        1.0  0.9222119958205398  0.4369711944718801  0.5526348327036885  1.0000
  C   C9        1.0  0.07370794597203907  0.4465400911009778  0.5391648797380668  1.0000
  C   C10       1.0  0.4350732249360334  0.2680819997233214  0.4954803442169791  1.0000
  C   C11       1.0  0.4832160892597983  0.5204520866728471  0.6317843481208455  1.0000
  C   C12       1.0  0.49567290207986037  0.503709620642013  0.28356588445701186  1.0000
  C   C13       1.0  0.6190935954605051  0.5397284073317862  0.24966685611339298  1.0000
  C   C14       1.0  0.6254320141859254  0.5349340948358261  0.1776133811951013  1.0000
  C   C15       1.0  0.5084028360789503  0.49102690260194487  0.1383674216245652  1.0000
  C   C16       1.0  0.3836148549383013  0.45810304751910286  0.1723129285624481  1.0000
  C   C17       1.0  0.3772433800315723  0.46580810712849535  0.2444143412461202  1.0000
  C   C18       1.0  0.39200311540711397  0.07740801713337218  0.5645751823805226  1.0000
  C   C19       1.0  0.3465012718423708  0.8427032183026528  0.3990738041748898  1.0000
  C   C20       1.0  0.8800742162139698  0.3886665910341378  0.6201828172522994  1.0000
  C   C21       1.0  0.9684754885024205  0.4156133589714912  0.6778103442022214  1.0000
  C   C22       1.0  0.9303626188664254  0.3730082907904659  0.743059910302236  1.0000
  C   C23       1.0  0.5166979358083666  0.47348485720802813  0.928422937516821  1.0000
  C   C24       1.0  0.8065024829647528  0.30004149101759475  0.7509628918461715  1.0000
  C   C25       1.0  0.7208226904736463  0.2694451931194237  0.6935735110133764  1.0000
  C   C26       1.0  0.7565264951268063  0.314118861245518  0.6284584089235493  1.0000
  C   C27       1.0  0.6726277872478902  0.7008898116955109  0.7203368883856172  1.0000
  C   C28       1.0  0.813519657535835  0.7161627414868051  0.7375215015008436  1.0000
  C   C29       1.0  0.8959655512760347  0.8180998909788285  0.7149493352613945  1.0000
  C   C30       1.0  0.8385203341253841  0.9075566719398223  0.6757448636680223  1.0000
  C   C31       1.0  0.6983433986962524  0.8933761128851003  0.65842650793617  1.0000
  C   C32       1.0  0.6165273276916279  0.7903450778053976  0.6798923295339137  1.0000
  C   C33       1.0  0.4718516186061946  0.11393405026387168  0.3671077586239306  1.0000
  C   C34       1.0  0.5175651955467302  0.4758664360781212  0.0626829968790332  1.0000
  C   C35       1.0  0.600183008233337  0.1770196185374857  0.3539160398938677  1.0000
  C   C36       1.0  0.6321022173414407  0.21702072465500066  0.2872304008880846  1.0000
  C   C37       1.0  0.536601668195402  0.19482396766044727  0.2331653094898485  1.0000
  C   C38       1.0  0.4078773802454734  0.13378832229533094  0.24624266587354526  1.0000
  C   C39       1.0  0.37542911156682374  0.0929025589049957  0.3127189877043151  1.0000
  C   C40       1.0  0.5913242959893026  0.5794541586640848  0.8209735128320688  1.0000
  C   C41       1.0  0.5838002678707072  0.5977169946977057  0.7493998699332423  1.0000
  C   C42       1.0  0.4874763216158442  0.5205481625029904  0.7097113198321665  1.0000
  C   C43       1.0  0.3991894625273176  0.4318750907599592  0.7424378124040699  1.0000
  C   C44       1.0  0.40704288795126337  0.41541202067225663  0.813558226591482  1.0000
  N   N1        1.0  0.418980748433107  0.4011335476064987  0.0289757180310701  1.0000
  N   N2        1.0  0.4178135421753738  0.4016409300020953  0.9606302588651658  1.0000
  N   N3        1.0  0.6322527907232782  0.522634220738098  0.9618604162878698  1.0000
  N   N4        1.0  0.6313821063008618  0.5252193941218621  0.0302147073845092  1.0000
  N   N5        1.0  0.8394406665426999  0.4664634467536147  0.5039648957727252  1.0000
  N   N6        1.0  0.13942684695410176  0.5299601181834958  0.5040800170428028  1.0000
  O   O1        1.0  0.6655617709913669  0.696508806854858  0.4902256084238914  1.0000
  O   O2        1.0  0.2963440231369816  0.9795847661693029  0.563425428984587  1.0000
  O   O3        1.0  0.22171665610228078  0.8400134998518922  0.4066405080891897  1.0000
  O   O4        1.0  0.40924868969688066  0.7736821511604147  0.3507855900142971  1.0000
  O   O5        1.0  0.4316311455769011  0.6883343397896055  0.4975405920230926  1.0000
  O   O6        1.0  0.6053991265207656  0.4993905016392618  0.3933304641704964  1.0000
  O   O7        1.0  0.37214659736014255  0.5046621915903913  0.3888826613161953  1.0000
  O   O8        1.0  0.5564649517321811  0.31955212783969955  0.49923926714669886  1.0000
  O   O9        1.0  0.3236683522909445  0.3209843472129776  0.4932435815255758  1.0000
  O   O10       1.0  0.5992351550279621  0.5302705878420467  0.6013937059292687  1.0000
  O   O11       1.0  0.3654747278393629  0.5051906454912469  0.6023534281163805  1.0000
  O   O12       1.0  0.4439105568501703  0.12229881735247258  0.6186970692364895  1.0000
