data_image0
_chemical_formula_structural       Cu4H28C38S4I4N12
_chemical_formula_sum              "Cu4 H28 C38 S4 I4 N12"
_cell_length_a       8.518609989959579
_cell_length_b       9.227915094889857
_cell_length_c       15.789869866115847
_cell_angle_alpha    100.75418614277719
_cell_angle_beta     90.04267656520645
_cell_angle_gamma    117.47130562221547

_space_group_name_H-M_alt    "P 1"
_space_group_IT_number       1

loop_
  _space_group_symop_operation_xyz
  'x, y, z'

loop_
  _atom_site_type_symbol
  _atom_site_label
  _atom_site_symmetry_multiplicity
  _atom_site_fract_x
  _atom_site_fract_y
  _atom_site_fract_z
  _atom_site_occupancy
  Cu  Cu1       1.0  0.9932357394668044  0.8596617862531561  0.9732825382538479  1.0000
  Cu  Cu2       1.0  0.1335427784119219  0.14030914044375464  0.5267943387202649  1.0000
  Cu  Cu3       1.0  0.006765547498318411  0.14033137163526282  0.026717592118124904  1.0000
  Cu  Cu4       1.0  0.8664588897274683  0.8596965195973995  0.4732077514476956  1.0000
  H   H1        1.0  0.7377408187543678  0.23128529471868123  0.9068077954397324  1.0000
  H   H2        1.0  0.506484466263089  0.7686726600270078  0.5929852273881693  1.0000
  H   H3        1.0  0.2622593487823793  0.7687103245235891  0.09318942919003348  1.0000
  H   H4        1.0  0.49351596520835966  0.23133052378136656  0.4070184998029305  1.0000
  H   H5        1.0  0.5298496925272431  0.17055301060889153  0.0218275098731979  1.0000
  H   H6        1.0  0.35890110477823367  0.8292316186169729  0.4778959730568744  1.0000
  H   H7        1.0  0.47014224125462784  0.8294425791551562  0.9781671766268758  1.0000
  H   H8        1.0  0.6410993183050876  0.17077155012604814  0.5221064858761864  1.0000
  H   H9        1.0  0.7171226982691578  0.7015121033852908  0.10393911386894672  1.0000
  H   H10       1.0  0.015080508503245868  0.2982633195437572  0.3960331625011407  1.0000
  H   H11       1.0  0.28287103399186003  0.2984847357009457  0.8960557055436027  1.0000
  H   H12       1.0  0.9849246811984144  0.7017423402177629  0.6039689283583769  1.0000
  H   H13       1.0  0.5214280825892458  0.4077122440515738  0.12336552591679611  1.0000
  H   H14       1.0  0.1130631585469288  0.5920234194427537  0.3764742214097723  1.0000
  H   H15       1.0  0.4785620443253363  0.5922820813249388  0.87662775941277  1.0000
  H   H16       1.0  0.8869413185514361  0.4079784693813339  0.6235255692473416  1.0000
  H   H17       1.0  0.9003121907603955  0.29821786643101694  0.8051463691958034  1.0000
  H   H18       1.0  0.602281300762968  0.7017627632606253  0.694866639113819  1.0000
  H   H19       1.0  0.09968985903967822  0.7017815161228003  0.1948525217378645  1.0000
  H   H20       1.0  0.39772498320267863  0.2982403899509977  0.3051345527138026  1.0000
  H   H21       1.0  0.12027607130460896  0.4140471351358955  0.7011474350089558  1.0000
  H   H22       1.0  0.7061721014336869  0.5859149521338767  0.7990601612901571  1.0000
  H   H23       1.0  0.8797342918404494  0.5859547833528326  0.2988548933168147  1.0000
  H   H24       1.0  0.29382653155860794  0.4140869823523091  0.200943432988467  1.0000
  H   H25       1.0  0.5653654136119003  0.11199009497756415  0.7689019168399865  1.0000
  H   H26       1.0  0.45285357772644375  0.8875212059688524  0.731339562322603  1.0000
  H   H27       1.0  0.4346354749162771  0.8880093102674851  0.2310988762502078  1.0000
  H   H28       1.0  0.5471419907603093  0.11247695023364203  0.2686610971635659  1.0000
  C   C1        1.0  0.9580439229375483  0.5471158201720884  0.8770805725454666  1.0000
  C   C2        1.0  0.4109779010157056  0.45292942162509336  0.6229353680907082  1.0000
  C   C3        1.0  0.04195623621107809  0.4528797840048356  0.1229153838262604  1.0000
  C   C4        1.0  0.5890225010972968  0.5470737094545586  0.37706392019727286  1.0000
  C   C5        1.0  0.7266407357698198  0.33278681135120547  0.9495375876468586  1.0000
  C   C6        1.0  0.39377965220352007  0.667139260800518  0.5502912967481493  1.0000
  C   C7        1.0  0.2733606768229961  0.6672112991891909  0.0504592682178  1.0000
  C   C8        1.0  0.6062214750949763  0.3328676638145893  0.44971219412928326  1.0000
  C   C9        1.0  0.8309955551864904  0.49883790812236845  0.942740693426721  1.0000
  C   C10       1.0  0.33200713954908406  0.5011260537637341  0.5572092309923633  1.0000
  C   C11       1.0  0.16900171541305298  0.5011589608149336  0.05725666319344211  1.0000
  C   C12       1.0  0.6679878043126023  0.49887085302336237  0.44279129581184407  1.0000
  C   C13       1.0  0.6132066511843774  0.2986622690632998  0.014803465028968813  1.0000
  C   C14       1.0  0.3142589304080233  0.7011636349587109  0.48498425869962597  1.0000
  C   C15       1.0  0.3867887203755913  0.7013308064317558  0.9851896887712286  1.0000
  C   C16       1.0  0.6857437565993081  0.29883701960853415  0.5150166673030512  1.0000
  C   C17       1.0  0.7157157833131365  0.5936133513841497  0.0608668903278726  1.0000
  C   C18       1.0  0.12170916594376993  0.4062074799550502  0.4390297871917781  1.0000
  C   C19       1.0  0.28427686726609375  0.4063860168500071  0.9391307305036136  1.0000
  C   C20       1.0  0.8782953279308503  0.5937944389997302  0.5609725399813996  1.0000
  C   C21       1.0  0.608316155601912  0.4312469169008751  0.07160451960789518  1.0000
  C   C22       1.0  0.17665058850265317  0.5685362072829677  0.428223580949016  1.0000
  C   C23       1.0  0.39167390430475996  0.5687449246169721  0.9283897688463013  1.0000
  C   C24       1.0  0.8233497633786868  0.43146447006871824  0.5717792469796734  1.0000
  C   C25       1.0  0.17862632249614308  0.7637014009253634  0.8243828771054497  1.0000
  C   C26       1.0  0.415015296097259  0.236303536637621  0.6757290197773003  1.0000
  C   C27       1.0  0.82137276755288  0.2362967549975039  0.1756177830722763  1.0000
  C   C28       1.0  0.5849833913207618  0.763700859109207  0.32427166898963833  1.0000
  C   C29       1.0  0.9772519915518245  0.43285979546874404  0.8116263252626156  1.0000
  C   C30       1.0  0.5444729695322083  0.5671309971692013  0.6884284125054378  1.0000
  C   C31       1.0  0.022749433623182713  0.5671383376696751  0.18837243298909803  1.0000
  C   C32       1.0  0.4555340270367338  0.432875926979854  0.31157507952458735  1.0000
  C   C33       1.0  0.10141956541639272  0.49808996000017924  0.7538489154234966  1.0000
  C   C34       1.0  0.6033433920128387  0.5018701378361001  0.7462993486847578  1.0000
  C   C35       1.0  0.8985855405010952  0.5019131857719759  0.2461516420445875  1.0000
  C   C36       1.0  0.3966576640836763  0.49813429538767207  0.2537045111882961  1.0000
  C   C37       1.0  0.4367774072678899  0.9998769627269869  0.7500919314247981  1.0000
  C   C38       1.0  0.5632205089270456  0.00012119328908259983  0.2499087285224064  1.0000
  S   S1        1.0  0.3112457383600145  0.9807904183476026  0.8434503895901813  1.0000
  S   S2        1.0  0.33068065750857295  0.019209720890351903  0.6565898209263281  1.0000
  S   S3        1.0  0.688749892940585  0.01921021418088031  0.156548632642334  1.0000
  S   S4        1.0  0.6693220881185481  0.980793402470205  0.3434088336936796  1.0000
  I   I1        1.0  0.8188744094942492  0.9602971753720485  0.8822064534579398  1.0000
  I   I2        1.0  0.8585996520330565  0.03959419205983041  0.6176935682549142  1.0000
  I   I3        1.0  0.18112247993102668  0.03968719141251851  0.1177889433662358  1.0000
  I   I4        1.0  0.1414078937649066  0.960411482580618  0.3823097913236708  1.0000
  N   N1        1.0  0.8236730960504416  0.6273397976130398  0.9974525765016367  1.0000
  N   N2        1.0  0.19608968160602566  0.3725924549428188  0.5025191142741079  1.0000
  N   N3        1.0  0.17632230067390955  0.3726533230780618  0.002544382072663601  1.0000
  N   N4        1.0  0.8039120075036835  0.6274132427617051  0.49748614653893247  1.0000
  N   N5        1.0  0.0594941057684011  0.7137736738234042  0.8830505323747317  1.0000
  N   N6        1.0  0.3457730928926779  0.2862623066470249  0.6170127785946703  1.0000
  N   N7        1.0  0.9405043554614918  0.2862232251513817  0.1169493609920167  1.0000
  N   N8        1.0  0.6542267055655842  0.7137396126805983  0.382989547656436  1.0000
  N   N9        1.0  0.2021918787343395  0.6628336748031745  0.7590370339016133  1.0000
  N   N10       1.0  0.5393882616654723  0.33713135036990854  0.7411490596527344  1.0000
  N   N11       1.0  0.7978090851898758  0.33716822936589363  0.24096402432198258  1.0000
  N   N12       1.0  0.4606126478330238  0.6628680925385099  0.2588549040825399  1.0000
