data_image0
_chemical_formula_structural       Ag2H28C30N4O4
_chemical_formula_sum              "Ag2 H28 C30 N4 O4"
_cell_length_a       7.440385268466705
_cell_length_b       8.588874740706064
_cell_length_c       11.958982967657137
_cell_angle_alpha    103.43909159106623
_cell_angle_beta     90.67773545252676
_cell_angle_gamma    113.15368686424594

_space_group_name_H-M_alt    "P 1"
_space_group_IT_number       1

loop_
  _space_group_symop_operation_xyz
  'x, y, z'

loop_
  _atom_site_type_symbol
  _atom_site_label
  _atom_site_symmetry_multiplicity
  _atom_site_fract_x
  _atom_site_fract_y
  _atom_site_fract_z
  _atom_site_occupancy
  Ag  Ag1       1.0  0.7068754762394535  0.4437046342905049  0.5227095233612573  1.0000
  Ag  Ag2       1.0  0.2931232891555025  0.5563015469063897  0.47729311870612173  1.0000
  H   H1        1.0  0.09882297419090234  0.5837213147978701  0.931921534185747  1.0000
  H   H2        1.0  0.9011855317511035  0.4162824682504365  0.06807662777985257  1.0000
  H   H3        1.0  0.7884983616142093  0.08808606982412208  0.8622084743541406  1.0000
  H   H4        1.0  0.21150647832950398  0.9119124455255659  0.13779295977290215  1.0000
  H   H5        1.0  0.017809994021199295  0.2434433003982122  0.943685125567832  1.0000
  H   H6        1.0  0.9821934949994287  0.7565551866397867  0.05631545409865164  1.0000
  H   H7        1.0  0.012104007982635792  0.1190752352822813  0.801679343981533  1.0000
  H   H8        1.0  0.9878984843201053  0.8809271263736278  0.1983210308620045  1.0000
  H   H9        1.0  0.1482739467649239  0.8254780288876873  0.747786423427051  1.0000
  H   H10       1.0  0.8517233352309574  0.1745216281396864  0.2522134513458027  1.0000
  H   H11       1.0  0.978226691215397  0.8360925541594993  0.8500390589101058  1.0000
  H   H12       1.0  0.021769666309594985  0.16390188962759566  0.14995994359025386  1.0000
  H   H13       1.0  0.8974080202602012  0.7677280181763777  0.6989580350122963  1.0000
  H   H14       1.0  0.10258811553556771  0.23226901853894333  0.30104223068440206  1.0000
  H   H15       1.0  0.6280656648868472  0.14069232317853417  0.5588689937909306  1.0000
  H   H16       1.0  0.3719286821961346  0.8593098707722574  0.44113210764429295  1.0000
  H   H17       1.0  0.6285861973683209  0.02595746301039269  0.6643538372679031  1.0000
  H   H18       1.0  0.37140393612568084  0.9740381516939465  0.33564696891957607  1.0000
  H   H19       1.0  0.12765344857159272  0.3039572271735975  0.6248276795421359  1.0000
  H   H20       1.0  0.8723423046752428  0.6960359081585776  0.3751761174848409  1.0000
  H   H21       1.0  0.3538272108143161  0.19842445857926794  0.5188346075940158  1.0000
  H   H22       1.0  0.6461650429226891  0.8015699030563751  0.48116935726688564  1.0000
  H   H23       1.0  0.4708196817985168  0.10224492226976169  0.06547395481670999  1.0000
  H   H24       1.0  0.5291936689076522  0.8977576630960654  0.9345257299691168  1.0000
  H   H25       1.0  0.4394677126374376  0.1629528768178403  0.8732836610933745  1.0000
  H   H26       1.0  0.560549065331564  0.8370575701027005  0.12671652330808306  1.0000
  H   H27       1.0  0.43944600173949755  0.3727921516683138  0.7596050497684458  1.0000
  H   H28       1.0  0.5605720513640691  0.6272118246131767  0.240385714323807  1.0000
  C   C1        1.0  0.9208089774197603  0.32809974608444037  0.8099132721391624  1.0000
  C   C2        1.0  0.07918943943872846  0.6719025318735562  0.1900878840970108  1.0000
  C   C3        1.0  0.004264670646897167  0.5097363946035856  0.8515271706976648  1.0000
  C   C4        1.0  0.9957368915162162  0.49026075412134407  0.14847316806697108  1.0000
  C   C5        1.0  0.9479646803278213  0.5768720033095248  0.7669327111523783  1.0000
  C   C6        1.0  0.05203317193373638  0.423128964028514  0.23306738625534246  1.0000
  C   C7        1.0  0.9348210502984743  0.18726336379710057  0.8573650287145183  1.0000
  C   C8        1.0  0.06518009674992703  0.8127389692378201  0.14263365547488147  1.0000
  C   C9        1.0  0.995349498908325  0.7618601076338717  0.765849220817948  1.0000
  C   C10       1.0  0.004649926005541283  0.2381382950876301  0.23415046785400753  1.0000
  C   C11       1.0  0.7243399519718422  0.12388887578760688  0.6216119039846575  1.0000
  C   C12       1.0  0.2756570912885719  0.8761133750958618  0.3783917425652702  1.0000
  C   C13       1.0  0.869062318996491  0.061437940934411  0.5599054901472796  1.0000
  C   C14       1.0  0.13093859498519578  0.93856698564732  0.4400961296256155  1.0000
  C   C15       1.0  0.0691591542272789  0.17032273926845679  0.5701447281202332  1.0000
  C   C16       1.0  0.9308381447748316  0.8296769168310403  0.4298526380718781  1.0000
  C   C17       1.0  0.19838469058735336  0.10956050981521769  0.510611663638997  1.0000
  C   C18       1.0  0.8016117937448751  0.8904404301390013  0.48939008788890676  1.0000
  C   C19       1.0  0.5158157495059753  0.3617344137285484  0.16379017960896647  1.0000
  C   C20       1.0  0.48419632252409867  0.6382590554674008  0.8362079832667462  1.0000
  C   C21       1.0  0.48036412954613167  0.2297821938201139  0.059232891823214076  1.0000
  C   C22       1.0  0.5196466935658961  0.7702333315866524  0.9407822888067016  1.0000
  C   C23       1.0  0.4644872635561441  0.26427343055318886  0.9535766971773895  1.0000
  C   C24       1.0  0.5355125233588893  0.7357132876704071  0.046411026525703385  1.0000
  C   C25       1.0  0.48328408159748193  0.4333136927604285  0.9471936915287456  1.0000
  C   C26       1.0  0.5167086829424008  0.5667001502628679  0.052799287962415106  1.0000
  C   C27       1.0  0.4680083677746153  0.4736198928817216  0.8402852580764772  1.0000
  C   C28       1.0  0.5320065874691196  0.5263957131300359  0.15972077922499744  1.0000
  C   C29       1.0  0.5501063678788541  0.32461802287863145  0.2770118865139323  1.0000
  C   C30       1.0  0.44989054290557823  0.6753777321470055  0.7229898472020436  1.0000
  N   N1        1.0  0.8180315071938438  0.2919782502889063  0.7054562701427114  1.0000
  N   N2        1.0  0.1819646342706703  0.7080187861171297  0.2945431593604012  1.0000
  N   N3        1.0  0.8362145231174835  0.44236377830833357  0.6776930447377294  1.0000
  N   N4        1.0  0.16378162401577603  0.557633257788403  0.32230554857180477  1.0000
  O   O1        1.0  0.5489581398648724  0.1788515220051322  0.27847589031024705  1.0000
  O   O2        1.0  0.45102817392657346  0.8211414142173155  0.721519416912045  1.0000
  O   O3        1.0  0.5851126361741379  0.45455569553202924  0.36769231398081803  1.0000
  O   O4        1.0  0.41487321148388645  0.5454424277840458  0.6323088644084648  1.0000
