data_image0
_chemical_formula_structural       Hg2H16C14N8Cl4
_chemical_formula_sum              "Hg2 H16 C14 N8 Cl4"
_cell_length_a       6.065570587281549
_cell_length_b       9.451647309385935
_cell_length_c       9.492256971237367
_cell_angle_alpha    89.99977584525921
_cell_angle_beta     90.00105007194432
_cell_angle_gamma    94.8924338408306

_space_group_name_H-M_alt    "P 1"
_space_group_IT_number       1

loop_
  _space_group_symop_operation_xyz
  'x, y, z'

loop_
  _atom_site_type_symbol
  _atom_site_label
  _atom_site_symmetry_multiplicity
  _atom_site_fract_x
  _atom_site_fract_y
  _atom_site_fract_z
  _atom_site_occupancy
  Hg  Hg1       1.0  0.0901729589024143  0.19450421700474863  0.7499983553333821  1.0000
  Hg  Hg2       1.0  0.9098340945920358  0.8054906825708058  0.250000538872044  1.0000
  H   H1        1.0  0.47255454801409513  0.49144854771580543  0.25000547134010287  1.0000
  H   H2        1.0  0.5274509230149036  0.5085473675263115  0.7499913158726842  1.0000
  H   H3        1.0  0.7480354269170276  0.43624499383892607  0.24998549373054868  1.0000
  H   H4        1.0  0.2519282904464504  0.5637434244166853  0.7499902233488458  1.0000
  H   H5        1.0  0.21469798326024403  0.39912433037812883  0.05789211256486482  1.0000
  H   H6        1.0  0.7853038580062588  0.6008952254492002  0.557890466018506  1.0000
  H   H7        1.0  0.7853263797388551  0.6008826919699003  0.9420983538569986  1.0000
  H   H8        1.0  0.21469518595370837  0.39912804739808644  0.44211158860119354  1.0000
  H   H9        1.0  0.5818485936200588  0.08324437395992847  0.8768360851029514  1.0000
  H   H10       1.0  0.4181283451276343  0.9167338841482005  0.3768285079011663  1.0000
  H   H11       1.0  0.41813080712921663  0.9167317657196108  0.12317966472538446  1.0000
  H   H12       1.0  0.581864112578707  0.08326485182404039  0.6231514233665933  1.0000
  H   H13       1.0  0.7978627584803561  0.1866738746097809  0.1161546432897254  1.0000
  H   H14       1.0  0.20210881997709862  0.8133210996276147  0.6161692384923827  1.0000
  H   H15       1.0  0.20207767333398155  0.8133117880533403  0.8838453038819837  1.0000
  H   H16       1.0  0.7979069944442897  0.18668145267633915  0.3838359767247682  1.0000
  C   C1        1.0  0.5712037475010519  0.3994582437044726  0.2500093840771669  1.0000
  C   C2        1.0  0.4288096093108608  0.6005569490873269  0.7500053125356347  1.0000
  C   C3        1.0  0.3408246978551118  0.3265827713160689  0.038014777222578316  1.0000
  C   C4        1.0  0.6591650275167353  0.6734090745406647  0.5380132938593079  1.0000
  C   C5        1.0  0.6591849988069215  0.6734270264387516  0.9619756890850086  1.0000
  C   C6        1.0  0.3408418846615008  0.3265837031437826  0.461999295717547  1.0000
  C   C7        1.0  0.5360831805809524  0.16457703891753536  0.9490040395913514  1.0000
  C   C8        1.0  0.46392025391470076  0.835432091127032  0.4490076782558391  1.0000
  C   C9        1.0  0.4638691062955047  0.8354131842512158  0.050998014654709316  1.0000
  C   C10       1.0  0.5361112168450646  0.16458253868777453  0.5509891091647889  1.0000
  C   C11       1.0  0.6458111267481925  0.21494671031916812  0.0673737002701102  1.0000
  C   C12       1.0  0.3542266892890922  0.7850652844740437  0.5673738097525318  1.0000
  C   C13       1.0  0.3541918424863795  0.7850364286116542  0.9326241404104607  1.0000
  C   C14       1.0  0.6458103772578953  0.21495902948713308  0.43260190790944375  1.0000
  N   N1        1.0  0.34768134252009025  0.2351659249695857  0.931906539985768  1.0000
  N   N2        1.0  0.6523192113389128  0.7648294930353927  0.4319078314100082  1.0000
  N   N3        1.0  0.6523077383711923  0.7648316594625015  0.0680997285110934  1.0000
  N   N4        1.0  0.34768784234537264  0.23516540646303244  0.5681121326000564  1.0000
  N   N5        1.0  0.5205770556932735  0.3175347748235423  0.12254823953104221  1.0000
  N   N6        1.0  0.4794481755372288  0.6824711493556492  0.6225365698558251  1.0000
  N   N7        1.0  0.47948490608658295  0.6824669229072242  0.8774727784009002  1.0000
  N   N8        1.0  0.5205291650637847  0.3175483523444242  0.37746127063208956  1.0000
  Cl  Cl1       1.0  0.9061085095856429  0.4221445576147004  0.7499984768031853  1.0000
  Cl  Cl2       1.0  0.0938822951917118  0.577854132999498  0.25000779170741794  1.0000
  Cl  Cl3       1.0  0.9090413542269645  0.9533478232443355  0.7499986181928052  1.0000
  Cl  Cl4       1.0  0.09096116405900288  0.046653306080806096  0.24999711550778167  1.0000
