data_image0
_chemical_formula_structural       Cd4H32C52N20Cl4O8
_chemical_formula_sum              "Cd4 H32 C52 N20 Cl4 O8"
_cell_length_a       11.049496034883893
_cell_length_b       11.653926983834973
_cell_length_c       13.2
_cell_angle_alpha    110.55466453663871
_cell_angle_beta     98.73980236741633
_cell_angle_gamma    113.9668607913823

_space_group_name_H-M_alt    "P 1"
_space_group_IT_number       1

loop_
  _space_group_symop_operation_xyz
  'x, y, z'

loop_
  _atom_site_type_symbol
  _atom_site_label
  _atom_site_symmetry_multiplicity
  _atom_site_fract_x
  _atom_site_fract_y
  _atom_site_fract_z
  _atom_site_occupancy
  Cd  Cd1       1.0  0.14758845547434163  0.2217714594956774  0.11101786152300969  1.0000
  Cd  Cd2       1.0  0.8524122570525777  0.7782288050848223  0.8889828414222264  1.0000
  Cd  Cd3       1.0  0.6358706102350169  0.444637771259579  0.6015323225131581  1.0000
  Cd  Cd4       1.0  0.36412866281092704  0.5553614375328095  0.3984663549185257  1.0000
  H   H1        1.0  0.2234384515300364  0.539579516891159  0.12249394634157802  1.0000
  H   H2        1.0  0.7765613453462169  0.4604207476893478  0.8775051249881116  1.0000
  H   H3        1.0  0.3159712117427773  0.6748143598847917  0.011368808314777755  1.0000
  H   H4        1.0  0.6840280613031666  0.3251848489076039  0.988629869116906  1.0000
  H   H5        1.0  0.39744053360590936  0.36378762950840127  0.8175531288351507  1.0000
  H   H6        1.0  0.602558215609726  0.6362105234958761  0.18244515469853442  1.0000
  H   H7        1.0  0.22955141867293358  0.9289911237860267  0.9712765488394551  1.0000
  H   H8        1.0  0.7704502095046522  0.0710091407944731  0.028724270569824684  1.0000
  H   H9        1.0  0.516311322834909  0.0847101030748263  0.7597186324913705  1.0000
  H   H10       1.0  0.4836897815123606  0.9152891057175693  0.24027952029263128  1.0000
  H   H11       1.0  0.6154121004147087  0.9338097407119434  0.6642844613194399  1.0000
  H   H12       1.0  0.38458808828190183  0.0661894680804522  0.3357128174247705  1.0000
  H   H13       1.0  0.4427559972522347  0.6665485947855458  0.8214690631646278  1.0000
  H   H14       1.0  0.5572447152746847  0.33345166979495383  0.1785301246290985  1.0000
  H   H15       1.0  0.3345804156216803  0.8067118566683433  0.9073210286001797  1.0000
  H   H16       1.0  0.6654208207355411  0.1932894637002605  0.09267931066730031  1.0000
  H   H17       1.0  0.6475129821876564  0.151605893399676  0.5663639264621309  1.0000
  H   H18       1.0  0.35248681468859644  0.8483943711808237  0.4336359024433136  1.0000
  H   H19       1.0  0.7524642086072718  0.007614343836472399  0.4630371331003644  1.0000
  H   H20       1.0  0.24753598008933872  0.9923848649559162  0.5369639335226281  1.0000
  H   H21       1.0  0.9279405373681657  0.2939746966405465  0.3361406599828385  1.0000
  H   H22       1.0  0.07205821184746951  0.706023456363738  0.6638583811266016  1.0000
  H   H23       1.0  0.7441293392307887  0.71180178468002  0.4791509814226131  1.0000
  H   H24       1.0  0.2558695419947981  0.2881984799004798  0.5208487310187948  1.0000
  H   H25       1.0  0.8680035546407938  0.8735189607921044  0.42781284227183397  1.0000
  H   H26       1.0  0.13199532658479285  0.1264813037883954  0.5721891428968533  1.0000
  H   H27       1.0  0.9612948653684512  0.0187096210657458  0.3303366300378414  1.0000
  H   H28       1.0  0.03870453968744414  0.981291699302865  0.6696657490288445  1.0000
  H   H29       1.0  0.07126510817504797  0.7202280295717145  0.12988257303222644  1.0000
  H   H30       1.0  0.9287356043518713  0.2797722350087852  0.8701173723372548  1.0000
  H   H31       1.0  0.9850372413444151  0.5766777994377463  0.2334300181640288  1.0000
  H   H32       1.0  0.014962555531837994  0.42332246514275335  0.7665705683171778  1.0000
  C   C1        1.0  0.26309053654548364  0.5020821464396548  0.054512541031442756  1.0000
  C   C2        1.0  0.7369101759814287  0.49791811814084497  0.9454866467622836  1.0000
  C   C3        1.0  0.3130604311989487  0.5745831158310395  0.992135200978545  1.0000
  C   C4        1.0  0.686939233667353  0.4254150371732451  0.007863956594931725  1.0000
  C   C5        1.0  0.35916256342135006  0.4044734800467253  0.8861150930242019  1.0000
  C   C6        1.0  0.640839980406895  0.5955267845337744  0.11388584284911471  1.0000
  C   C7        1.0  0.31178667611965244  0.3321477714813028  0.9499729107973849  1.0000
  C   C8        1.0  0.6882144282276245  0.6678514373110858  0.05002751471388935  1.0000
  C   C9        1.0  0.31355522053898716  0.2024463139628452  0.9331895253988165  1.0000
  C   C10       1.0  0.6864458838082828  0.7975528948295505  0.0668116576882127  1.0000
  C   C11       1.0  0.2707475886731459  0.0156531144924514  0.9497293696932516  1.0000
  C   C12       1.0  0.7292531238537666  0.9843471500880483  0.050272090827746904  1.0000
  C   C13       1.0  0.41999343255480454  0.9542846394946238  0.8386526750145862  1.0000
  C   C14       1.0  0.5800081956227814  0.04571562508587589  0.1613466292431696  1.0000
  C   C15       1.0  0.5020373280328841  0.9933720268371005  0.7728300267679558  1.0000
  C   C16       1.0  0.49796390832434423  0.006629293531503299  0.2271680397722591  1.0000
  C   C17       1.0  0.5572091484615102  0.9096786477104928  0.7205422849164408  1.0000
  C   C18       1.0  0.4427901245844339  0.0903205610819029  0.2794571500909981  1.0000
  C   C19       1.0  0.5356671439575608  0.7913807575489002  0.7368288191563224  1.0000
  C   C20       1.0  0.46433356856935154  0.20861950703159948  0.26316885348589375  1.0000
  C   C21       1.0  0.45929929538914394  0.7579091071540418  0.8075035653240262  1.0000
  C   C22       1.0  0.5406990620061337  0.2420901016383468  0.19249651079513802  1.0000
  C   C23       1.0  0.3991303794827418  0.8374732989894085  0.85687121243091  1.0000
  C   C24       1.0  0.600870465054129  0.1625290771673065  0.14312788911902888  1.0000
  C   C25       1.0  0.5820254786965152  0.6928377186801952  0.6714836718298329  1.0000
  C   C26       1.0  0.4179737943494288  0.3071614901122004  0.32851576317761294  1.0000
  C   C27       1.0  0.7110143591728217  0.1818447206071667  0.5148202539333296  1.0000
  C   C28       1.0  0.28898491387312225  0.8181544881852219  0.48517993864987113  1.0000
  C   C29       1.0  0.7703940658701143  0.1047204550898968  0.4587600628111588  1.0000
  C   C30       1.0  0.22960573100613865  0.8952798094906029  0.5412397660942858  1.0000
  C   C31       1.0  0.8646402750201717  0.2606329081829982  0.38712533713690783  1.0000
  C   C32       1.0  0.13535899802577236  0.7393663006093973  0.6128740978705309  1.0000
  C   C33       1.0  0.8035778101817216  0.33789231457812  0.44186489958246256  1.0000
  C   C34       1.0  0.19642198669453148  0.6621079500023797  0.5581356868987442  1.0000
  C   C35       1.0  0.8149224642844146  0.46260200592092093  0.43229915492331367  1.0000
  C   C36       1.0  0.18507824824250463  0.5373982586595786  0.5677015480219294  1.0000
  C   C37       1.0  0.7811367080706548  0.6363139907304854  0.4556017052413779  1.0000
  C   C38       1.0  0.2188621731549318  0.3636862738500142  0.5443995223515471  1.0000
  C   C39       1.0  0.9185162483143402  0.7148973554133136  0.33423293895664585  1.0000
  C   C40       1.0  0.08148446421257924  0.2851029091671862  0.6657670064128354  1.0000
  C   C41       1.0  0.9141571434515259  0.8403703815583583  0.3638336809546843  1.0000
  C   C42       1.0  0.0858417377740608  0.1596298830221414  0.636168304214003  1.0000
  C   C43       1.0  0.9678524956859464  0.9226352793745534  0.30936436635018083  1.0000
  C   C44       1.0  0.03214638553964731  0.0773649852059464  0.6906368612427441  1.0000
  C   C45       1.0  0.022500355250762966  0.87855612585642  0.22341730517704408  1.0000
  C   C46       1.0  0.9774994416254827  0.1214441387240797  0.7765840388799176  1.0000
  C   C47       1.0  0.029030545968318264  0.7541388878195932  0.19698361634747394  1.0000
  C   C48       1.0  0.9709674196066092  0.24586137676090658  0.8030182523571767  1.0000
  C   C49       1.0  0.9793764297861003  0.6729076065613455  0.2529125717084708  1.0000
  C   C50       1.0  0.02062441475077042  0.3270947695953694  0.7470888025687401  1.0000
  C   C51       1.0  0.06320761280905884  0.9580960345652939  0.1545641936429902  1.0000
  C   C52       1.0  0.9367928399074543  0.041907397379525  0.8454389732197072  1.0000
  N   N1        1.0  0.2622361238631968  0.3808597232183004  0.032624602836250516  1.0000
  N   N2        1.0  0.7377651124940315  0.6191415971503034  0.9673757364312365  1.0000
  N   N3        1.0  0.35964224463779004  0.5257508042497037  0.9078208710523228  1.0000
  N   N4        1.0  0.640357812048869  0.4742462929664697  0.0921764939356677  1.0000
  N   N5        1.0  0.3838452381296875  0.1532360302387659  0.8745106631449459  1.0000
  N   N6        1.0  0.6161563900478982  0.8467642343417339  0.12549091384008912  1.0000
  N   N7        1.0  0.3563721796891103  0.0344925974955075  0.8860107633050376  1.0000
  N   N8        1.0  0.6436299723187775  0.9655087228731034  0.11398969242647902  1.0000
  N   N9        1.0  0.24323550543847716  0.12097536880403228  0.9810874204275989  1.0000
  N   N10       1.0  0.7567675622200841  0.8790259515645786  0.01891466691947141  1.0000
  N   N11       1.0  0.7281738795964899  0.2977596970085088  0.5061399228196848  1.0000
  N   N12       1.0  0.2718268329304295  0.7022405675719909  0.4938592649740343  1.0000
  N   N13       1.0  0.8484250739839894  0.1449861019611447  0.39627860244914365  1.0000
  N   N14       1.0  0.15157419906195468  0.855013106831251  0.6037208325582952  1.0000
  N   N15       1.0  0.8820244475739899  0.5165063235741414  0.3706257395664281  1.0000
  N   N16       1.0  0.11797534930226317  0.48349394100635823  0.6293748469147786  1.0000
  N   N17       1.0  0.8603197326954161  0.6274284780117156  0.3863401065276761  1.0000
  N   N18       1.0  0.13967954035052804  0.3725707307806729  0.6136593284797698  1.0000
  N   N19       1.0  0.7518196056336707  0.5335509667932286  0.4857708249373546  1.0000
  N   N20       1.0  0.24818110689324882  0.4664492977872712  0.5142298780078818  1.0000
  Cl  Cl1       1.0  0.09226595796554456  0.4042390950867015  0.23324212171115016  1.0000
  Cl  Cl2       1.0  0.9077367178726521  0.5957632810700204  0.7667602430698893  1.0000
  Cl  Cl3       1.0  0.49097954778970637  0.266071272728432  0.6605084519555078  1.0000
  Cl  Cl4       1.0  0.5090193334358802  0.7339289918520677  0.3394905029101452  1.0000
  O   O1        1.0  0.5733823072308014  0.6685778195295455  0.5691968749643408  1.0000
  O   O2        1.0  0.4266150025038656  0.3314192776866349  0.4308008982073019  1.0000
  O   O3        1.0  0.6234668626429852  0.6332701536144896  0.7239507079842014  1.0000
  O   O4        1.0  0.3765362050155759  0.3667311667541213  0.2760483490598418  1.0000
  O   O5        1.0  0.09480795646288703  0.0873527407096972  0.2023862661682188  1.0000
  O   O6        1.0  0.905191840413366  0.9126475238708024  0.7976158354644979  1.0000
  O   O7        1.0  0.06006604956648701  0.891096777005842  0.05344406972115225  1.0000
  O   O8        1.0  0.9399332234794571  0.1089024317865537  0.9465568804378037  1.0000
