data_image0
_chemical_formula_structural       Cu4H24C36Br4N24
_chemical_formula_sum              "Cu4 H24 C36 Br4 N24"
_cell_length_a       7.458299307009938
_cell_length_b       11.169018048898497
_cell_length_c       12.78772755391249
_cell_angle_alpha    106.49322952153338
_cell_angle_beta     90.00016091050236
_cell_angle_gamma    89.99985640620852

_space_group_name_H-M_alt    "P 1"
_space_group_IT_number       1

loop_
  _space_group_symop_operation_xyz
  'x, y, z'

loop_
  _atom_site_type_symbol
  _atom_site_label
  _atom_site_symmetry_multiplicity
  _atom_site_fract_x
  _atom_site_fract_y
  _atom_site_fract_z
  _atom_site_occupancy
  Cu  Cu1       1.0  0.9191957169915456  0.0318487886783956  0.39611412442554444  1.0000
  Cu  Cu2       1.0  0.4191941196367138  0.4681514153873324  0.10388715365343873  1.0000
  Cu  Cu3       1.0  0.08080490983092402  0.9681516951805875  0.6038878755297645  1.0000
  Cu  Cu4       1.0  0.5808065071807036  0.531850018994426  0.8961135250991461  1.0000
  H   H1        1.0  0.6110432880722031  0.8467882424435658  0.3189197239507777  1.0000
  H   H2        1.0  0.11103791158786441  0.6532113123350456  0.18108115443475734  1.0000
  H   H3        1.0  0.3889600203173628  0.15321506777343066  0.6810806520515771  1.0000
  H   H4        1.0  0.8889586928708509  0.34678545346422845  0.8189183314839711  1.0000
  H   H5        1.0  0.5497529096104827  0.7088938065688951  0.1022764560094913  1.0000
  H   H6        1.0  0.049750747584582186  0.791107690051369  0.3977248192764833  1.0000
  H   H7        1.0  0.4502450356323848  0.29110761941159785  0.897725002625819  1.0000
  H   H8        1.0  0.9502445160846877  0.20889000946570488  0.6022749052076152  1.0000
  H   H9        1.0  0.2176453670823619  0.024560897242977792  0.2541458641312886  1.0000
  H   H10       1.0  0.7176418484005466  0.4754367251566194  0.24585677405514875  1.0000
  H   H11       1.0  0.7823525781655576  0.9754395782147325  0.745856915706746  1.0000
  H   H12       1.0  0.28235877841735413  0.5245628501940658  0.7541426476804673  1.0000
  H   H13       1.0  0.4444016971273683  0.05261022982381998  0.0887629368535343  1.0000
  H   H14       1.0  0.9443977549611162  0.4473889847163193  0.4112404753078138  1.0000
  H   H15       1.0  0.5556002704910483  0.9473902204227616  0.911242182640571  1.0000
  H   H16       1.0  0.055602871853167785  0.5526133917853215  0.5887596621265416  1.0000
  H   H17       1.0  0.11272587593590801  0.7575042378793526  0.7742598971414479  1.0000
  H   H18       1.0  0.6127231507521599  0.7424965038276242  0.7257413067055654  1.0000
  H   H19       1.0  0.8872787732512889  0.24249624597718625  0.22574210281648996  1.0000
  H   H20       1.0  0.38727881684965126  0.2575049473591092  0.2742578122789396  1.0000
  H   H21       1.0  0.8228973344003309  0.5974875280886991  0.7201298877740855  1.0000
  H   H22       1.0  0.32289282783246154  0.9025130004750251  0.7798676917810923  1.0000
  H   H23       1.0  0.17710731477531275  0.4025130061852166  0.2798674328769622  1.0000
  H   H24       1.0  0.6771077989811046  0.09748845071252528  0.22013142720253143  1.0000
  C   C1        1.0  0.921405824787527  0.8688745735590685  0.15507652469035088  1.0000
  C   C2        1.0  0.4214040168113655  0.631123679107432  0.3449237415368956  1.0000
  C   C3        1.0  0.07859212045702439  0.1311240596733612  0.8449234383617468  1.0000
  C   C4        1.0  0.5785966100096616  0.36887495412337046  0.6550762215169571  1.0000
  C   C5        1.0  0.6928178065984908  0.8362317436863549  0.24686343707958974  1.0000
  C   C6        1.0  0.1928140833454179  0.663767711812845  0.2531375483566052  1.0000
  C   C7        1.0  0.30718147942370416  0.16377064962188828  0.7531351405849236  1.0000
  C   C8        1.0  0.8071838619003344  0.3362299877026018  0.7468621761292483  1.0000
  C   C9        1.0  0.6596760743466491  0.7685384167004725  0.14143427370632364  1.0000
  C   C10       1.0  0.15967260817135553  0.7314620127513008  0.3585669069110295  1.0000
  C   C11       1.0  0.3403218708966947  0.23146115024894706  0.8585659279120179  1.0000
  C   C12       1.0  0.8403239962880846  0.26853567836206327  0.6414335974584305  1.0000
  C   C13       1.0  0.11141917503277908  0.8762160585361016  0.0037399418128601005  1.0000
  C   C14       1.0  0.6114168884051098  0.6237844295012777  0.49626117563300914  1.0000
  C   C15       1.0  0.8885814517884897  0.1237853590398643  0.9962622967086932  1.0000
  C   C16       1.0  0.3885850791959697  0.3762160963713725  0.5037369249007639  1.0000
  C   C17       1.0  0.21283658170661823  0.9873961797508456  0.16591086106682695  1.0000
  C   C18       1.0  0.7128325858702665  0.5126023093248265  0.33409069189364976  1.0000
  C   C19       1.0  0.7871613635393757  0.0126043041097645  0.8340911388867271  1.0000
  C   C20       1.0  0.2871653593810208  0.4873925806367651  0.6659090967779522  1.0000
  C   C21       1.0  0.32161048312482166  0.9989867920040041  0.08262759704953027  1.0000
  C   C22       1.0  0.8216082803052699  0.5010115734164415  0.4173733184216318  1.0000
  C   C23       1.0  0.6783888029106179  0.001012758138799098  0.9173741643386535  1.0000
  C   C24       1.0  0.17839368730086846  0.4989880019334265  0.5826261033148655  1.0000
  C   C25       1.0  0.845788943787177  0.7466693173586875  0.9722787215283406  1.0000
  C   C26       1.0  0.3457851144783888  0.7533302244873852  0.5277209890814804  1.0000
  C   C27       1.0  0.1542116830319245  0.25332932427501476  0.027720461641031598  1.0000
  C   C28       1.0  0.6542141715488584  0.2466712182980828  0.47227890978575  1.0000
  C   C29       1.0  0.0048341447952467  0.7377713528878331  0.8232477946640983  1.0000
  C   C30       1.0  0.5048351265080129  0.7622314040426871  0.6767521853097024  1.0000
  C   C31       1.0  0.9951664820228956  0.26223100680800826  0.17675390253921114  1.0000
  C   C32       1.0  0.4951668410937913  0.2377700471440463  0.3232469336747954  1.0000
  C   C33       1.0  0.8612037308196251  0.6585711218005201  0.7990994117421408  1.0000
  C   C34       1.0  0.36120309379749216  0.8414330951228877  0.7008991722267696  1.0000
  C   C35       1.0  0.13879689598960712  0.34143220522388873  0.2008994044894905  1.0000
  C   C36       1.0  0.6387961922309628  0.1585674139455975  0.2991004880742096  1.0000
  Br  Br1       1.0  0.2213168718342402  0.0710466164565631  0.46470126015599794  1.0000
  Br  Br2       1.0  0.721312500043524  0.4289501013807566  0.03529802473201471  1.0000
  Br  Br3       1.0  0.7786877773356196  0.9289613707474302  0.5352995287939777  1.0000
  Br  Br4       1.0  0.27868678600683683  0.571036385127165  0.9646996168442571  1.0000
  N   N1        1.0  0.07511888472977549  0.9080157054144422  0.11457600190043848  1.0000
  N   N2        1.0  0.5751175178867385  0.5919838929757901  0.38542482945972273  1.0000
  N   N3        1.0  0.9248790605155008  0.0919838531320778  0.8854249796023909  1.0000
  N   N4        1.0  0.42488444971867523  0.4080147570599948  0.6145735738260427  1.0000
  N   N5        1.0  0.8565614710765884  0.898968717125143  0.255361226109855  1.0000
  N   N6        1.0  0.3565579464473601  0.6010296142667286  0.24463895522967505  1.0000
  N   N7        1.0  0.14343647416362867  0.10103179194415192  0.7446384341902501  1.0000
  N   N8        1.0  0.6434413395854293  0.3989690189648911  0.7553610078232964  1.0000
  N   N9        1.0  0.8074294132766866  0.7888812103452736  0.0820674956638143  1.0000
  N   N10       1.0  0.3074276565098303  0.7111190565312028  0.41793231860697944  1.0000
  N   N11       1.0  0.1925685319635306  0.2111192987240216  0.917932164636291  1.0000
  N   N12       1.0  0.6925716295198326  0.2888805188202923  0.5820671031277627  1.0000
  N   N13       1.0  0.2572992261377891  0.9298826821163146  0.9812024879740593  1.0000
  N   N14       1.0  0.7572961476265121  0.5701178756686005  0.5187996850156155  1.0000
  N   N15       1.0  0.7427027414748437  0.07011779333895869  0.0188002918666044  1.0000
  N   N16       1.0  0.24270581997529206  0.42988357551813294  0.4811994339688894  1.0000
  N   N17       1.0  0.9951364803153523  0.7946406361415087  0.9346717058981114  1.0000
  N   N18       1.0  0.49513435965209135  0.7053624592559727  0.5653291544860224  1.0000
  N   N19       1.0  0.004865487292228499  0.20536078983653278  0.06532975273983511  1.0000
  N   N20       1.0  0.5048676079485118  0.29463992564774344  0.43467020306471943  1.0000
  N   N21       1.0  0.7614198067655167  0.6641260796637667  0.892610653806756  1.0000
  N   N22       1.0  0.2614187330852857  0.8358763825657859  0.6073881022884892  1.0000
  N   N23       1.0  0.23857813846964146  0.33587537992830346  0.10738768529062527  1.0000
  N   N24       1.0  0.7385818937302063  0.16412506021886486  0.39261179657961537  1.0000
