data_image0
_chemical_formula_structural       Zn2H18C38I10N2O8
_chemical_formula_sum              "Zn2 H18 C38 I10 N2 O8"
_cell_length_a       10.856552481420694
_cell_length_b       16.54572173914507
_cell_length_c       17.825662633889493
_cell_angle_alpha    89.46759858435543
_cell_angle_beta     91.42700237097625
_cell_angle_gamma    89.28225065650747

_space_group_name_H-M_alt    "P 1"
_space_group_IT_number       1

loop_
  _space_group_symop_operation_xyz
  'x, y, z'

loop_
  _atom_site_type_symbol
  _atom_site_label
  _atom_site_symmetry_multiplicity
  _atom_site_fract_x
  _atom_site_fract_y
  _atom_site_fract_z
  _atom_site_occupancy
  Zn  Zn1       1.0  0.49838829153979713  0.4130579001598704  0.49399340389211943  1.0000
  Zn  Zn2       1.0  0.4996953725811935  0.5855899226257294  0.49280686284664904  1.0000
  H   H1        1.0  0.12111816989677493  0.3757642138450735  0.5513571080245185  1.0000
  H   H2        1.0  0.0896688132527217  0.4001900522931764  0.4231793633860406  1.0000
  H   H3        1.0  0.907732303863071  0.3670820613839042  0.5318402563834326  1.0000
  H   H4        1.0  0.8792208720231544  0.4283570168579588  0.3975084840284849  1.0000
  H   H5        1.0  0.9090606614131502  0.5818249123560051  0.59153680192626  1.0000
  H   H6        1.0  0.8784019543104976  0.6248356478394045  0.5016692331896024  1.0000
  H   H7        1.0  0.5651068034165265  0.4048722023520242  0.886585149722471  1.0000
  H   H8        1.0  0.3446061704446564  0.6217718135576222  0.857960980388384  1.0000
  H   H9        1.0  0.5012497785457768  0.3759914755163012  0.2541736733270099  1.0000
  H   H10       1.0  0.4345147837778995  0.6316873511940174  0.2606368915865147  1.0000
  H   H11       1.0  0.4043373638602219  0.10755216719942952  0.4342565327147483  1.0000
  H   H12       1.0  0.38925940651890306  0.8930870083449706  0.4474415164712795  1.0000
  H   H13       1.0  0.644693059776067  0.30509324485045414  0.5782947628022939  1.0000
  H   H14       1.0  0.6559862439696147  0.6892835678880475  0.5738541401364827  1.0000
  H   H15       1.0  0.8908577853380069  0.42941402511852544  0.6105236807161631  1.0000
  H   H16       1.0  0.9025157179430398  0.5337467378973316  0.38911058933237536  1.0000
  H   H17       1.0  0.11739358274646612  0.6063773448010183  0.5669843339180645  1.0000
  H   H18       1.0  0.0876941913106961  0.6198998324102761  0.47019910108493684  1.0000
  C   C1        1.0  0.4894160290057173  0.5032400606023516  0.3483917485178409  1.0000
  C   C2        1.0  0.2620034929880077  0.494307576297736  0.501305602748161  1.0000
  C   C3        1.0  0.5048878077389887  0.5051158940924767  0.6402454533100297  1.0000
  C   C4        1.0  0.7383798035047777  0.4941811387647096  0.4991749154750238  1.0000
  C   C5        1.0  0.073849248779446  0.4335177787093941  0.5603727417597213  1.0000
  C   C6        1.0  0.0652353245586426  0.464362732191475  0.4281855550918721  1.0000
  C   C7        1.0  0.9321648784864466  0.4263054013148351  0.5550665161518537  1.0000
  C   C8        1.0  0.9256280058846899  0.4800920076107075  0.4235987598551958  1.0000
  C   C9        1.0  0.06808587590587933  0.5807460834239039  0.5184729753909991  1.0000
  C   C10       1.0  0.120745506753849  0.4964282091182141  0.5030571131509376  1.0000
  C   C11       1.0  0.8790911627941045  0.4941954484896343  0.5039756167592343  1.0000
  C   C12       1.0  0.9285543057567909  0.5758953948575044  0.5315202164961761  1.0000
  C   C13       1.0  0.5230394977043034  0.45086028478287693  0.849814586518292  1.0000
  C   C14       1.0  0.39949088966756113  0.5734781740391242  0.8339356284517264  1.0000
  C   C15       1.0  0.5424208866164834  0.45056236424258617  0.773070159101529  1.0000
  C   C16       1.0  0.42148875874980263  0.5725544740915892  0.7572506862612158  1.0000
  C   C17       1.0  0.4904594130030446  0.5098934873999641  0.7240475107997071  1.0000
  C   C18       1.0  0.4495927597811687  0.5121188528562118  0.881098796574747  1.0000
  C   C19       1.0  0.43329296006905343  0.512263444701752  0.9595146426552146  1.0000
  C   C20       1.0  0.4292010180127975  0.5097731997309153  0.0278627302946859  1.0000
  C   C21       1.0  0.46317510513806337  0.43406987933488494  0.1465968577528187  1.0000
  C   C22       1.0  0.4245649497130728  0.5784090650292555  0.15023824923836318  1.0000
  C   C23       1.0  0.4809547849054285  0.43227114095505936  0.22405496553765397  1.0000
  C   C24       1.0  0.4428137395308412  0.5770105240771671  0.2275898696253478  1.0000
  C   C25       1.0  0.4721425042982191  0.5040027120389043  0.2646499693324955  1.0000
  C   C26       1.0  0.4366272876674345  0.5073292050974987  0.1067732756063364  1.0000
  C   C27       1.0  0.45883701803082744  0.1496031504475681  0.46736272818349534  1.0000
  C   C28       1.0  0.4501895318453961  0.8496351981071018  0.4762829944989235  1.0000
  C   C29       1.0  0.443996749494012  0.23262246512251755  0.4564400314975643  1.0000
  C   C30       1.0  0.43434104267915796  0.7671093427833712  0.4660653074720926  1.0000
  C   C31       1.0  0.5937422243399839  0.25878777875403375  0.5479947001706194  1.0000
  C   C32       1.0  0.600047720556553  0.7369208738611945  0.5469040240993337  1.0000
  C   C33       1.0  0.6156619037204083  0.17692167727833666  0.5618223213418928  1.0000
  C   C34       1.0  0.6223674321147996  0.8182896978912525  0.5603234443579126  1.0000
  C   C35       1.0  0.5459495254338621  0.11974112853248187  0.5210414804336736  1.0000
  C   C36       1.0  0.5459642663721452  0.8771834417848439  0.5238979000959176  1.0000
  C   C37       1.0  0.5585854971533452  0.03522513273679101  0.5299529341885574  1.0000
  C   C38       1.0  0.5592446973616846  0.9614873767411042  0.5311381482620448  1.0000
  I   I1        1.0  0.13668866068491073  0.4609080916300813  0.6753004367255925  1.0000
  I   I2        1.0  0.15035891428420461  0.5132588900573511  0.3272613544359331  1.0000
  I   I3        1.0  0.3183480005575703  0.271800851802297  0.3719510896122031  1.0000
  I   I4        1.0  0.2895621755073918  0.7305156034148158  0.3949117011515426  1.0000
  I   I5        1.0  0.7509796233182797  0.14152304493106277  0.641058204369763  1.0000
  I   I6        1.0  0.7663888789624311  0.8505761342356098  0.6331152587051605  1.0000
  I   I7        1.0  0.6653969490059738  0.35935340874424787  0.7368887871372678  1.0000
  I   I8        1.0  0.3422292183256559  0.6713406264836622  0.6960366699424583  1.0000
  I   I9        1.0  0.4758018097738984  0.32488261316874667  0.0875265780866243  1.0000
  I   I10       1.0  0.3799554756994041  0.689413028938283  0.097219711610002  1.0000
  N   N1        1.0  0.5093855146350209  0.28627633959339965  0.49662877092591623  1.0000
  N   N2        1.0  0.5084028339445723  0.7117275825299532  0.5004690337728093  1.0000
  O   O1        1.0  0.5113416082962985  0.4354369996658819  0.3805936247964823  1.0000
  O   O2        1.0  0.4794474769623279  0.5713008775928473  0.3804770498082489  1.0000
  O   O3        1.0  0.3116916939751206  0.4254538826315868  0.49064406089240015  1.0000
  O   O4        1.0  0.31781271943449957  0.5605871914233874  0.5095234569406983  1.0000
  O   O5        1.0  0.48415107959167625  0.4375087490588856  0.6099773916656801  1.0000
  O   O6        1.0  0.5345689756340165  0.5700277225195693  0.6070085583103904  1.0000
  O   O7        1.0  0.6851685648210052  0.42681498382204813  0.5092638281197992  1.0000
  O   O8        1.0  0.6850430231551101  0.5609938444038678  0.48272476384243385  1.0000
