data_image0
_chemical_formula_structural       Zn2H36C40N8Cl4
_chemical_formula_sum              "Zn2 H36 C40 N8 Cl4"
_cell_length_a       5.585041038779231
_cell_length_b       12.010930935205128
_cell_length_c       15.017881782979076
_cell_angle_alpha    70.29190486951173
_cell_angle_beta     79.2415849915906
_cell_angle_gamma    76.52426769500036

_space_group_name_H-M_alt    "P 1"
_space_group_IT_number       1

loop_
  _space_group_symop_operation_xyz
  'x, y, z'

loop_
  _atom_site_type_symbol
  _atom_site_label
  _atom_site_symmetry_multiplicity
  _atom_site_fract_x
  _atom_site_fract_y
  _atom_site_fract_z
  _atom_site_occupancy
  Zn  Zn1       1.0  0.3313284554133631  0.25014561369716404  0.7499950153108159  1.0000
  Zn  Zn2       1.0  0.6686893693669945  0.749847641108893  0.25000019180956184  1.0000
  H   H1        1.0  0.5416605878291636  0.09889557782897643  0.9539181375316018  1.0000
  H   H2        1.0  0.5944477949252801  0.40138519082604057  0.5459889242582816  1.0000
  H   H3        1.0  0.458373133302146  0.9010962995930002  0.04606062950419689  1.0000
  H   H4        1.0  0.40554928096046444  0.59862049124051  0.4540100907392811  1.0000
  H   H5        1.0  0.9750322755729429  0.9249109532235095  0.9621577498523094  1.0000
  H   H6        1.0  0.862166998849368  0.5752500905215286  0.5376362994530764  1.0000
  H   H7        1.0  0.02499824034595119  0.0750992810178133  0.03783794231422629  1.0000
  H   H8        1.0  0.13780192972538427  0.42476284032515826  0.46235907606685334  1.0000
  H   H9        1.0  0.7993652160067061  0.0735509837320762  0.6781485077591964  1.0000
  H   H10       1.0  0.5519655175346687  0.42624826931856324  0.8218142330816887  1.0000
  H   H11       1.0  0.20067590972538343  0.9264445281836872  0.32182795951659665  1.0000
  H   H12       1.0  0.4480364394955246  0.5737429124092942  0.1781923572957424  1.0000
  H   H13       1.0  0.32491420960607814  0.9706229442550696  0.7588443214096896  1.0000
  H   H14       1.0  0.055211296193014854  0.5293325087552886  0.7407955013308296  1.0000
  H   H15       1.0  0.6750991931638952  0.029374378949533802  0.2411669678453307  1.0000
  H   H16       1.0  0.9447455485789786  0.4706713135486852  0.2592064888736585  1.0000
  H   H17       1.0  0.1552715079455281  0.9026151325102418  0.7095555505236035  1.0000
  H   H18       1.0  0.7680966093433882  0.5973146029539791  0.7902143929971784  1.0000
  H   H19       1.0  0.8447762708869748  0.0973955300534683  0.29045864077237826  1.0000
  H   H20       1.0  0.2318734767221927  0.4026831901006743  0.20977833926265524  1.0000
  H   H21       1.0  0.5490184777669708  0.8509165910497246  0.8934093484041056  1.0000
  H   H22       1.0  0.29404547001023223  0.6491486514030954  0.6063831069581338  1.0000
  H   H23       1.0  0.45101968546999444  0.1490735809686257  0.10660170553090605  1.0000
  H   H24       1.0  0.7059293105235369  0.3508535718403608  0.3936112648713176  1.0000
  H   H25       1.0  0.6998279086973512  0.6541227838760548  0.0011517475695724886  1.0000
  H   H26       1.0  0.35546382155933975  0.846053350705326  0.49874037447165864  1.0000
  H   H27       1.0  0.30019918735007434  0.3458589407546527  0.998875205462184  1.0000
  H   H28       1.0  0.6445200366098051  0.1539543193995314  0.5012507493845745  1.0000
  H   H29       1.0  0.1645681012646919  0.5056724202014424  0.9213867487168556  1.0000
  H   H30       1.0  0.5909167294773214  0.9941187581874048  0.5783102666199935  1.0000
  H   H31       1.0  0.83543690483409  0.49431724751431  0.07860888970793659  1.0000
  H   H32       1.0  0.4090529492424652  0.0058876073467502045  0.4216972467742578  1.0000
  H   H33       1.0  0.010825578929207252  0.7063967612378265  0.8168784985399852  1.0000
  H   H34       1.0  0.5337932139952387  0.7932318878829251  0.6826801779635828  1.0000
  H   H35       1.0  0.9892059924460956  0.2936090490874292  0.18311528344690922  1.0000
  H   H36       1.0  0.46618596902993675  0.20677021755071937  0.3173188701677389  1.0000
  C   C1        1.0  0.6595484574314056  0.06703576543090861  0.8983218909260131  1.0000
  C   C2        1.0  0.6250088115846066  0.43316381543538546  0.6015752107385308  1.0000
  C   C3        1.0  0.3404303203743523  0.9329734591179316  0.10167858187438125  1.0000
  C   C4        1.0  0.3749785099543601  0.5668357216686174  0.39841923810499213  1.0000
  C   C5        1.0  0.8753359209481815  0.9832193515433686  0.9028899197014225  1.0000
  C   C6        1.0  0.761673408488768  0.5168718004504881  0.5969558989057474  1.0000
  C   C7        1.0  0.12467362753295674  0.0167914985461479  0.09711694082161419  1.0000
  C   C8        1.0  0.23831221759919435  0.48312783076159593  0.40303480786369045  1.0000
  C   C9        1.0  0.7831294892839649  0.056834477385564214  0.7542975398480108  1.0000
  C   C10       1.0  0.5949099380552597  0.44307732188363497  0.7456456223709365  1.0000
  C   C11       1.0  0.21687914558419438  0.9431656790439218  0.24570778609032826  1.0000
  C   C12       1.0  0.40508420722311916  0.5569159817236199  0.2543477266196915  1.0000
  C   C13       1.0  0.18556445774923006  0.9129300229345461  0.7763667479258983  1.0000
  C   C14       1.0  0.8754802972154612  0.5869553740731632  0.7233537165515995  1.0000
  C   C15       1.0  0.8145955520879157  0.0870157168064125  0.22363249368233068  1.0000
  C   C16       1.0  0.12453894647922681  0.413067159161443  0.2766508579646468  1.0000
  C   C17       1.0  0.27099279725693004  0.7924870925117916  0.8461246857622767  1.0000
  C   C18       1.0  0.909842191865046  0.7074785509561822  0.6535645736409987  1.0000
  C   C19       1.0  0.7289899074793881  0.2075356247628264  0.15387269070458115  1.0000
  C   C20       1.0  0.09013132896956219  0.29251455955989764  0.34643654043365046  1.0000
  C   C21       1.0  0.46378761384596584  0.7751226727543498  0.8996630773404775  1.0000
  C   C22       1.0  0.13894715178538772  0.7248985634084304  0.6001144753139229  1.0000
  C   C23       1.0  0.5361884192367656  0.22488952583206157  0.10032581645064903  1.0000
  C   C24       1.0  0.8610056752298333  0.2751015268078876  0.39989368944821263  1.0000
  C   C25       1.0  0.550868564396993  0.661843141704253  0.9605254255079598  1.0000
  C   C26       1.0  0.17340906076104556  0.8382504232136938  0.5393162152120041  1.0000
  C   C27       1.0  0.44911331851838554  0.33815980264322587  0.039475821058033427  1.0000
  C   C28       1.0  0.8265390534275813  0.16174705266723072  0.46068922904374415  1.0000
  C   C29       1.0  0.4505050452404335  0.5608367929496794  0.9692060665420215  1.0000
  C   C30       1.0  0.9803245292068108  0.9391250629208441  0.5306925526607243  1.0000
  C   C31       1.0  0.5495076019920334  0.43913435652967076  0.030814680766077494  1.0000
  C   C32       1.0  0.01964192613690581  0.060898659179755996  0.4693004826462683  1.0000
  C   C33       1.0  0.25182564276798997  0.5801041338821519  0.91669701882671  1.0000
  C   C34       1.0  0.74804087546633  0.9197360841957193  0.5830135094803308  1.0000
  C   C35       1.0  0.7481595454417446  0.41990615752969523  0.08329656008879727  1.0000
  C   C36       1.0  0.2519102785142949  0.08026219365297753  0.4169956034950103  1.0000
  C   C37       1.0  0.1641483368300457  0.6936197017456536  0.856837128561871  1.0000
  C   C38       1.0  0.7142955583850537  0.8061977098360202  0.6427600061743133  1.0000
  C   C39       1.0  0.8358745184361852  0.3064130013208057  0.14315421315787785  1.0000
  C   C40       1.0  0.285673671074406  0.19378530474035216  0.357251400126998  1.0000
  N   N1        1.0  0.6034219865986475  0.11127446515381931  0.8056142334267162  1.0000
  N   N2        1.0  0.5206028023668521  0.3888345610697783  0.6943375262941841  1.0000
  N   N3        1.0  0.3965564889879333  0.8887318460052641  0.19439541387021805  1.0000
  N   N4        1.0  0.47938904418273154  0.6111508751307184  0.3056485902421711  1.0000
  N   N5        1.0  0.9503459186117739  0.9781310473790799  0.8109784786953111  1.0000
  N   N6        1.0  0.7400928614097638  0.5217444004143772  0.688894566088173  1.0000
  N   N7        1.0  0.049721026906965386  0.0218556149183939  0.1890297747125871  1.0000
  N   N8        1.0  0.2598981277417778  0.47826054033222215  0.31109837567707627  1.0000
  Cl  Cl1       1.0  0.07075842576066559  0.2851198665247594  0.8751642818956569  1.0000
  Cl  Cl2       1.0  0.23043920573323337  0.21534447691442443  0.624936127553255  1.0000
  Cl  Cl3       1.0  0.9292556691816851  0.7148742948145427  0.12483045369957302  1.0000
  Cl  Cl4       1.0  0.7695504870023341  0.784654982811638  0.3750613945836604  1.0000
