data_image0
_chemical_formula_structural       Zn2H18C38N10O20
_chemical_formula_sum              "Zn2 H18 C38 N10 O20"
_cell_length_a       12.998631638566136
_cell_length_b       16.074874115291035
_cell_length_c       17.28124805820571
_cell_angle_alpha    84.88035648488531
_cell_angle_beta     88.57471578752778
_cell_angle_gamma    83.95677536584556

_space_group_name_H-M_alt    "P 1"
_space_group_IT_number       1

loop_
  _space_group_symop_operation_xyz
  'x, y, z'

loop_
  _atom_site_type_symbol
  _atom_site_label
  _atom_site_symmetry_multiplicity
  _atom_site_fract_x
  _atom_site_fract_y
  _atom_site_fract_z
  _atom_site_occupancy
  Zn  Zn1       1.0  0.499162985804432  0.5910752857998742  0.49640929303141246  1.0000
  Zn  Zn2       1.0  0.5008466950129531  0.4089241933998268  0.5035891776379273  1.0000
  H   H1        1.0  0.18972215170860812  0.4218788425064374  0.4513461538299169  1.0000
  H   H2        1.0  0.8102907410582888  0.5780973608299006  0.5486598583251949  1.0000
  H   H3        1.0  0.030100960426558722  0.35770357155215027  0.4171103430782212  1.0000
  H   H4        1.0  0.9699034390718853  0.6422774030489504  0.5829006811434285  1.0000
  H   H5        1.0  0.38219279800073014  0.5802418227391256  0.7467907024758917  1.0000
  H   H6        1.0  0.6178056394169787  0.4197693418724454  0.2532030377677118  1.0000
  H   H7        1.0  0.38709509854751906  0.5758126300676024  0.8922361389201259  1.0000
  H   H8        1.0  0.6128945865657015  0.4242001802939512  0.10775707671704285  1.0000
  H   H9        1.0  0.36207747829478626  0.6222752556153494  0.10621181397306864  1.0000
  H   H10       1.0  0.6378980237510278  0.3777307464640742  0.8937984337736612  1.0000
  H   H11       1.0  0.5592786003778016  0.8998242254288726  0.3971929043127389  1.0000
  H   H12       1.0  0.44069594036692183  0.10018249507355387  0.6027982110815915  1.0000
  H   H13       1.0  0.6009251400512381  0.13659904153372787  0.3826631651173004  1.0000
  H   H14       1.0  0.3990863830566056  0.863389734927942  0.6173418915211146  1.0000
  H   H15       1.0  0.5796623573155344  0.29236661652168994  0.3980062156104652  1.0000
  H   H16       1.0  0.42036353050138336  0.7076282450257592  0.6019980645712695  1.0000
  H   H17       1.0  0.602497267348582  0.7399844263240781  0.26511764235372953  1.0000
  H   H18       1.0  0.397494959645897  0.26003159559678574  0.7348775834826216  1.0000
  C   C1        1.0  0.4962706650748814  0.5099893206625905  0.34864190566572983  1.0000
  C   C2        1.0  0.503742887308931  0.4900190939682289  0.6513563633747952  1.0000
  C   C3        1.0  0.6978630856554845  0.4711825424386262  0.4941056527647235  1.0000
  C   C4        1.0  0.30214807696433615  0.5288081679460247  0.5058905799385799  1.0000
  C   C5        1.0  0.1870027059250887  0.5294863310776207  0.514408706359376  1.0000
  C   C6        1.0  0.8130010260573144  0.47049844306040706  0.48559624768002174  1.0000
  C   C7        1.0  0.983391420949076  0.4061428716377832  0.44649081826572284  1.0000
  C   C8        1.0  0.0166229002819591  0.5938339995480532  0.5535156904391487  1.0000
  C   C9        1.0  0.8772293465270239  0.4087080833175419  0.4481709811363361  1.0000
  C   C10       1.0  0.12278202179086152  0.5912907505415247  0.551837920896965  1.0000
  C   C11       1.0  0.8598260113725331  0.5308416135399554  0.5199231127436053  1.0000
  C   C12       1.0  0.1401831274384122  0.46914769761002617  0.4800865812476831  1.0000
  C   C13       1.0  0.9683657492528255  0.531902404296275  0.518589968450563  1.0000
  C   C14       1.0  0.03164252169062822  0.4680736986754822  0.481410940079748  1.0000
  C   C15       1.0  0.4905825262089891  0.5153639175769839  0.2615889052229293  1.0000
  C   C16       1.0  0.5094219561506179  0.48464358337465535  0.7384136755676708  1.0000
  C   C17       1.0  0.5610258382155848  0.46276488486275  0.22025316030730122  1.0000
  C   C18       1.0  0.4389740062825779  0.5372425362170076  0.7797408435521052  1.0000
  C   C19       1.0  0.558939269064922  0.46546173823487885  0.13982836557047315  1.0000
  C   C20       1.0  0.4410490330248464  0.5345547849194286  0.8601697964104819  1.0000
  C   C21       1.0  0.4855698499859145  0.5221147794605797  0.09844588592810773  1.0000
  C   C22       1.0  0.5144099934629834  0.4778926634971653  0.9015548995540431  1.0000
  C   C23       1.0  0.41764227873127185  0.5775615945752363  0.13833897523374367  1.0000
  C   C24       1.0  0.5823340883876185  0.4224438120374074  0.8616695650270361  1.0000
  C   C25       1.0  0.42027140019925474  0.5725633752469576  0.2189290958609648  1.0000
  C   C26       1.0  0.5797249679691988  0.42743757078277156  0.781077060918314  1.0000
  C   C27       1.0  0.46059909644845476  0.22771655994125686  0.5588998934036769  1.0000
  C   C28       1.0  0.5393987401568052  0.7722845117605104  0.44109233470510406  1.0000
  C   C29       1.0  0.47035252027223606  0.14117799237348547  0.5558724348497537  1.0000
  C   C30       1.0  0.5296320730597586  0.8588239664108883  0.44411942187709746  1.0000
  C   C31       1.0  0.5184840004767608  0.10781036474559606  0.49035416345879695  1.0000
  C   C32       1.0  0.48151086972985246  0.8921855635314413  0.5096408439175876  1.0000
  C   C33       1.0  0.5603431395772702  0.16161493881377706  0.43282118451060836  1.0000
  C   C34       1.0  0.43965691317084316  0.8383823565595775  0.5671805516418973  1.0000
  C   C35       1.0  0.5482826237772683  0.24746365492185152  0.4409280135421911  1.0000
  C   C36       1.0  0.45172617325634684  0.7525320049478663  0.5590725105635459  1.0000
  C   C37       1.0  0.5999245975705207  0.7345051377215553  0.37487166538624456  1.0000
  C   C38       1.0  0.4000603375381857  0.2654993497529147  0.6251205649436856  1.0000
  N   N1        1.0  0.47356295452075164  0.52856362945559  0.017059748416947698  1.0000
  N   N2        1.0  0.526414154835237  0.4714462684516361  0.9829391660205504  1.0000
  N   N3        1.0  0.4975752838310116  0.28025370327647176  0.5018875795479405  1.0000
  N   N4        1.0  0.5024289662222401  0.7197550767107898  0.4981108552724438  1.0000
  N   N5        1.0  0.5301421588927154  0.021103300039825988  0.4790777297401833  1.0000
  N   N6        1.0  0.46984642349568867  0.9789025142451918  0.5209206859263917  1.0000
  N   N7        1.0  0.16804516606593717  0.6520970691934593  0.5966050582663557  1.0000
  N   N8        1.0  0.8319563123522116  0.34788265167946963  0.40339107963020393  1.0000
  N   N9        1.0  0.34127595984757164  0.6274716063330529  0.2585319836735637  1.0000
  N   N10       1.0  0.6587188757320632  0.37252929599546997  0.741474208550642  1.0000
  O   O1        1.0  0.49357001342310985  0.5791949642333591  0.37920657450105477  1.0000
  O   O2        1.0  0.5064200375241298  0.42081590537431873  0.6207966228400326  1.0000
  O   O3        1.0  0.5058112337324161  0.4365016747360426  0.38249638500900585  1.0000
  O   O4        1.0  0.4942348661769104  0.5635145976916858  0.6175017462250738  1.0000
  O   O5        1.0  0.6488938719175011  0.5427051381773181  0.501177552149642  1.0000
  O   O6        1.0  0.35112119689571836  0.4572895335869589  0.4988072940770324  1.0000
  O   O7        1.0  0.659793345705971  0.40151588607854183  0.4958364614305781  1.0000
  O   O8        1.0  0.34021956589334224  0.598474100410094  0.5041835169778609  1.0000
  O   O9        1.0  0.23153554585675812  0.6229345299413395  0.6468819024129078  1.0000
  O   O10       1.0  0.13654199724229701  0.7272920137372765  0.5833010613927245  1.0000
  O   O11       1.0  0.7684433924252901  0.3770558048952707  0.3531294998541413  1.0000
  O   O12       1.0  0.863500508605128  0.27268637204013396  0.4166914303500919  1.0000
  O   O13       1.0  0.33144833800214707  0.7028439583247064  0.23470615731189787  1.0000
  O   O14       1.0  0.288767920156566  0.593780254718574  0.31059184621234703  1.0000
  O   O15       1.0  0.6685575007732325  0.29716035493438386  0.7653087967771699  1.0000
  O   O16       1.0  0.7112177812471643  0.40621537719667333  0.689409162677592  1.0000
  O   O17       1.0  0.6769403657282211  0.685067256934893  0.3834557675731461  1.0000
  O   O18       1.0  0.5600826818232462  0.7667863857905174  0.3055438795086404  1.0000
  O   O19       1.0  0.3230356354352324  0.3149262833711716  0.6165328769211912  1.0000
  O   O20       1.0  0.4399110617223485  0.23322526161934576  0.694452235717627  1.0000
