data_image0
_chemical_formula_structural       Fe2H10C12N8O2
_chemical_formula_sum              "Fe2 H10 C12 N8 O2"
_cell_length_a       6.532148437014044
_cell_length_b       9.66273824387576
_cell_length_c       10.098796237006367
_cell_angle_alpha    68.40035305192406
_cell_angle_beta     67.14745680829968
_cell_angle_gamma    74.39373841164932

_space_group_name_H-M_alt    "P 1"
_space_group_IT_number       1

loop_
  _space_group_symop_operation_xyz
  'x, y, z'

loop_
  _atom_site_type_symbol
  _atom_site_label
  _atom_site_symmetry_multiplicity
  _atom_site_fract_x
  _atom_site_fract_y
  _atom_site_fract_z
  _atom_site_occupancy
  Fe  Fe1       1.0  0.9999938608661695  0.9999937394526839  3.023764932638486e-06  1.0000
  Fe  Fe2       1.0  0.49999099696021415  0.9999924005673368  1.2835521267970857e-05  1.0000
  H   H1        1.0  0.7516905701556452  0.3345177681145302  0.9995178927339765  1.0000
  H   H2        1.0  0.9142025474529802  0.9995211108205881  0.33467325147125826  1.0000
  H   H3        1.0  0.6021312264066695  0.6294568457097541  0.9983713473461291  1.0000
  H   H4        1.0  0.7697838182460475  0.9987402962669166  0.6295645908870355  1.0000
  H   H5        1.0  0.24830676480633676  0.6654739486507852  0.00048422425913226925  1.0000
  H   H6        1.0  0.08579932432780173  0.0004820262351686013  0.6653309139404442  1.0000
  H   H7        1.0  0.3978604492776157  0.3705394706427683  0.0016147134401621529  1.0000
  H   H8        1.0  0.2302150299620536  0.0012659816203139985  0.3704481527176426  1.0000
  H   H9        1.0  0.8233431168979592  0.1871874285162676  0.8138433771687091  1.0000
  H   H10       1.0  0.17665227667161085  0.8128097943877607  0.18616330031459674  1.0000
  C   C1        1.0  0.9233618859408212  0.32107084674343156  0.9968077206506151  1.0000
  C   C2        1.0  0.7586585479987067  0.9969348680071236  0.321123406400076  1.0000
  C   C3        1.0  0.7469299919097241  0.6615212638339258  0.0013643356481550877  1.0000
  C   C4        1.0  0.5901261905312439  0.0014138729913711003  0.6616210451559468  1.0000
  C   C5        1.0  0.0766292350690563  0.6789366266260047  0.003185638315564107  1.0000
  C   C6        1.0  0.24135236577166103  0.0030721103583530992  0.678872392048639  1.0000
  C   C7        1.0  0.2530738779724828  0.3384776751268888  0.9986249116603004  1.0000
  C   C8        1.0  0.4098766648822264  0.9985972909758162  0.3383782236339881  1.0000
  C   C9        1.0  0.04017311971023931  0.42296268086534644  0.9987257111383271  1.0000
  C   C10       1.0  0.5380929183039171  0.9988121665612298  0.42291028807810693  1.0000
  C   C11       1.0  0.9598371606716471  0.5770275819335922  0.0012550203198104168  1.0000
  C   C12       1.0  0.46191982656075947  0.0012095206518978048  0.5770880871885495  1.0000
  N   N1        1.0  0.05888274065909373  0.18881175548487764  0.9945407964059072  1.0000
  N   N2        1.0  0.7576868381233766  0.9945429571000092  0.18881728728195668  1.0000
  N   N3        1.0  0.7388234455253484  0.8011127711749495  0.003899033333020341  1.0000
  N   N4        1.0  0.4561082350943978  0.003971690318301996  0.80119138706808  1.0000
  N   N5        1.0  0.9411149798626397  0.8111946993197777  0.0054592745722743296  1.0000
  N   N6        1.0  0.24231534994566326  0.005448912144537102  0.8111856172950879  1.0000
  N   N7        1.0  0.2611718494966341  0.1988901133332632  0.9961067652313105  1.0000
  N   N8        1.0  0.5438932113956197  0.9960166902323947  0.1988158305827524  1.0000
  O   O1        1.0  0.783292199320144  0.09955966442645801  0.9001738087188185  1.0000
  O   O2        1.0  0.21670441104080154  0.9004298532230665  0.09982326995923771  1.0000
