data_image0
_chemical_formula_structural       H31PbC29N5O7
_chemical_formula_sum              "H31 Pb1 C29 N5 O7"
_cell_length_a       4.626383791658851
_cell_length_b       12.03730339557287
_cell_length_c       15.200816405737001
_cell_angle_alpha    71.80420469894007
_cell_angle_beta     86.88200764281855
_cell_angle_gamma    88.81723619696517

_space_group_name_H-M_alt    "P 1"
_space_group_IT_number       1

loop_
  _space_group_symop_operation_xyz
  'x, y, z'

loop_
  _atom_site_type_symbol
  _atom_site_label
  _atom_site_symmetry_multiplicity
  _atom_site_fract_x
  _atom_site_fract_y
  _atom_site_fract_z
  _atom_site_occupancy
  H   H1        1.0  0.9295903051552441  0.3999010786950023  0.32097388274746663  1.0000
  H   H2        1.0  0.9179812195578732  0.22469652807105683  0.40854515738985964  1.0000
  H   H3        1.0  0.7820434633311635  0.7863672375174531  0.6620869136646236  1.0000
  H   H4        1.0  0.7584165138933301  0.6055400382355031  0.7446447236712856  1.0000
  H   H5        1.0  0.263109792502668  0.513724834031734  0.47477337430800765  1.0000
  H   H6        1.0  0.8887967538850959  0.6049015522702419  0.5547130962939307  1.0000
  H   H7        1.0  0.6402573126512011  0.7881119462990681  0.4660699645804059  1.0000
  H   H8        1.0  0.7745795852998328  0.881826634494807  0.29923660736466934  1.0000
  H   H9        1.0  0.15201952551989706  0.7909348336401363  0.22010185648112926  1.0000
  H   H10       1.0  0.6092225650794276  0.5394498704379416  0.3403302534981805  1.0000
  H   H11       1.0  0.5634543462075641  0.653517973442561  0.23575591217697686  1.0000
  H   H12       1.0  0.12304103232350627  0.5530141932578656  0.20786585049756925  1.0000
  H   H13       1.0  0.9807392548532903  0.008183876393807998  0.42457329703189833  1.0000
  H   H14       1.0  0.16335229192703335  0.8209052342426445  0.5270266188241663  1.0000
  H   H15       1.0  0.7222181779595616  0.008251517671254798  0.6489906480395077  1.0000
  H   H16       1.0  0.5382727588423817  0.19534855828534597  0.5469030267199102  1.0000
  H   H17       1.0  0.18067103774858137  0.5399639690170374  0.8300201426341263  1.0000
  H   H18       1.0  0.12624022471880642  0.3545122679894348  0.8183974316169867  1.0000
  H   H19       1.0  0.17150331313844452  0.45442379443834807  0.7056412651641608  1.0000
  H   H20       1.0  0.5925387125690165  0.4387148253557668  0.6035614825911608  1.0000
  H   H21       1.0  0.9783635708436904  0.3103334000866552  0.5676951205983443  1.0000
  H   H22       1.0  0.12630166398393072  0.12998126855804765  0.6894673206328292  1.0000
  H   H23       1.0  0.881400818745213  0.0781034691383056  0.8479337058974751  1.0000
  H   H24       1.0  0.49886618127490584  0.2078807929696467  0.8832212685452917  1.0000
  H   H25       1.0  0.05423606241655679  0.6793340452027293  0.8884061303022507  1.0000
  H   H26       1.0  0.16827391146303938  0.8561288266727299  0.8062085996824209  1.0000
  H   H27       1.0  0.524060407945754  0.9002587672128041  0.8193308157435341  1.0000
  H   H28       1.0  0.22349522412233822  0.9530799774465206  0.8726977987708082  1.0000
  H   H29       1.0  0.4015198124076774  0.8398216903222459  0.04898652154844297  1.0000
  H   H30       1.0  0.7153112577033837  0.8302201431122568  0.9781682065576405  1.0000
  H   H31       1.0  0.5583847181440474  0.6994665515145613  0.05696665426185629  1.0000
  Pb  Pb1       1.0  0.9414285835411108  0.3931745043373238  0.06101844441275975  1.0000
  C   C1        1.0  0.1546570804205842  0.5943076399809823  0.43630040802653275  1.0000
  C   C2        1.0  0.9440966145298829  0.6452235749991431  0.48099486699717897  1.0000
  C   C3        1.0  0.8059573770774477  0.7484911211674187  0.4316916743133775  1.0000
  C   C4        1.0  0.8821937722492093  0.8011736400729107  0.3378976778810526  1.0000
  C   C5        1.0  0.09332358963578  0.7499648466506982  0.2936672785139294  1.0000
  C   C6        1.0  0.23159246766751101  0.6457502318954409  0.34196244105856277  1.0000
  C   C7        1.0  0.4470653680639812  0.5878435669686012  0.29264697771063913  1.0000
  C   C8        1.0  0.29473520545738546  0.5040483506693504  0.2516037685127657  1.0000
  C   C9        1.0  0.30179030803710555  0.31392105494212064  0.37079786442730284  1.0000
  C   C10       1.0  0.24755891344405972  0.11466748383821108  0.47848804488079116  1.0000
  C   C11       1.0  0.1418900522912239  0.008250444843298498  0.4743132334098378  1.0000
  C   C12       1.0  0.24303428654818757  0.9027999131283477  0.5324782785774076  1.0000
  C   C13       1.0  0.45187601744064665  0.9014595909245031  0.5962179376056441  1.0000
  C   C14       1.0  0.5587093721914513  0.007736029403481797  0.6001050148657256  1.0000
  C   C15       1.0  0.45760609188307205  0.11340746159497428  0.5418525735073558  1.0000
  C   C16       1.0  0.3926520678837094  0.7006130033400025  0.6999487664341331  1.0000
  C   C17       1.0  0.38418747052221386  0.5040733103917887  0.8089094717173353  1.0000
  C   C18       1.0  0.2861387087550042  0.4090255167143794  0.7683341597300668  1.0000
  C   C19       1.0  0.521204648566453  0.33251587402212107  0.7461509132090357  1.0000
  C   C20       1.0  0.6583126935665858  0.3600585207963505  0.6575123377814052  1.0000
  C   C21       1.0  0.8744719617086504  0.28767483442102554  0.637160916414615  1.0000
  C   C22       1.0  0.9562857399928647  0.1858242828983235  0.7054261498953595  1.0000
  C   C23       1.0  0.8197123358692835  0.15731850645966006  0.793834601865612  1.0000
  C   C24       1.0  0.6046236873285977  0.2297920186278616  0.8140970290411502  1.0000
  C   C25       1.0  0.49082566621898127  0.45823783881819913  0.18550124165928855  1.0000
  C   C26       1.0  0.5437259098995283  0.45511367194246327  0.8982953022520165  1.0000
  C   C27       1.0  0.18644552094905004  0.6770478914251041  0.9472899026727221  1.0000
  C   C28       1.0  0.3097810674014879  0.876751624511591  0.8545585352162564  1.0000
  C   C29       1.0  0.5116748291323177  0.7867197592552414  0.00979644812848334  1.0000
  N   N1        1.0  0.1491284457321171  0.4083670262857169  0.3212833632169705  1.0000
  N   N2        1.0  0.13483344204820466  0.22009511588893102  0.4209839613172051  1.0000
  N   N3        1.0  0.5625077828932703  0.7949712292265115  0.6537534695502886  1.0000
  N   N4        1.0  0.5385483406890261  0.6003188881915873  0.7423339457414145  1.0000
  N   N5        1.0  0.3316073630654657  0.7761551843577048  0.9372062805734843  1.0000
  O   O1        1.0  0.5735181846344518  0.313432605724266  0.3701703455353425  1.0000
  O   O2        1.0  0.12006873760133628  0.7057452228211362  0.7048602355557138  1.0000
  O   O3        1.0  0.4089831422773927  0.3705376094414559  0.16381648654220984  1.0000
  O   O4        1.0  0.7254210051384148  0.5133709354854473  0.15184182667110246  1.0000
  O   O5        1.0  0.7680955363922308  0.5098969480442788  0.9081961624175606  1.0000
  O   O6        1.0  0.44219478557752007  0.3651337211086272  0.9595795119691388  1.0000
  O   O7        1.0  0.198174040908448  0.5886859718576644  0.017230219982955933  1.0000
