data_image0
_chemical_formula_structural       Cu2P2H26C36S2N4O12
_chemical_formula_sum              "Cu2 P2 H26 C36 S2 N4 O12"
_cell_length_a       8.358744812920424
_cell_length_b       9.939814978486552
_cell_length_c       11.108703025391499
_cell_angle_alpha    79.49844264531632
_cell_angle_beta     84.67972549967308
_cell_angle_gamma    83.40321101441774

_space_group_name_H-M_alt    "P 1"
_space_group_IT_number       1

loop_
  _space_group_symop_operation_xyz
  'x, y, z'

loop_
  _atom_site_type_symbol
  _atom_site_label
  _atom_site_symmetry_multiplicity
  _atom_site_fract_x
  _atom_site_fract_y
  _atom_site_fract_z
  _atom_site_occupancy
  Cu  Cu1       1.0  0.6104790573612036  0.5460282013299178  0.7762433858050816  1.0000
  Cu  Cu2       1.0  0.3895290981850792  0.4539742861144376  0.22375370792336477  1.0000
  P   P1        1.0  0.3824215541778385  0.6872553769212929  0.9858703522989817  1.0000
  P   P2        1.0  0.6175816607436674  0.3127481380966302  0.014127777220963415  1.0000
  H   H1        1.0  0.0755328180461845  0.6703806557563894  0.8911191961393572  1.0000
  H   H2        1.0  0.9244661056422033  0.329618736651085  0.1088780756898373  1.0000
  H   H3        1.0  0.8997187779610558  0.0930338149462315  0.7780793097284759  1.0000
  H   H4        1.0  0.10027770297930517  0.9069655840900168  0.22192081236288896  1.0000
  H   H5        1.0  0.1404779104821756  0.1677174846899092  0.8569983228170559  1.0000
  H   H6        1.0  0.8595186522831854  0.8322808944157672  0.14300466278239554  1.0000
  H   H7        1.0  0.350637671900884  0.9926291161795505  0.9498035382117538  1.0000
  H   H8        1.0  0.6493575542951006  0.007370293189303802  0.05020026054162233  1.0000
  H   H9        1.0  0.3718348896117405  0.8157418370167449  0.7164820827362279  1.0000
  H   H10       1.0  0.6281557789104254  0.18424523044754443  0.28352492774384075  1.0000
  H   H11       1.0  0.28941423828162266  0.9645236721323869  0.5182482449328277  1.0000
  H   H12       1.0  0.710577604896052  0.03546340184301041  0.4817604925594594  1.0000
  H   H13       1.0  0.4104208726442379  0.905464416832828  0.3198123153928095  1.0000
  H   H14       1.0  0.5895811560097571  0.0945380913943978  0.680193254909611  1.0000
  H   H15       1.0  0.593043888411465  0.7307869115515048  0.20878849824133994  1.0000
  H   H16       1.0  0.4069587188989701  0.2692207421416981  0.7912170901060592  1.0000
  H   H17       1.0  0.7896082208351417  0.5246880639267175  0.22188095659945625  1.0000
  H   H18       1.0  0.21039236099203848  0.4753175031956971  0.7781160973912195  1.0000
  H   H19       1.0  0.9631689599464863  0.3334842565509604  0.3567812782470484  1.0000
  H   H20       1.0  0.03682820643547302  0.6665202654929843  0.6432116569903245  1.0000
  H   H21       1.0  0.026947198356417287  0.2175256877963251  0.5666181898128501  1.0000
  H   H22       1.0  0.9730497416292891  0.7824706065316392  0.43337611300483314  1.0000
  H   H23       1.0  0.8801409153093758  0.3113790572553158  0.7505067778490899  1.0000
  H   H24       1.0  0.11985984577431447  0.6886151886719746  0.24948942689771067  1.0000
  H   H25       1.0  0.5870710969309911  0.8140112680851034  0.9394962571996859  1.0000
  H   H26       1.0  0.4129281883712396  0.1859953208786322  0.060498908107796026  1.0000
  C   C1        1.0  0.22861931364571567  0.8199032232886481  0.9264830393229816  1.0000
  C   C2        1.0  0.7713818223999596  0.18009821638761994  0.07351015828973573  1.0000
  C   C3        1.0  0.0923530983607748  0.7788230397416243  0.8830920053758934  1.0000
  C   C4        1.0  0.9076469448544059  0.2211773734929636  0.11690232873268515  1.0000
  C   C5        1.0  0.9773085476146831  0.8778796763928299  0.8286354515928738  1.0000
  C   C6        1.0  0.0226855857507999  0.12211870653434428  0.17136948365637752  1.0000
  C   C7        1.0  0.9936544053759492  0.018081833685982908  0.8187260561390703  1.0000
  C   C8        1.0  0.006340712298737083  0.981918601228017  0.18127668033096006  1.0000
  C   C9        1.0  0.1274903123998641  0.05877505865088042  0.8629017403493792  1.0000
  C   C10       1.0  0.8725039828795005  0.941222287502008  0.13710065473372876  1.0000
  C   C11       1.0  0.24554437597649328  0.9601307495441989  0.9161756264861368  1.0000
  C   C12       1.0  0.7544531710980706  0.03986968154831061  0.08382516033410073  1.0000
  C   C13       1.0  0.4227777999645427  0.7927300272359616  0.6279528884474318  1.0000
  C   C14       1.0  0.577218157448094  0.20726321201831152  0.37205188033179587  1.0000
  C   C15       1.0  0.37744222505437364  0.8750353183761561  0.517265638085931  1.0000
  C   C16       1.0  0.6225572278923508  0.1249589491128802  0.4827378457723698  1.0000
  C   C17       1.0  0.4437445711973567  0.8414672157100114  0.4063618667519223  1.0000
  C   C18       1.0  0.5562623980814081  0.1585342649436541  0.5936426677589993  1.0000
  C   C19       1.0  0.5563783983680325  0.7240998451488425  0.406533192404254  1.0000
  C   C20       1.0  0.44363191787909534  0.27590369770658196  0.5934716967395134  1.0000
  C   C21       1.0  0.6291468959667624  0.6760387790428838  0.29800046159348886  1.0000
  C   C22       1.0  0.3708584111787232  0.3239668085093967  0.70200169922132  1.0000
  C   C23       1.0  0.7386008477007451  0.561679539475847  0.30518297425935265  1.0000
  C   C24       1.0  0.2614054437539508  0.43832810006325945  0.6948169877762356  1.0000
  C   C25       1.0  0.7854810324726884  0.4864950437894536  0.421418387286785  1.0000
  C   C26       1.0  0.21452192536179374  0.5135105307406108  0.5785803195035869  1.0000
  C   C27       1.0  0.9009158412276718  0.37051632360538633  0.4367043989780728  1.0000
  C   C28       1.0  0.09908262167923708  0.6294871765972375  0.563290424942487  1.0000
  C   C29       1.0  0.9374301425420273  0.3066620257284712  0.5538061245070338  1.0000
  C   C30       1.0  0.0625666488779473  0.6933353025664957  0.446189817864422  1.0000
  C   C31       1.0  0.8574169311815184  0.3569221889637717  0.6560265212604508  1.0000
  C   C32       1.0  0.14258341090125987  0.6430751532499529  0.34397280092291294  1.0000
  C   C33       1.0  0.711943199951044  0.5303577601024827  0.529480223103505  1.0000
  C   C34       1.0  0.28806013683990983  0.4696447265630043  0.4705180680874222  1.0000
  C   C35       1.0  0.5964896162734731  0.6484898707179951  0.5223358646349255  1.0000
  C   C36       1.0  0.40351616500164056  0.3515116062318455  0.477667843476148  1.0000
  S   S1        1.0  0.8087882031402175  0.8284106124608146  0.765783594898892  1.0000
  S   S2        1.0  0.19121091089447623  0.1715867344709352  0.23421760272174208  1.0000
  N   N1        1.0  0.5298206695912028  0.682294347350698  0.6302993329925287  1.0000
  N   N2        1.0  0.4701808337989348  0.3177030041814176  0.3697026168154311  1.0000
  N   N3        1.0  0.7468354773229038  0.4651290615800293  0.6435519280640066  1.0000
  N   N4        1.0  0.25316811655508076  0.5348713655733094  0.35644578585649367  1.0000
  O   O1        1.0  0.4289648619885682  0.6024914550717712  0.8844193298700773  1.0000
  O   O2        1.0  0.5710391886764087  0.3975151458999733  0.11557824042441919  1.0000
  O   O3        1.0  0.3075083647287826  0.6114606034580846  0.10571504656459753  1.0000
  O   O4        1.0  0.6924910731336666  0.3885346699251003  0.89428107072375  1.0000
  O   O5        1.0  0.5269390198267774  0.7628224787869087  0.015844444924134435  1.0000
  O   O6        1.0  0.4730652745770882  0.2371820654799777  0.9841534487123129  1.0000
  O   O7        1.0  0.82862415099504  0.8762213290276719  0.6334666708491171  1.0000
  O   O8        1.0  0.171377718003427  0.12377293744714994  0.3665357639717612  1.0000
  O   O9        1.0  0.6631493667626175  0.900476108012107  0.8230736237499415  1.0000
  O   O10       1.0  0.3368516891941908  0.09952534850787492  0.17692497753700565  1.0000
  O   O11       1.0  0.8161391719524645  0.6781203519974854  0.8031826938661268  1.0000
  O   O12       1.0  0.1838514107502078  0.3218780170109312  0.19681886157120942  1.0000
