data_image0
_chemical_formula_structural       Cd2H24C24N4O12
_chemical_formula_sum              "Cd2 H24 C24 N4 O12"
_cell_length_a       7.235065689185691
_cell_length_b       8.63166707064828
_cell_length_c       10.22328973701834
_cell_angle_alpha    89.99978368526024
_cell_angle_beta     89.99999782741111
_cell_angle_gamma    98.49280433170165

_space_group_name_H-M_alt    "P 1"
_space_group_IT_number       1

loop_
  _space_group_symop_operation_xyz
  'x, y, z'

loop_
  _atom_site_type_symbol
  _atom_site_label
  _atom_site_symmetry_multiplicity
  _atom_site_fract_x
  _atom_site_fract_y
  _atom_site_fract_z
  _atom_site_occupancy
  Cd  Cd1       1.0  3.483836927372057e-06  0.49999434443182594  0.5000006746451788  1.0000
  Cd  Cd2       1.0  0.5000024363401608  0.5000000222891572  1.1509504247000003e-06  1.0000
  H   H1        1.0  0.20064964477121805  0.2760726335068425  0.6254469567285739  1.0000
  H   H2        1.0  0.29934329675074883  0.7239189875371181  0.125442798880627  1.0000
  H   H3        1.0  0.7993472065279407  0.7239146757979427  0.37455830539452256  1.0000
  H   H4        1.0  0.7006542286628274  0.2760788812282655  0.8745536597969733  1.0000
  H   H5        1.0  0.023684194017391705  0.2859471190863019  0.7189823901969561  1.0000
  H   H6        1.0  0.4763153282716317  0.7140428143949576  0.2189714171241377  1.0000
  H   H7        1.0  0.9763181620715854  0.7140471623003177  0.2810277627085043  1.0000
  H   H8        1.0  0.5236847265318404  0.28595384631779547  0.7810211289205355  1.0000
  H   H9        1.0  0.8656627880765699  0.1439212109300385  0.45054163092168414  1.0000
  H   H10       1.0  0.6343461460069265  0.8560824688055104  0.9505331603071739  1.0000
  H   H11       1.0  0.13433565988643886  0.8560742969542472  0.549460696712039  1.0000
  H   H12       1.0  0.365666535391057  0.14392224313726126  0.0494574294070915  1.0000
  H   H13       1.0  0.7544655090244061  0.9560890983330876  0.2688825540891102  1.0000
  H   H14       1.0  0.7455309530804614  0.0439143999244536  0.7688718094153729  1.0000
  H   H15       1.0  0.2455285542740953  0.043919385121505186  0.7311168390475516  1.0000
  H   H16       1.0  0.2544727715861512  0.9560869088591272  0.2311168239869303  1.0000
  H   H17       1.0  0.8320403558741846  0.04216386894389499  0.03634537578667361  1.0000
  H   H18       1.0  0.667954026052314  0.9578360175905728  0.5363316865499996  1.0000
  H   H19       1.0  0.16795303331123532  0.9578340550567501  0.9636598863193129  1.0000
  H   H20       1.0  0.3320451062003968  0.0421630039966274  0.46365792501470793  1.0000
  H   H21       1.0  0.1208230938864219  0.4748955986734131  0.19148945491595984  1.0000
  H   H22       1.0  0.3791842492520702  0.525106098074282  0.6914830289120317  1.0000
  H   H23       1.0  0.8791785677473172  0.5251022148167905  0.8085158071902114  1.0000
  H   H24       1.0  0.6208256848322123  0.4748916049165569  0.3085173424007195  1.0000
  C   C1        1.0  0.8943218807974631  0.1734097163690791  0.34820857448853104  1.0000
  C   C2        1.0  0.6056740531588716  0.8265910796260698  0.8481992207165447  1.0000
  C   C3        1.0  0.1056763288973812  0.8265916660570767  0.6517937531357276  1.0000
  C   C4        1.0  0.3943271421182786  0.1734114372123585  0.1517923471599758  1.0000
  C   C5        1.0  0.8354449830905324  0.069703900052339  0.2472197226857631  1.0000
  C   C6        1.0  0.6645489692757283  0.9303009045189369  0.7472119911222563  1.0000
  C   C7        1.0  0.16455551772516938  0.9303021488586081  0.7527806486135447  1.0000
  C   C8        1.0  0.33544808977681134  0.06970166757250237  0.25278055491288853  1.0000
  C   C9        1.0  0.8788914993041885  0.1170117725012929  0.11928528937973232  1.0000
  C   C10       1.0  0.6211023511929454  0.8829853953658285  0.6192786883895494  1.0000
  C   C11       1.0  0.12110602610761129  0.882986096255223  0.880715081932749  1.0000
  C   C12       1.0  0.3788960967727278  0.1170101125317657  0.3807177702918523  1.0000
  C   C13       1.0  0.9868181539602645  0.26251372024218966  0.09665633118651581  1.0000
  C   C14       1.0  0.5131754787966686  0.7374894248114287  0.5966482426138242  1.0000
  C   C15       1.0  0.013178676991863394  0.7374876805957129  0.9033489309138788  1.0000
  C   C16       1.0  0.48682158025498273  0.2625131472755768  0.4033462597387611  1.0000
  C   C17       1.0  0.0394630906588986  0.35933850797899686  0.2042282020606905  1.0000
  C   C18       1.0  0.460538497864377  0.6406620334398239  0.7042204256230634  1.0000
  C   C19       1.0  0.9605358134916244  0.6406593423457992  0.7957780382041406  1.0000
  C   C20       1.0  0.5394638480577357  0.3593392937466361  0.2957750548902497  1.0000
  C   C21       1.0  0.041849899738466  0.3146825765808714  0.9601190096424546  1.0000
  C   C22       1.0  0.4581443348583819  0.6853157250268325  0.4601110636068029  1.0000
  C   C23       1.0  0.9581450861081393  0.685323545985966  0.0398891869264872  1.0000
  C   C24       1.0  0.5418559480379699  0.31468210690173487  0.5398853950708613  1.0000
  N   N1        1.0  0.9903068990856668  0.3174084184745922  0.3270762015557054  1.0000
  N   N2        1.0  0.5096954813829626  0.6825970845909736  0.8270702461582788  1.0000
  N   N3        1.0  0.0096970536676011  0.6825940614937523  0.6729300387016722  1.0000
  N   N4        1.0  0.49031030630541755  0.3174077194305269  0.1729262125081519  1.0000
  O   O1        1.0  0.9330878691822451  0.25681117212941024  0.8678738449847146  1.0000
  O   O2        1.0  0.566910348229051  0.7431871553827561  0.3678637560249882  1.0000
  O   O3        1.0  0.06691309799404617  0.7431901734532713  0.1321314171157653  1.0000
  O   O4        1.0  0.43309246405586793  0.2568094684865301  0.6321317244958992  1.0000
  O   O5        1.0  0.18862910164172322  0.41123382365940847  0.9418664124247941  1.0000
  O   O6        1.0  0.3113692857365251  0.5887645054831621  0.4418587774061962  1.0000
  O   O7        1.0  0.8113631267194422  0.5887723357309298  0.05814765309640531  1.0000
  O   O8        1.0  0.6886321478061176  0.41123213680008763  0.5581386594321104  1.0000
  O   O9        1.0  0.06687968829746892  0.29113831255262573  0.6253588981478871  1.0000
  O   O10       1.0  0.43311623888487827  0.7088544432940509  0.1253479417789123  1.0000
  O   O11       1.0  0.9331189979301513  0.7088513207720409  0.37465125476506245  1.0000
  O   O12       1.0  0.5668849563918243  0.2911480735421604  0.8746446042563251  1.0000
