data_image0
_chemical_formula_structural       Zn8H48C84N12O26
_chemical_formula_sum              "Zn8 H48 C84 N12 O26"
_cell_length_a       26.607243233544576
_cell_length_b       27.346570842360318
_cell_length_c       27.08701863680481
_cell_angle_alpha    89.98833896855497
_cell_angle_beta     60.83483251942723
_cell_angle_gamma    60.708531204508695

_space_group_name_H-M_alt    "P 1"
_space_group_IT_number       1

loop_
  _space_group_symop_operation_xyz
  'x, y, z'

loop_
  _atom_site_type_symbol
  _atom_site_label
  _atom_site_symmetry_multiplicity
  _atom_site_fract_x
  _atom_site_fract_y
  _atom_site_fract_z
  _atom_site_occupancy
  Zn  Zn1       1.0  0.08789115686427353  0.8934197291285171  0.946333619134265  1.0000
  Zn  Zn2       1.0  0.08681138662810642  0.013320960533206999  0.9465219375282601  1.0000
  Zn  Zn3       1.0  0.9692741417142301  0.0098503841636344  0.0613252405868893  1.0000
  Zn  Zn4       1.0  0.9696416893374717  0.008672385132513194  0.9455499633622466  1.0000
  Zn  Zn5       1.0  0.9697970917179572  0.5687054126413499  0.5028956199627147  1.0000
  Zn  Zn6       1.0  0.9705421368831822  0.4492904864058928  0.5034056042154447  1.0000
  Zn  Zn7       1.0  0.08748003211740502  0.453905075134159  0.5055003455363689  1.0000
  Zn  Zn8       1.0  0.0899796901425276  0.451366174017707  0.38896786565566543  1.0000
  H   H1        1.0  0.3037999745705094  0.7741117564952232  0.8504036689206913  1.0000
  H   H2        1.0  0.434366450736121  0.7133948105867349  0.7845416432044487  1.0000
  H   H3        1.0  0.6231363232744512  0.7494113280109218  0.6650568176611247  1.0000
  H   H4        1.0  0.7536513002457781  0.6884349182844003  0.5982790797736968  1.0000
  H   H5        1.0  0.7591888564859133  0.53198747582838  0.6279168178009584  1.0000
  H   H6        1.0  0.628391890628677  0.5933836643567004  0.6961399750785167  1.0000
  H   H7        1.0  0.42906893792462586  0.8700468880909822  0.756407796242847  1.0000
  H   H8        1.0  0.29822475366380985  0.9311673582272986  0.8238224819824256  1.0000
  H   H9        1.0  0.08732578292826798  0.7709745211195836  0.042428151548570284  1.0000
  H   H10       1.0  0.08250675777880903  0.7108905035345997  0.11287332515871637  1.0000
  H   H11       1.0  0.983959190749303  0.7478321653553619  0.33338432034655346  1.0000
  H   H12       1.0  0.9777720218806962  0.6885553194618552  0.4045701597626418  1.0000
  H   H13       1.0  0.0847746864331285  0.5335300189718807  0.2619663493200122  1.0000
  H   H14       1.0  0.08855952173482963  0.5935025795037915  0.19111798527360685  1.0000
  H   H15       1.0  0.9721828298756566  0.8657687309870067  0.2569960349132783  1.0000
  H   H16       1.0  0.9745619173905742  0.9264872418396234  0.18686545480231587  1.0000
  H   H17       1.0  0.11158541608076424  0.7717935948516227  0.8258281322001011  1.0000
  H   H18       1.0  0.10577258221218949  0.7135387077761095  0.7592618890925351  1.0000
  H   H19       1.0  0.9467773359933388  0.751802609244123  0.6916079022862079  1.0000
  H   H20       1.0  0.9429574934043642  0.6925776920824304  0.6239981422359835  1.0000
  H   H21       1.0  0.13239385984186197  0.5374328310458553  0.5858178406904386  1.0000
  H   H22       1.0  0.13692733786319183  0.5971090483609982  0.6526573603268914  1.0000
  H   H23       1.0  0.9122251888482894  0.8680830241475092  0.8041618348027201  1.0000
  H   H24       1.0  0.918666360796422  0.9268105103900905  0.8700312146935618  1.0000
  H   H25       1.0  0.11720814040037197  0.10777639131305249  0.04300751897016402  1.0000
  H   H26       1.0  0.1123334497403192  0.17114109307495076  0.11467137205587362  1.0000
  H   H27       1.0  0.951071735051471  0.28588473496014893  0.3349454398746444  1.0000
  H   H28       1.0  0.9448263401605813  0.35030378689325664  0.40685032990005265  1.0000
  H   H29       1.0  0.13645291442520596  0.32339457887716344  0.2659046116376445  1.0000
  H   H30       1.0  0.14354288325225883  0.25766955398348307  0.19415009358164073  1.0000
  H   H31       1.0  0.9170572669258874  0.20380510004856225  0.255144459847763  1.0000
  H   H32       1.0  0.9228772040118188  0.13890178104427517  0.1837298610115213  1.0000
  H   H33       1.0  0.08916139072900359  0.13224711113402776  0.847781951021247  1.0000
  H   H34       1.0  0.08184424910957942  0.19869866160482982  0.7837514760002549  1.0000
  H   H35       1.0  0.9719109717760973  0.26545096645632776  0.66768216944196  1.0000
  H   H36       1.0  0.9669799601633926  0.33059123261041623  0.6022065744506051  1.0000
  H   H37       1.0  0.08743634024567372  0.37236417562901636  0.633078592053721  1.0000
  H   H38       1.0  0.09107160485756789  0.30807152144245714  0.6997632824820812  1.0000
  H   H39       1.0  0.9586171211971573  0.15859429640773468  0.755781996441705  1.0000
  H   H40       1.0  0.964926256814216  0.09276282760702508  0.8208151199672573  1.0000
  H   H41       1.0  0.7531997153351143  0.10213416250407899  0.18351079034560758  1.0000
  H   H42       1.0  0.6225073428645445  0.16869180761761265  0.24443564956197852  1.0000
  H   H43       1.0  0.43620844625795746  0.2896660814904165  0.20712476788908427  1.0000
  H   H44       1.0  0.3055993099131697  0.3567677228950997  0.2678596414127696  1.0000
  H   H45       1.0  0.2984676405196822  0.32964681586793876  0.4268232715745058  1.0000
  H   H46       1.0  0.429454533264142  0.26182629736787527  0.3657447599716194  1.0000
  H   H47       1.0  0.6290136262427239  0.20264640087414412  0.08725476183719398  1.0000
  H   H48       1.0  0.7600464695067899  0.13540398754476968  0.026021095722988725  1.0000
  C   C1        1.0  0.21606485049645122  0.8923582863073632  0.881030008594699  1.0000
  C   C2        1.0  0.2936414478416155  0.8561479407316309  0.8410806429403976  1.0000
  C   C3        1.0  0.33188818546646087  0.7946161359701234  0.8298075571090849  1.0000
  C   C4        1.0  0.4038836209231675  0.7609822900473303  0.7934295757568254  1.0000
  C   C5        1.0  0.4388300888480003  0.7886303025051402  0.7671128765557427  1.0000
  C   C6        1.0  0.6186614726750433  0.6745022657821166  0.684032333630036  1.0000
  C   C7        1.0  0.6536148696283633  0.7019079090714512  0.6566511594390859  1.0000
  C   C8        1.0  0.7255869346489021  0.6681221195765942  0.6197717473827568  1.0000
  C   C9        1.0  0.7638160476550054  0.6066771281875915  0.6090471391430655  1.0000
  C   C10       1.0  0.7289126318357756  0.579527648121484  0.6364797663954962  1.0000
  C   C11       1.0  0.6568007833602608  0.6133124646630249  0.6740294642681519  1.0000
  C   C12       1.0  0.8413520337371381  0.5702907605320391  0.5684211532028057  1.0000
  C   C13       1.0  0.4006673208098732  0.8499284978465409  0.7777164696107733  1.0000
  C   C14       1.0  0.3285390575924508  0.8835600096565982  0.8147949974761917  1.0000
  C   C15       1.0  0.03157524606049101  0.8887525834033099  0.0697064880635169  1.0000
  C   C16       1.0  0.030841179483111675  0.8522581515981071  0.11077629137700737  1.0000
  C   C17       1.0  0.06189844112823546  0.7912962722241871  0.08957915130735475  1.0000
  C   C18       1.0  0.05946902951590286  0.75797638142928  0.12828283745964328  1.0000
  C   C19       1.0  0.02652602847943802  0.7853259633808063  0.1889916078120777  1.0000
  C   C20       1.0  0.0370380727756371  0.6736622559546958  0.25818622500816696  1.0000
  C   C21       1.0  0.005429146332701912  0.7010444323798238  0.3185559909791921  1.0000
  C   C22       1.0  0.0022101663206868993  0.6681803141240933  0.357667450449803  1.0000
  C   C23       1.0  0.03119057211354463  0.6075850333407117  0.3371884285084263  1.0000
  C   C24       1.0  0.0626560732962531  0.580440306537838  0.2770658981172788  1.0000
  C   C25       1.0  0.06498535588175262  0.6134111817381153  0.23792917447730136  1.0000
  C   C26       1.0  0.02928664090067197  0.5716568509045244  0.3787877478751369  1.0000
  C   C27       1.0  0.9967057432686701  0.8459237252712979  0.2099372195634288  1.0000
  C   C28       1.0  0.9982664560093181  0.8792997023459319  0.1712045247128985  1.0000
  C   C29       1.0  0.01970465547331899  0.8882368955393004  0.8893627763225426  1.0000
  C   C30       1.0  0.015474972086025178  0.8526626451841182  0.8515603803710619  1.0000
  C   C31       1.0  0.06824488257670688  0.7923624516961352  0.8206870337197499  1.0000
  C   C32       1.0  0.0652109900327744  0.7600941775829141  0.7839901498259111  1.0000
  C   C33       1.0  0.008641069355114312  0.7878941313834531  0.7780610037456271  1.0000
  C   C34       1.0  0.04210153818990387  0.6773700369356063  0.6758624541409973  1.0000
  C   C35       1.0  0.9870181318147716  0.7049858427498278  0.6679947426536896  1.0000
  C   C36       1.0  0.9850796540787455  0.6721834861889704  0.6307227986010631  1.0000
  C   C37       1.0  0.03743694874242452  0.6116046862787526  0.6012490480786356  1.0000
  C   C38       1.0  0.09234471700353458  0.5843345888194305  0.6090100537031092  1.0000
  C   C39       1.0  0.09483365249073479  0.6171116569007821  0.6458751374821787  1.0000
  C   C40       1.0  0.03460474286308823  0.5754672445437449  0.5626207897967532  1.0000
  C   C41       1.0  0.955480871325605  0.8478491059723652  0.8094492489029933  1.0000
  C   C42       1.0  0.9590282526845473  0.8801257661352934  0.8458005332722749  1.0000
  C   C43       1.0  0.02384323689276609  0.08014466661465748  0.06801462011025451  1.0000
  C   C44       1.0  0.020452925543736497  0.11947108396788049  0.10944214255076902  1.0000
  C   C45       1.0  0.07379028437287624  0.12884407307551973  0.0896126781697149  1.0000
  C   C46       1.0  0.07124165139325811  0.16383576243065787  0.12899689599134226  1.0000
  C   C47       1.0  0.01443430591338308  0.1905961085960968  0.1890050118701865  1.0000
  C   C48       1.0  0.047548105297664706  0.2686869384629985  0.2604244603736561  1.0000
  C   C49       1.0  0.9912393651298927  0.29439520341111347  0.32061266775198044  1.0000
  C   C50       1.0  0.987941812708847  0.3299441937900908  0.36013217206144793  1.0000
  C   C51       1.0  0.04009505510525457  0.34082815384434173  0.34030327125491067  1.0000
  C   C52       1.0  0.09640981723190119  0.31470622954291366  0.2804632098996009  1.0000
  C   C53       1.0  0.10033064567024748  0.2785595967778177  0.24085838407559382  1.0000
  C   C54       1.0  0.03567176215712931  0.3809129734213525  0.38190170436835297  1.0000
  C   C55       1.0  0.9605907287145711  0.18212733373513146  0.20858229798482592  1.0000
  C   C56       1.0  0.9637973723422776  0.14647098980795897  0.16915560438437893  1.0000
  C   C57       1.0  0.029917165633456495  0.07057329080355149  0.8771229865734824  1.0000
  C   C58       1.0  0.027205025235303954  0.10894400257866722  0.8380346018573164  1.0000
  C   C59       1.0  0.06058101855475676  0.13853105751756092  0.8275277094842934  1.0000
  C   C60       1.0  0.05670117912784888  0.1751602191370978  0.7922606242233954  1.0000
  C   C61       1.0  0.019397470471218942  0.18240932832636503  0.7666286612303496  1.0000
  C   C62       1.0  0.03219007297381183  0.28310412140790925  0.6869627448277598  1.0000
  C   C63       1.0  0.9966520101368771  0.2892833539942785  0.6598059830929515  1.0000
  C   C64       1.0  0.9941148918493926  0.3251573404822777  0.6237118019038731  1.0000
  C   C65       1.0  0.027190091555674187  0.3549365025097939  0.6138493268227806  1.0000
  C   C66       1.0  0.06221810165151708  0.3489381916192187  0.6411917386906084  1.0000
  C   C67       1.0  0.06437368434458787  0.3134585586229973  0.6778207164917448  1.0000
  C   C68       1.0  0.026085298954434788  0.39236335124041916  0.5737882858916379  1.0000
  C   C69       1.0  0.9867423714285835  0.15238502070296525  0.7765043858285027  1.0000
  C   C70       1.0  0.9903596439571628  0.11604960045665537  0.8122397096569645  1.0000
  C   C71       1.0  0.8410492949510483  0.07511862136378508  0.06506872509247326  1.0000
  C   C72       1.0  0.7637458745533722  0.11503713859089969  0.10136579619555157  1.0000
  C   C73       1.0  0.7253178016345743  0.12435667175454768  0.16303072249181838  1.0000
  C   C74       1.0  0.6534188532799449  0.16096671981171798  0.19670614004497375  1.0000
  C   C75       1.0  0.6190042561272263  0.1890483370212053  0.16881811700250904  1.0000
  C   C76       1.0  0.4395952942221726  0.2724626651041503  0.28349374895883267  1.0000
  C   C77       1.0  0.40526223422055097  0.2989055934482039  0.2551414888722193  1.0000
  C   C78       1.0  0.33339368791779816  0.3358206660265282  0.2887196917252766  1.0000
  C   C79       1.0  0.29486555462396064  0.3470710973661966  0.3507459536652604  1.0000
  C   C80       1.0  0.32917712547675393  0.3205193194871682  0.37882177615224316  1.0000
  C   C81       1.0  0.4012333926916796  0.2832229150064122  0.34529199382561876  1.0000
  C   C82       1.0  0.21754600466138632  0.38719784677039826  0.38671053662439914  1.0000
  C   C83       1.0  0.6572799352431247  0.18009413372147512  0.1073728500453869  1.0000
  C   C84       1.0  0.7293455880478987  0.1431336597315678  0.07375442530373291  1.0000
  N   N1        1.0  0.511795353515289  0.7590052988850433  0.729172208982881  1.0000
  N   N2        1.0  0.5457028969402771  0.7041887825546597  0.7222215126306111  1.0000
  N   N3        1.0  0.020545883197272043  0.7562317257165528  0.2326513554485317  1.0000
  N   N4        1.0  0.043216429641312094  0.7025599421079602  0.2143382047110833  1.0000
  N   N5        1.0  0.0003983038042249957  0.7596161364781222  0.7416370580886067  1.0000
  N   N6        1.0  0.049709646553388526  0.7059124358567387  0.7126126822671354  1.0000
  N   N7        1.0  0.006017996283354428  0.22692284223460035  0.2332876709532812  1.0000
  N   N8        1.0  0.056221229126037955  0.232256794646247  0.21601651567370794  1.0000
  N   N9        1.0  0.012004060624434548  0.2184624747050988  0.730009726484532  1.0000
  N   N10       1.0  0.038872049277493693  0.24744775044540285  0.7240033528302234  1.0000
  N   N11       1.0  0.5462067321784472  0.22712623541207935  0.19853163595627893  1.0000
  N   N12       1.0  0.5123864396084343  0.23439274686624142  0.25387594568474003  1.0000
  O   O1        1.0  0.03058402846984629  0.9801314438773046  0.9742719149655342  1.0000
  O   O2        1.0  0.18547542264771985  0.9483699630660211  0.8945336634110744  1.0000
  O   O3        1.0  0.18688446053321414  0.8643877773622038  0.8983914287591974  1.0000
  O   O4        1.0  0.871815209197095  0.5142915059782425  0.5551471243774844  1.0000
  O   O5        1.0  0.8706619360072806  0.5980936173207707  0.5502789890089662  1.0000
  O   O6        1.0  0.99427767336762  0.9446243723658224  0.09415082880226339  1.0000
  O   O7        1.0  0.06881594010121712  0.8616140050941326  0.014001242171282532  1.0000
  O   O8        1.0  0.06680769662315818  0.5157023232743895  0.35478997124975103  1.0000
  O   O9        1.0  0.9908398859513454  0.5993403318411764  0.43446091420254623  1.0000
  O   O10       1.0  0.9722277954089549  0.9435109599426424  0.912038785032742  1.0000
  O   O11       1.0  0.07007699603971676  0.8612474688719229  0.8958517591606708  1.0000
  O   O12       1.0  0.08177073859705773  0.5201440510998127  0.5411452529107735  1.0000
  O   O13       1.0  0.985736089428116  0.6020958352421885  0.5542564341004239  1.0000
  O   O14       1.0  0.9773477589997556  0.06897765456917429  0.0916410776828016  1.0000
  O   O15       1.0  0.0725383774026724  0.060614479814802294  0.012802676680188108  1.0000
  O   O16       1.0  0.08210326915139628  0.39215177156921033  0.3586066369163348  1.0000
  O   O17       1.0  0.9861955219023388  0.4009971555708701  0.4369124405903974  1.0000
  O   O18       1.0  0.9966723629540014  0.046620733626816985  0.8855262806701912  1.0000
  O   O19       1.0  0.06462523165870245  0.06490140028574837  0.8992129792947026  1.0000
  O   O20       1.0  0.06065867669993705  0.4151326671467642  0.5646816688039067  1.0000
  O   O21       1.0  0.991252782253319  0.3984816334081316  0.5517260525444743  1.0000
  O   O22       1.0  0.8723305342638028  0.06799208700898161  0.009234235369867012  1.0000
  O   O23       1.0  0.8700887970083854  0.051078350626106286  0.0923443207463209  1.0000
  O   O24       1.0  0.18585507371230384  0.39601685885346427  0.44285205817584483  1.0000
  O   O25       1.0  0.1889499886331834  0.4096739865898086  0.35875789668725133  1.0000
  O   O26       1.0  0.027340312173073783  0.48196227920059437  0.47593035222730157  1.0000
