data_image0
_chemical_formula_structural       Zn8H12C36N12O26
_chemical_formula_sum              "Zn8 H12 C36 N12 O26"
_cell_length_a       18.174959104291517
_cell_length_b       18.203186905283545
_cell_length_c       18.263994118174153
_cell_angle_alpha    119.85497770407909
_cell_angle_beta     90.06075851875205
_cell_angle_gamma    119.90064282742246

_space_group_name_H-M_alt    "P 1"
_space_group_IT_number       1

loop_
  _space_group_symop_operation_xyz
  'x, y, z'

loop_
  _atom_site_type_symbol
  _atom_site_label
  _atom_site_symmetry_multiplicity
  _atom_site_fract_x
  _atom_site_fract_y
  _atom_site_fract_z
  _atom_site_occupancy
  Zn  Zn1       1.0  0.03969253569054839  0.09257734163937667  0.9402821549126584  1.0000
  Zn  Zn2       1.0  0.8589522600458394  0.909404668572918  0.9381253541220359  1.0000
  Zn  Zn3       1.0  0.035965610218944705  0.0854017354829466  0.11101992013565361  1.0000
  Zn  Zn4       1.0  0.03515551233513041  0.9102279866751387  0.938201115645242  1.0000
  Zn  Zn5       1.0  0.4499120739996344  0.913976815595305  0.5265948906175808  1.0000
  Zn  Zn6       1.0  0.6242606581990698  0.08678722531290357  0.5259875634625644  1.0000
  Zn  Zn7       1.0  0.4470915291333171  0.08761849871511627  0.5267328937412401  1.0000
  Zn  Zn8       1.0  0.4481055812054962  0.9087500310732465  0.34816025501627484  1.0000
  H   H1        1.0  0.6726694965380133  0.8838060297054752  0.7867312896460702  1.0000
  H   H2        1.0  0.5732115264724129  0.8832126179012573  0.6864529027922259  1.0000
  H   H3        1.0  0.19555692772472363  0.39991658596249374  0.3090053298618828  1.0000
  H   H4        1.0  0.29475966046618396  0.5984735004256193  0.40863107692545947  1.0000
  H   H5        1.0  0.1968677103483075  0.8810516926672136  0.7865579781702365  1.0000
  H   H6        1.0  0.2953833973803838  0.8803221500836995  0.6861636771402359  1.0000
  H   H7        1.0  0.9155793948728643  0.113059072678233  0.3032686012392105  1.0000
  H   H8        1.0  0.8172531138543847  0.11325259351597339  0.4038344110690062  1.0000
  H   H9        1.0  0.9119467617885777  0.5969570297946731  0.7892539770289773  1.0000
  H   H10       1.0  0.8124430441030696  0.3984852366195425  0.6894125676437141  1.0000
  H   H11       1.0  0.18371136181615813  0.10998973404278439  0.3001573075264758  1.0000
  H   H12       1.0  0.2822487120167025  0.10976104140350167  0.40054941333387006  1.0000
  C   C1        1.0  0.855194648052553  0.0024320314716491  0.8439911675815779  1.0000
  C   C2        1.0  0.7931867493079424  0.9982634740944218  0.7844889546646312  1.0000
  C   C3        1.0  0.6999667915401061  0.9320264542613825  0.7618830300462703  1.0000
  C   C4        1.0  0.6463643881958064  0.9317135413221393  0.7078038459021344  1.0000
  C   C5        1.0  0.6901383179643903  0.9975807168931752  0.6805952713772426  1.0000
  C   C6        1.0  0.6349571089980516  0.0012125314650503999  0.6222106322639505  1.0000
  C   C7        1.0  0.1341758388982797  0.2807144038113448  0.12673863736390698  1.0000
  C   C8        1.0  0.19297998632188043  0.39755036955828865  0.18939824399949154  1.0000
  C   C9        1.0  0.2180861078312972  0.4461164312029948  0.28207736505618897  1.0000
  C   C10       1.0  0.27162570750289927  0.553254311314177  0.33584743308914977  1.0000
  C   C11       1.0  0.2957887185525081  0.6031914570120732  0.2925950082041595  1.0000
  C   C12       1.0  0.3538351714694912  0.7200298652648129  0.347085444673951  1.0000
  C   C13       1.0  0.13323645721030888  0.0002511512074007999  0.8440516749409496  1.0000
  C   C14       1.0  0.19107706860702933  0.9959885599196026  0.7847590628459712  1.0000
  C   C15       1.0  0.21778916122328698  0.9294245123579329  0.7618497234989191  1.0000
  C   C16       1.0  0.2709323995119207  0.9290716032177215  0.707732047922562  1.0000
  C   C17       1.0  0.2930983836622191  0.995199408338564  0.6807697803083458  1.0000
  C   C18       1.0  0.35185276043791464  0.9991095463521446  0.6224421767329176  1.0000
  C   C19       1.0  0.8525762105081469  0.9970133091601524  0.1219013685927733  1.0000
  C   C20       1.0  0.7980433728997766  0.9999387228401985  0.18437070738926303  1.0000
  C   C21       1.0  0.842392777906305  0.0651459765084823  0.27689935323108733  1.0000
  C   C22       1.0  0.7893304547044124  0.0652649827826934  0.3311271906242297  1.0000
  C   C23       1.0  0.6960439019535016  0.00023627698444530048  0.2883856754169615  1.0000
  C   C24       1.0  0.6341885055355689  0.9979296822120887  0.34369327052416326  1.0000
  C   C25       1.0  0.8502764108184807  0.7179122083933933  0.8419583485859192  1.0000
  C   C26       1.0  0.7952242273348277  0.6009803015840659  0.7830014273402881  1.0000
  C   C27       1.0  0.8389033130664388  0.5514776116745423  0.7628058955816358  1.0000
  C   C28       1.0  0.7852182337769734  0.44438583822056893  0.7089472869478612  1.0000
  C   C29       1.0  0.6921768440459886  0.3953583623810886  0.6795200938274917  1.0000
  C   C30       1.0  0.6302375580334711  0.2784811575483346  0.6210409441705096  1.0000
  C   C31       1.0  0.13140266365851977  0.9953403385571279  0.11911223937645593  1.0000
  C   C32       1.0  0.18894087545989893  0.9979439772196556  0.18127492828240577  1.0000
  C   C33       1.0  0.2093887088454025  0.06250437838627927  0.2737797195512996  1.0000
  C   C34       1.0  0.2625090133660635  0.062367427305872504  0.3278710834285263  1.0000
  C   C35       1.0  0.29124759441958753  0.9978626689198008  0.28508505256402134  1.0000
  C   C36       1.0  0.3505519051525355  0.9954972528757081  0.34077118393681605  1.0000
  N   N1        1.0  0.7802811074959592  0.05922081371403459  0.7038102830895241  1.0000
  N   N2        1.0  0.8318289893772076  0.05957629699852158  0.7558118154003637  1.0000
  N   N3        1.0  0.2697824304297641  0.5524187648717743  0.2029694939252664  1.0000
  N   N4        1.0  0.21839160505012958  0.44964892692883734  0.15138958374505754  1.0000
  N   N5        1.0  0.26475052015424433  0.057030638773468874  0.7041937976933283  1.0000
  N   N6        1.0  0.21377502968253032  0.057478799631070394  0.7562574307516883  1.0000
  N   N7        1.0  0.6568855557662873  0.9387985877621361  0.19885397304982183  1.0000
  N   N8        1.0  0.707872849682211  0.938577053740822  0.14681498853349947  1.0000
  N   N9        1.0  0.6536925055127938  0.4469339596392814  0.7004219019039654  1.0000
  N   N10       1.0  0.7052705198336824  0.5498305250239568  0.7522107329426433  1.0000
  N   N11       1.0  0.26943052629241043  0.9370529726697683  0.19558167530335882  1.0000
  N   N12       1.0  0.21812331448947464  0.9369581156553576  0.14361052678199115  1.0000
  O   O1        1.0  0.9918394541877404  0.99913598850096  0.9802844142980405  1.0000
  O   O2        1.0  0.8146695011351144  0.9384928340747649  0.864884772072081  1.0000
  O   O3        1.0  0.9391463475745425  0.067011983524921  0.8674116812130207  1.0000
  O   O4        1.0  0.6759555692976986  0.0633109055959409  0.6002906433655184  1.0000
  O   O5        1.0  0.5499063992254564  0.9394661491658309  0.6004757219630007  1.0000
  O   O6        1.0  0.11087936656476667  0.23465803985754966  0.1658922956612585  1.0000
  O   O7        1.0  0.11337067585691327  0.2391993727057694  0.043433748459747776  1.0000
  O   O8        1.0  0.3751271573816055  0.7623776913948814  0.3057430595523342  1.0000
  O   O9        1.0  0.3759178727574978  0.765063933694826  0.43185988413108584  1.0000
  O   O10       1.0  0.10681435254286963  0.9336124336973625  0.8622541180655859  1.0000
  O   O11       1.0  0.1165878395105935  0.0673420717641022  0.8699953336796469  1.0000
  O   O12       1.0  0.37144696605517424  0.0600019186509826  0.5994648597688013  1.0000
  O   O13       1.0  0.37658634047245704  0.9386894375984197  0.6019250505249332  1.0000
  O   O14       1.0  0.9377275810670653  0.059368262857354595  0.1613190036831469  1.0000
  O   O15       1.0  0.8111299980854625  0.9352818960054134  0.038440117869932074  1.0000
  O   O16       1.0  0.5502713355476915  0.9334967066483982  0.3030805971303892  1.0000
  O   O17       1.0  0.6745835538795645  0.0634627184077416  0.4281538532469895  1.0000
  O   O18       1.0  0.9353054686306521  0.7625461635018808  0.8647148679045173  1.0000
  O   O19       1.0  0.8090933353217054  0.7608533509358394  0.8635141594933344  1.0000
  O   O20       1.0  0.5461618537648932  0.23576840961367643  0.5998342401988808  1.0000
  O   O21       1.0  0.6706577921721717  0.2338600709693708  0.598836364996501  1.0000
  O   O22       1.0  0.11052622201248141  0.05947998462604429  0.1587177286750219  1.0000
  O   O23       1.0  0.10896641151120418  0.9318947475959402  0.035503633881795234  1.0000
  O   O24       1.0  0.3736923241119284  0.9345707130416511  0.3003114753906927  1.0000
  O   O25       1.0  0.371639430962567  0.0573376395256986  0.42515487888960735  1.0000
  O   O26       1.0  0.49210148923363334  0.999735461493067  0.48092932832866353  1.0000
