data_image0
_chemical_formula_structural       Cd4H48C24Br12N12
_chemical_formula_sum              "Cd4 H48 C24 Br12 N12"
_cell_length_a       8.065314314381702
_cell_length_b       8.66515587101126
_cell_length_c       16.882629612564898
_cell_angle_alpha    89.99982184741991
_cell_angle_beta     95.51960469219247
_cell_angle_gamma    90.00006036648762

_space_group_name_H-M_alt    "P 1"
_space_group_IT_number       1

loop_
  _space_group_symop_operation_xyz
  'x, y, z'

loop_
  _atom_site_type_symbol
  _atom_site_label
  _atom_site_symmetry_multiplicity
  _atom_site_fract_x
  _atom_site_fract_y
  _atom_site_fract_z
  _atom_site_occupancy
  Cd  Cd1       1.0  0.7871331504770042  0.032883223533396205  0.19414067651060657  1.0000
  Cd  Cd2       1.0  0.2128662203250187  0.032887224684074616  0.3058588418034844  1.0000
  Cd  Cd3       1.0  0.21286753920205104  0.9671158864670986  0.8058588398688826  1.0000
  Cd  Cd4       1.0  0.7871332237221226  0.9671176555526415  0.6941406140920705  1.0000
  H   H1        1.0  0.4125199805917176  0.22224620532514192  0.14304124388036138  1.0000
  H   H2        1.0  0.5874858429002644  0.22224449317243264  0.3569523595549242  1.0000
  H   H3        1.0  0.5874870054237391  0.777754058742623  0.856952654868273  1.0000
  H   H4        1.0  0.4125149081272637  0.7777557708914316  0.6430418287993902  1.0000
  H   H5        1.0  0.6617492810194321  0.6532264056941058  0.1597856474735195  1.0000
  H   H6        1.0  0.3382580076392401  0.653230322140665  0.3402191799576713  1.0000
  H   H7        1.0  0.3382501016773248  0.3467727042899114  0.8402191364508411  1.0000
  H   H8        1.0  0.661748882946469  0.3467710959494638  0.6597830068278155  1.0000
  H   H9        1.0  0.8937782957717458  0.4150114531640625  0.18557084928067266  1.0000
  H   H10       1.0  0.1062263117414304  0.4150152990924312  0.3144336391280049  1.0000
  H   H11       1.0  0.1062235986443625  0.5849911189681405  0.8144322795916776  1.0000
  H   H12       1.0  0.8937718321412831  0.5849930432715809  0.6855704923070007  1.0000
  H   H13       1.0  0.3329272029569736  0.6355034967044517  0.1745203922543723  1.0000
  H   H14       1.0  0.6670813780485076  0.6355032052529952  0.3254791954558698  1.0000
  H   H15       1.0  0.6670772372583329  0.3644967673482071  0.8254781215570333  1.0000
  H   H16       1.0  0.3329230553513084  0.3644993668925379  0.6745199103564161  1.0000
  H   H17       1.0  0.23558006711784432  0.4576879246180993  0.1452874099968398  1.0000
  H   H18       1.0  0.764429599066794  0.45768639796709454  0.3547137013259202  1.0000
  H   H19       1.0  0.7644243458316852  0.5423123394274183  0.8547134718253486  1.0000
  H   H20       1.0  0.23557483433302204  0.5423161741784384  0.6452854044863727  1.0000
  H   H21       1.0  0.3998439934676199  0.678638783618915  0.0323947027363971  1.0000
  H   H22       1.0  0.6001571561643432  0.6786364184237  0.46760386238454277  1.0000
  H   H23       1.0  0.6001567098438512  0.3213591723378144  0.967603629638603  1.0000
  H   H24       1.0  0.3998373189756492  0.3213615375309117  0.5323941675934378  1.0000
  H   H25       1.0  0.31125559952058524  0.49680827784560927  0.005583744519093205  1.0000
  H   H26       1.0  0.6887441407072998  0.4968058375466314  0.4944162295571175  1.0000
  H   H27       1.0  0.6887425920729626  0.503189678104917  0.9944162429051885  1.0000
  H   H28       1.0  0.3112503344326852  0.5031921184079734  0.5055818004208703  1.0000
  H   H29       1.0  0.09773712940362599  0.6775833454445036  0.9637200533295386  1.0000
  H   H30       1.0  0.9022621351858149  0.677581559525045  0.5362809786551423  1.0000
  H   H31       1.0  0.9022623078246852  0.3224157645537816  0.036279994573249014  1.0000
  H   H32       1.0  0.09773107387054131  0.3224163964237903  0.4637187668515281  1.0000
  H   H33       1.0  0.03496489321297961  0.5976659663476341  0.053355775648910295  1.0000
  H   H34       1.0  0.965036141846504  0.5976675440506156  0.4466470605952395  1.0000
  H   H35       1.0  0.9650345303814942  0.4023308355524193  0.9466454562610735  1.0000
  H   H36       1.0  0.03495829921221371  0.4023327199897296  0.5533539293944117  1.0000
  H   H37       1.0  0.15143717883345428  0.8309299417223456  0.1218649794583087  1.0000
  H   H38       1.0  0.8485603255609888  0.8309306641156482  0.3781361251757858  1.0000
  H   H39       1.0  0.8485597534929069  0.16906801422418738  0.8781361314919636  1.0000
  H   H40       1.0  0.15143411549820476  0.1690707539720364  0.621864864812963  1.0000
  H   H41       1.0  0.9937818145086014  0.8619282677132674  0.05360044956833582  1.0000
  H   H42       1.0  0.006216974748681998  0.8619300688099756  0.4463994828791655  1.0000
  H   H43       1.0  0.0062176227187577945  0.13806853419035287  0.9463995983362565  1.0000
  H   H44       1.0  0.993778725577215  0.13807019523436992  0.5536003835844951  1.0000
  H   H45       1.0  0.18965675293065223  0.9058925264206009  0.032818705603098394  1.0000
  H   H46       1.0  0.810342058993733  0.9058915221513856  0.4671823418389209  1.0000
  H   H47       1.0  0.8103426706642978  0.0941054295267847  0.967182526305983  1.0000
  H   H48       1.0  0.1896536208828365  0.0941087418876094  0.5328193006328377  1.0000
  C   C1        1.0  0.514346356535178  0.3045240367517578  0.1505203517062483  1.0000
  C   C2        1.0  0.4856607123631774  0.3045222705635311  0.3494791030794744  1.0000
  C   C3        1.0  0.4856580904970542  0.6954773813500095  0.8494775701015553  1.0000
  C   C4        1.0  0.5143399773158778  0.6954768394369564  0.6505204133000149  1.0000
  C   C5        1.0  0.6469526816543409  0.528937807786697  0.1602283007445209  1.0000
  C   C6        1.0  0.3530570297309268  0.5289428953363214  0.3397738827336312  1.0000
  C   C7        1.0  0.35305296329611485  0.471061302208355  0.8397738255633768  1.0000
  C   C8        1.0  0.6469461375881167  0.4710666010874218  0.6602269386019015  1.0000
  C   C9        1.0  0.7597960758845231  0.4106064296218861  0.17218564556350197  1.0000
  C   C10       1.0  0.2402110397093793  0.41061032532088854  0.32781719471066134  1.0000
  C   C11       1.0  0.2402083166156643  0.5893938344182883  0.8278170122667773  1.0000
  C   C12       1.0  0.7597883566226429  0.5893945549033432  0.6721864052037745  1.0000
  C   C13       1.0  0.3330675356061333  0.5396045998201869  0.13191302279047787  1.0000
  C   C14       1.0  0.6669384681307946  0.5396040520191788  0.3680871865015547  1.0000
  C   C15       1.0  0.6669356453415106  0.4603945101811533  0.8680866145478204  1.0000
  C   C16       1.0  0.33306223518210487  0.4603973660795404  0.6319111458707312  1.0000
  C   C17       1.0  0.3028598885462088  0.5956903899826144  0.04589067335341918  1.0000
  C   C18       1.0  0.6971411653298245  0.5956882002198681  0.45411038998676634  1.0000
  C   C19       1.0  0.6971395418647076  0.4043064119192223  0.9541099665538724  1.0000
  C   C20       1.0  0.3028557806294216  0.4043097557302389  0.5458895369581142  1.0000
  C   C21       1.0  0.1311728422463219  0.6669320100136529  0.0280340991769421  1.0000
  C   C22       1.0  0.8688295024560657  0.6669321878751261  0.4719680968143507  1.0000
  C   C23       1.0  0.868827833798889  0.33306479188861005  0.9719666012097504  1.0000
  C   C24       1.0  0.1311686823219844  0.3330680761682743  0.5280324826108185  1.0000
  Br  Br1       1.0  0.5000012800003688  0.9029134281287696  0.25000002477524663  1.0000
  Br  Br2       1.0  0.500000655314409  0.09708914401413439  0.7499995520809292  1.0000
  Br  Br3       1.0  0.7147495003669135  0.9006233566196401  0.0477623500165478  1.0000
  Br  Br4       1.0  0.2852481092873802  0.9006219317436149  0.4522345011988165  1.0000
  Br  Br5       1.0  0.28524747967646386  0.09937921552869972  0.9522346169112196  1.0000
  Br  Br6       1.0  0.7147488775705354  0.0993760242171859  0.5477618737298826  1.0000
  Br  Br7       1.0  0.09674238239063017  0.15357674495741946  0.15254527637946316  1.0000
  Br  Br8       1.0  0.9032445976373894  0.15356847262701484  0.3474564077045343  1.0000
  Br  Br9       1.0  0.9032595461062697  0.8464223650417111  0.8474548924821264  1.0000
  Br  Br10      1.0  0.09674111716147851  0.8464237130772787  0.6525447509383325  1.0000
  Br  Br11      1.0  7.872288705000685e-07  0.7766477126259731  0.2499997560870213  1.0000
  Br  Br12      1.0  2.5998249949983837e-07  0.22335206533753646  0.7499996771914397  1.0000
  N   N1        1.0  0.6754515863136987  0.27158294238637387  0.1657129439072449  1.0000
  N   N2        1.0  0.32455298456886794  0.27158803522217306  0.3342846656156127  1.0000
  N   N3        1.0  0.3245528675335407  0.7284150135751872  0.8342843859005739  1.0000
  N   N4        1.0  0.6754477187445004  0.7284145369238716  0.6657136667557635  1.0000
  N   N5        1.0  0.49214561329777246  0.45980572055866287  0.1471576809432591  1.0000
  N   N6        1.0  0.5078603245499309  0.4598062638241061  0.352842653612548  1.0000
  N   N7        1.0  0.5078588132841658  0.5401933894430967  0.8528420168744473  1.0000
  N   N8        1.0  0.49213913312866714  0.5401951542741871  0.6471556182803297  1.0000
  N   N9        1.0  0.1187486564211042  0.8254379969010158  0.0612281126456793  1.0000
  N   N10       1.0  0.8812500890723385  0.8254372323997644  0.4387730610899965  1.0000
  N   N11       1.0  0.8812507808067379  0.1745599590499367  0.9387719352580105  1.0000
  N   N12       1.0  0.11874559080327877  0.1745607235445661  0.5612285813835741  1.0000
