data_image0
_chemical_formula_structural       ZnMoH18C14N4O4
_chemical_formula_sum              "Zn1 Mo1 H18 C14 N4 O4"
_cell_length_a       7.005709483928783
_cell_length_b       9.413369244979537
_cell_length_c       9.413373309413098
_cell_angle_alpha    84.14221033772532
_cell_angle_beta     88.60957866499562
_cell_angle_gamma    88.60949736084092

_space_group_name_H-M_alt    "P 1"
_space_group_IT_number       1

loop_
  _space_group_symop_operation_xyz
  'x, y, z'

loop_
  _atom_site_type_symbol
  _atom_site_label
  _atom_site_symmetry_multiplicity
  _atom_site_fract_x
  _atom_site_fract_y
  _atom_site_fract_z
  _atom_site_occupancy
  Zn  Zn1       1.0  0.49999992467704846  0.08222246385607691  0.91777862491319  1.0000
  Mo  Mo1       1.0  5.984119997729718e-10  9.646119364960006e-05  0.9999043715246358  1.0000
  H   H1        1.0  0.27579399496963924  0.16373410126918486  0.19865592780159597  1.0000
  H   H2        1.0  0.724205549693039  0.8013455333557715  0.8362662719769389  1.0000
  H   H3        1.0  0.4878510690416816  0.26386897916398777  0.18719804582880067  1.0000
  H   H4        1.0  0.5121487212195318  0.8128031561612375  0.7361311005487464  1.0000
  H   H5        1.0  0.30479866977809417  0.9056702764956273  0.20248880211278936  1.0000
  H   H6        1.0  0.6952020795613905  0.7975117903287128  0.0943291044662757  1.0000
  H   H7        1.0  0.50964635623248  0.8667832039592936  0.3076930973154219  1.0000
  H   H8        1.0  0.4903569046767018  0.6923068872726362  0.1332170878828833  1.0000
  H   H9        1.0  0.7542849379941854  0.1257592308797726  0.387639510303174  1.0000
  H   H10       1.0  0.24571573159490603  0.6123623683978323  0.8742405895711371  1.0000
  H   H11       1.0  0.13955871067884118  0.1367833310353319  0.43112615372704244  1.0000
  H   H12       1.0  0.860439799607171  0.5688753565209481  0.8632136285717992  1.0000
  H   H13       1.0  0.17930795587319173  0.10370910430473398  0.6984373675590518  1.0000
  H   H14       1.0  0.8206904593549778  0.30156345101271853  0.8962879101140898  1.0000
  H   H15       1.0  0.7659139128653007  0.09162987999017251  0.6567926107362823  1.0000
  H   H16       1.0  0.23408696325629555  0.34320706304103515  0.9083697641685903  1.0000
  H   H17       1.0  0.6720508380796274  0.052029906805422924  0.1692692760721641  1.0000
  H   H18       1.0  0.3279489683134712  0.8307315663194076  0.9479711002022241  1.0000
  C   C1        1.0  0.42692322020563706  0.16045825194990468  0.2276389719793741  1.0000
  C   C2        1.0  0.5730762433766471  0.772361499149035  0.8395418134859086  1.0000
  C   C3        1.0  0.4440098658271764  0.13848284495993826  0.3879070374355251  1.0000
  C   C4        1.0  0.5559914138737482  0.612094506086528  0.8615163624725639  1.0000
  C   C5        1.0  0.4620556070170279  0.9042174569033249  0.199089137543595  1.0000
  C   C6        1.0  0.5379461189335045  0.8009112853024121  0.0957823856551201  1.0000
  C   C7        1.0  0.6226901335023028  0.12386343949835783  0.4524719377176751  1.0000
  C   C8        1.0  0.3773083926973796  0.5475274292826527  0.8761370822187757  1.0000
  C   C9        1.0  0.2813584282666141  0.1295555394286367  0.47708510626028305  1.0000
  C   C10       1.0  0.7186419563031167  0.522916420516836  0.8704433492221639  1.0000
  C   C11       1.0  0.3018397484703285  0.10961333397199982  0.624556614365062  1.0000
  C   C12       1.0  0.6981607717781271  0.3754430416804979  0.8903841631238407  1.0000
  C   C13       1.0  0.6311909873678444  0.10361501993094177  0.6005457365433386  1.0000
  C   C14       1.0  0.3688109566052659  0.3994545756679031  0.8963843784654912  1.0000
  N   N1        1.0  0.526351758561276  0.049765098080222  0.15262646218335618  1.0000
  N   N2        1.0  0.4736500819748882  0.8473740983352726  0.9502344323131665  1.0000
  N   N3        1.0  0.4735697650676513  0.09708431111224772  0.685900791333026  1.0000
  N   N4        1.0  0.5264288980224662  0.31409919595423463  0.9029127308153235  1.0000
  O   O1        1.0  0.20054310157241415  0.1087297674367278  0.9443271554790369  1.0000
  O   O2        1.0  0.7994560714715317  0.05567326834312069  0.8912712903127158  1.0000
  O   O3        1.0  0.06214978566010388  0.8200988495112825  0.9785623601728801  1.0000
  O   O4        1.0  0.937848472508449  0.0214374755204361  0.1799034660453103  1.0000
