data_image0
_chemical_formula_structural       Zr6H62C92N10O40
_chemical_formula_sum              "Zr6 H62 C92 N10 O40"
_cell_length_a       19.05838951536864
_cell_length_b       19.056569826329813
_cell_length_c       19.05319721648273
_cell_angle_alpha    59.89404038897913
_cell_angle_beta     60.00279540728873
_cell_angle_gamma    59.98552207202931

_space_group_name_H-M_alt    "P 1"
_space_group_IT_number       1

loop_
  _space_group_symop_operation_xyz
  'x, y, z'

loop_
  _atom_site_type_symbol
  _atom_site_label
  _atom_site_symmetry_multiplicity
  _atom_site_fract_x
  _atom_site_fract_y
  _atom_site_fract_z
  _atom_site_occupancy
  Zr  Zr1       1.0  0.9061685020224174  0.40773068673139073  0.5955377374942474  1.0000
  Zr  Zr2       1.0  0.09059075639726198  0.5948907773746724  0.4082856536683651  1.0000
  Zr  Zr3       1.0  0.09193178368120392  0.4096707335551457  0.5940132752569911  1.0000
  Zr  Zr4       1.0  0.9043296089044689  0.5934818407726964  0.4102926317074209  1.0000
  Zr  Zr5       1.0  0.9056645391095017  0.5940660858677588  0.5946731810465239  1.0000
  Zr  Zr6       1.0  0.09098061463573257  0.4086615118812558  0.40927251044791296  1.0000
  H   H1        1.0  0.9265283089396871  0.42838384151966835  0.7213553991992186  1.0000
  H   H2        1.0  0.923834129465604  0.720770456583409  0.42890472108624106  1.0000
  H   H3        1.0  0.2172152732604574  0.4298574535795153  0.427157904755653  1.0000
  H   H4        1.0  0.9256250712334123  0.4266744540059902  0.43047368635005534  1.0000
  H   H5        1.0  0.2772798447027256  0.6419678147020988  0.1418340044171131  1.0000
  H   H6        1.0  0.6400569025807594  0.44116391534424065  0.7842097802858561  1.0000
  H   H7        1.0  0.7118176505839598  0.569239839131562  0.857735248535541  1.0000
  H   H8        1.0  0.5821982565105441  0.5650506047530185  0.9904926405211757  1.0000
  H   H9        1.0  0.3539113935141528  0.3676162987484233  0.21364646567170112  1.0000
  H   H10       1.0  0.4870036537394355  0.37024826120461535  0.08431688581431021  1.0000
  H   H11       1.0  0.1344489221038145  0.7840886341074762  0.441361953099488  1.0000
  H   H12       1.0  0.9384809391447675  0.1414662781015537  0.64243308509505  1.0000
  H   H13       1.0  0.06433251260512655  0.2134834063242295  0.36805710774904554  1.0000
  H   H14       1.0  0.05777541912019756  0.08430587222633076  0.3705438454950284  1.0000
  H   H15       1.0  0.8611358868869983  0.857031585535559  0.569730060685004  1.0000
  H   H16       1.0  0.8618281090743519  0.9899956147117662  0.5654616951686365  1.0000
  H   H17       1.0  0.27762161456949014  0.14069207481578153  0.44610297527694365  1.0000
  H   H18       1.0  0.640150393515782  0.7816803970139148  0.6402334400305849  1.0000
  H   H19       1.0  0.7106653243807339  0.858227536383687  0.3664710993486014  1.0000
  H   H20       1.0  0.5828318459742761  0.9927499510597925  0.36801301987286206  1.0000
  H   H21       1.0  0.35530049366730043  0.21613257508953143  0.5674104098575159  1.0000
  H   H22       1.0  0.48857936754693293  0.08688467839788667  0.5624283112978788  1.0000
  H   H23       1.0  0.9382329063700893  0.6397338962937622  0.7819803099734561  1.0000
  H   H24       1.0  0.13566329707563793  0.4456277700831563  0.14133555821047147  1.0000
  H   H25       1.0  0.8612622011197573  0.5671732805325078  0.21631809715748326  1.0000
  H   H26       1.0  0.8624431312702897  0.5623011249563348  0.08689252829319132  1.0000
  H   H27       1.0  0.06508936041948489  0.3660010689614026  0.8586017621485739  1.0000
  H   H28       1.0  0.056958815474317206  0.36766624060921754  0.9930245142545504  1.0000
  H   H29       1.0  0.12431294084578341  0.8054827000603381  0.16673080471942842  1.0000
  H   H30       1.0  0.8908966157583009  0.8180992573507168  0.17550393650530088  1.0000
  H   H31       1.0  0.903523373727303  0.16611965886828256  0.8060755926942706  1.0000
  H   H32       1.0  0.11537747264893725  0.17508754496672188  0.8187982611568788  1.0000
  H   H33       1.0  0.28134655098550315  0.44136550248651923  0.6364658528299788  1.0000
  H   H34       1.0  0.6407856652602815  0.6359201332905897  0.442006676072758  1.0000
  H   H35       1.0  0.7146468941789692  0.3616608576749628  0.5668944275031013  1.0000
  H   H36       1.0  0.5873549310450628  0.36217769110686476  0.5586332853012268  1.0000
  H   H37       1.0  0.35691297857587767  0.5661667831371489  0.36219740756979507  1.0000
  H   H38       1.0  0.4918959632626567  0.5580048121842367  0.36271415374500315  1.0000
  H   H39       1.0  0.46316518308426413  0.6648848072408029  0.9497513022655968  1.0000
  H   H40       1.0  0.3665617092860172  0.7165198316029946  0.013968751323609875  1.0000
  H   H41       1.0  0.4333299814197601  0.4544111300026755  0.9563046830165691  1.0000
  H   H42       1.0  0.495719055998222  0.4340038652916647  0.8615989762692069  1.0000
  H   H43       1.0  0.15542181453626094  0.9564975602314191  0.45444218712012957  1.0000
  H   H44       1.0  0.20827812498212933  0.8617827789098058  0.43403910000763113  1.0000
  H   H45       1.0  0.9218340378496138  0.9493765958228337  0.6651976460213833  1.0000
  H   H46       1.0  0.9026309896739235  0.013521816877478355  0.7169089047126961  1.0000
  H   H47       1.0  0.46531487206602407  0.9481842161223925  0.43186795428687946  1.0000
  H   H48       1.0  0.37343017706933773  0.013140224460975862  0.40646526795197974  1.0000
  H   H49       1.0  0.43691972156675957  0.9586779069268728  0.6622890775059818  1.0000
  H   H50       1.0  0.49798610996257503  0.8621603959148557  0.7151819999939024  1.0000
  H   H51       1.0  0.9425078139726749  0.6620368053801257  0.9587699286701014  1.0000
  H   H52       1.0  0.9250515649772878  0.7148077019106577  0.8622734348691949  1.0000
  H   H53       1.0  0.15504617532815948  0.4316917918710954  0.9485102093301524  1.0000
  H   H54       1.0  0.20728004915915216  0.40619829432221616  0.013600481802122057  1.0000
  H   H55       1.0  0.4604309118202109  0.4438696838011749  0.656436059219722  1.0000
  H   H56       1.0  0.3631439506806301  0.42822154485155994  0.7098592325765412  1.0000
  H   H57       1.0  0.439323085750715  0.655891050667023  0.4442842263855839  1.0000
  H   H58       1.0  0.4988096704054783  0.709337837249251  0.42865326097180684  1.0000
  H   H59       1.0  0.23650806696642213  0.06589601686663818  0.8009794558310405  1.0000
  H   H60       1.0  0.22189751689357687  0.9916160388717188  0.05534387715800203  1.0000
  H   H61       1.0  0.731211054145966  0.05511974914995921  0.9921471445809261  1.0000
  H   H62       1.0  0.8965387162070964  0.8004497934326196  0.0662930868297594  1.0000
  C   C1        1.0  0.7614420461208197  0.5038146851995364  0.73620544758073  1.0000
  C   C2        1.0  0.9986301721928466  0.7356079313854449  0.5042985446814258  1.0000
  C   C3        1.0  0.23023294319281706  0.5044349658666576  0.26279555562289414  1.0000
  C   C4        1.0  0.002269885572857849  0.26233969173683375  0.5050170927151997  1.0000
  C   C5        1.0  0.004210770825615367  0.2602241710201482  0.7341583440950148  1.0000
  C   C6        1.0  0.7607026006730351  0.5005828099814237  0.5067136884362784  1.0000
  C   C7        1.0  0.0014548937652348907  0.7335378342611137  0.2607706057280979  1.0000
  C   C8        1.0  0.23213000515297463  0.505965694725269  0.5010966791844711  1.0000
  C   C9        1.0  0.002978565776572745  0.5032276272248809  0.7343948354955004  1.0000
  C   C10       1.0  0.23147446510899522  0.26362245665690404  0.5058145067802543  1.0000
  C   C11       1.0  0.9990183331502249  0.5052612132788283  0.2642249355056877  1.0000
  C   C12       1.0  0.759501344110589  0.7339147934179098  0.5038423148284397  1.0000
  C   C13       1.0  0.3079913912699865  0.5051761839451885  0.18439223891022757  1.0000
  C   C14       1.0  0.6826170980287427  0.5054181252796113  0.8135735205301987  1.0000
  C   C15       1.0  0.32308688803170327  0.5827135633810911  0.12801133718831903  1.0000
  C   C16       1.0  0.39562320707624093  0.5858867582528688  0.052861370829390394  1.0000
  C   C17       1.0  0.6255380733158159  0.46969136596898386  0.8293295324844581  1.0000
  C   C18       1.0  0.5499707131306977  0.47141702590276646  0.9009519573448517  1.0000
  C   C19       1.0  0.6664709653351154  0.5420201029540264  0.8705297203936412  1.0000
  C   C20       1.0  0.5935435902866429  0.5404106876112847  0.9435775405636238  1.0000
  C   C21       1.0  0.3661435137271026  0.4277772689183976  0.16858271221243373  1.0000
  C   C22       1.0  0.43962515294641247  0.43000909117426284  0.0963178836580029  1.0000
  C   C23       1.0  0.4558685576696248  0.5073221976683016  0.0375120259938201  1.0000
  C   C24       1.0  0.5340818103480842  0.5064050462315777  0.9602039304931155  1.0000
  C   C25       1.0  0.9983262825443828  0.813109727003521  0.5058189843188077  1.0000
  C   C26       1.0  0.001976548267521078  0.18410275880599158  0.5056411832772343  1.0000
  C   C27       1.0  0.07525101790986344  0.8291175597285517  0.46994357263780995  1.0000
  C   C28       1.0  0.07726519661468251  0.9008794509370829  0.47161878290673115  1.0000
  C   C29       1.0  0.96567219370791  0.12772642221057848  0.5831485187579093  1.0000
  C   C30       1.0  0.9650924283253205  0.052626637398461205  0.5862323283197883  1.0000
  C   C31       1.0  0.036962937240239906  0.16842131603116423  0.4281825923254133  1.0000
  C   C32       1.0  0.033442541126689165  0.09623123652252018  0.4303370235752198  1.0000
  C   C33       1.0  0.9208361724588271  0.8699768233084767  0.5424614299978007  1.0000
  C   C34       1.0  0.922115031519368  0.9431606637390927  0.5407876857419469  1.0000
  C   C35       1.0  0.9988456710443356  0.9600249542223623  0.5066745310305835  1.0000
  C   C36       1.0  0.9987214114686651  0.037376105090757526  0.5076220210696151  1.0000
  C   C37       1.0  0.30928918036470776  0.18503843490712762  0.506818790636466  1.0000
  C   C38       1.0  0.6816010870809774  0.8123517269061792  0.5038982332398948  1.0000
  C   C39       1.0  0.32418713313860786  0.12735632490963403  0.4723331807501055  1.0000
  C   C40       1.0  0.39653962643494367  0.052381865172265014  0.4729821321097703  1.0000
  C   C41       1.0  0.6256267722463136  0.8278535393113627  0.5811789136005318  1.0000
  C   C42       1.0  0.5512827549538103  0.9008058883227503  0.5836684973672136  1.0000
  C   C43       1.0  0.6658978354829086  0.8707959338671073  0.4264329269917868  1.0000
  C   C44       1.0  0.5940622684396287  0.9447824431395874  0.42815197299391644  1.0000
  C   C45       1.0  0.3674076981094031  0.17017269122004547  0.5413534939204824  1.0000
  C   C46       1.0  0.44103661338593253  0.09788882755358214  0.5387984861942456  1.0000
  C   C47       1.0  0.45711185405335886  0.03816369400234264  0.5054959382476057  1.0000
  C   C48       1.0  0.5353636501938368  0.9608779052540158  0.5053717448381153  1.0000
  C   C49       1.0  0.0025005874616895077  0.503403499396242  0.8127124686603227  1.0000
  C   C50       1.0  0.9989275022263938  0.5064056411189598  0.18549986845823704  1.0000
  C   C51       1.0  0.9656907889369322  0.5807195311262418  0.8281493192259008  1.0000
  C   C52       1.0  0.9646604641047248  0.5832847394746987  0.9010274977328909  1.0000
  C   C53       1.0  0.07626469567567537  0.471926073690625  0.12787372965001964  1.0000
  C   C54       1.0  0.0783771655397912  0.47266704761562295  0.052784961814417414  1.0000
  C   C55       1.0  0.9212202162734825  0.5410862350108803  0.17041694748526495  1.0000
  C   C56       1.0  0.9225575810043479  0.5386121464582062  0.09802282210948506  1.0000
  C   C57       1.0  0.037335287125443886  0.42597762647382337  0.8711312019023226  1.0000
  C   C58       1.0  0.03351398210842393  0.42776942947311597  0.9450624595878953  1.0000
  C   C59       1.0  0.9988740812393003  0.505035571513055  0.9610962502304549  1.0000
  C   C60       1.0  0.9995923048320988  0.5052519825603667  0.03839079008481163  1.0000
  C   C61       1.0  0.07585122651882863  0.8370195389255528  0.13623357134532926  1.0000
  C   C62       1.0  0.08098021830883785  0.9073632510623996  0.05936089781462084  1.0000
  C   C63       1.0  0.1483345140186  0.9437053370731476  0.019720437089574844  1.0000
  C   C64       1.0  0.9437837715899562  0.8435867337147585  0.1399102427748108  1.0000
  C   C65       1.0  0.9477985112792735  0.9118414538683198  0.061266623460603915  1.0000
  C   C66       1.0  0.8847000178962146  0.9498232196816404  0.019882517470144145  1.0000
  C   C67       1.0  0.9509181832791357  0.13565977956108094  0.8376360401991151  1.0000
  C   C68       1.0  0.9523544812808565  0.05877912996793816  0.907954692587609  1.0000
  C   C69       1.0  0.8883227790341267  0.019126737279058732  0.9442622199897175  1.0000
  C   C70       1.0  0.07264651179995951  0.13944418293896613  0.8442678643508829  1.0000
  C   C71       1.0  0.07906127339329308  0.06077516014428839  0.9124950299615976  1.0000
  C   C72       1.0  0.14560476573863915  0.019354794557685146  0.9504351962123965  1.0000
  C   C73       1.0  0.007202832102954865  0.80669465562449  0.17667078662701405  1.0000
  C   C74       1.0  0.015767861120906185  0.9463732205432367  0.021635822497515396  1.0000
  C   C75       1.0  0.009389421064653842  0.1761558139438931  0.8073511471230148  1.0000
  C   C76       1.0  0.0162552572106448  0.02106243569716769  0.9469942689406496  1.0000
  C   C77       1.0  0.3115399318274894  0.5045296533315736  0.4999484964904612  1.0000
  C   C78       1.0  0.6839040983007649  0.4994185729318447  0.5052359550112587  1.0000
  C   C79       1.0  0.3277191566618925  0.4678581891339276  0.5769856944091674  1.0000
  C   C80       1.0  0.40151045212618164  0.4658327106770486  0.5786624944374453  1.0000
  C   C81       1.0  0.6274033609290938  0.5764388017339925  0.4684887542321692  1.0000
  C   C82       1.0  0.5539929487456587  0.5781226136165145  0.46638542679691153  1.0000
  C   C83       1.0  0.6695523683596106  0.4214212069065794  0.5391221337790457  1.0000
  C   C84       1.0  0.5984000343521672  0.4224279478064332  0.5346236022383766  1.0000
  C   C85       1.0  0.3699981458810554  0.5384252052838504  0.4219650090517535  1.0000
  C   C86       1.0  0.4446157791284689  0.5339792444313431  0.4229748662684899  1.0000
  C   C87       1.0  0.46165871050530427  0.49906633590153865  0.49984662648449774  1.0000
  C   C88       1.0  0.539424367225848  0.49929942448570575  0.49964705738538145  1.0000
  C   C89       1.0  0.21135621800357263  0.06088326500731245  0.9143914080887898  1.0000
  C   C90       1.0  0.22352210891809673  0.8909657270367788  0.05314627749297791  1.0000
  C   C91       1.0  0.8324149950410558  0.052641922281161005  0.8915263897994098  1.0000
  C   C92       1.0  0.8133922720043997  0.9138795218996592  0.061384890236269196  1.0000
  N   N1        1.0  0.4047371965563396  0.6642140163145669  0.9946988360476966  1.0000
  N   N2        1.0  0.4933944235073042  0.43690642755630865  0.9144068269951763  1.0000
  N   N3        1.0  0.15482163861834378  0.9145204370225742  0.4369945273231083  1.0000
  N   N4        1.0  0.9358870222758779  0.9943957960909837  0.664523457221158  1.0000
  N   N5        1.0  0.4056785546218007  0.9916948710597  0.4463499605143826  1.0000
  N   N6        1.0  0.49622547180462795  0.9145673931327495  0.6612640473673893  1.0000
  N   N7        1.0  0.9283406422203414  0.6609252095256292  0.9147100139061168  1.0000
  N   N8        1.0  0.1566137372982226  0.44609298243697965  0.9921261772696044  1.0000
  N   N9        1.0  0.4156866132453556  0.4299757633792111  0.6561475664733438  1.0000
  N   N10       1.0  0.49823572747526157  0.6555944045662371  0.4304562025163323  1.0000
  O   O1        1.0  0.7907728438315754  0.44528200657641287  0.7044922802003699  1.0000
  O   O2        1.0  0.05955522493402288  0.703885725099383  0.4457766136774809  1.0000
  O   O3        1.0  0.19704348219473644  0.5658183464528079  0.291963676288944  1.0000
  O   O4        1.0  0.9449713218576646  0.2914865179424168  0.5664327688126891  1.0000
  O   O5        1.0  0.06262701377665533  0.2913699520056382  0.7057487038708318  1.0000
  O   O6        1.0  0.7889855322555518  0.5626398337195083  0.44940530656169414  1.0000
  O   O7        1.0  0.9402494170848568  0.7051926620237197  0.2919415801762143  1.0000
  O   O8        1.0  0.19912179073711644  0.44863982226847554  0.5631322375182181  1.0000
  O   O9        1.0  0.9454746157093864  0.5644389462181464  0.7014462124182261  1.0000
  O   O10       1.0  0.1993808577177275  0.2926237955197806  0.4477381211625088  1.0000
  O   O11       1.0  0.06010722883546283  0.4470895107207511  0.2933074114651788  1.0000
  O   O12       1.0  0.788702269148729  0.7008992261395902  0.5650927913836769  1.0000
  O   O13       1.0  0.20321824095849172  0.2968101970330251  0.5629971284150843  1.0000
  O   O14       1.0  0.9368931691370859  0.562414122192841  0.2974431354863401  1.0000
  O   O15       1.0  0.7921910863597573  0.7061501591585467  0.4415003273992043  1.0000
  O   O16       1.0  0.06032982359869267  0.4408607387238914  0.7066547813545372  1.0000
  O   O17       1.0  0.9414022325824832  0.29280702148086835  0.7076157013913261  1.0000
  O   O18       1.0  0.2032444067734287  0.5635851909037869  0.4394378872651573  1.0000
  O   O19       1.0  0.058202950731981416  0.7069860773156833  0.2933788310375294  1.0000
  O   O20       1.0  0.7936231872311125  0.43891272110299434  0.564326229195011  1.0000
  O   O21       1.0  0.05909082305630858  0.29589484379140873  0.4423786117428962  1.0000
  O   O22       1.0  0.7948847203547869  0.5609633639630258  0.7075330500042089  1.0000
  O   O23       1.0  0.9367724517489718  0.7068738366676681  0.5615180792322008  1.0000
  O   O24       1.0  0.202552275342235  0.44173524154685134  0.29644537078823424  1.0000
  O   O25       1.0  0.9459500674569483  0.4484113932304083  0.45069188832651735  1.0000
  O   O26       1.0  0.1549342102424305  0.45004505089092095  0.4489591044335699  1.0000
  O   O27       1.0  0.9453938296839933  0.6584381556946396  0.4487948610631139  1.0000
  O   O28       1.0  0.9474049724259003  0.44822392948339723  0.6590245479071515  1.0000
  O   O29       1.0  0.036940367927222134  0.5404652148714959  0.5395656509923868  1.0000
  O   O30       1.0  0.8830490120594733  0.5390072376259026  0.5410743220737119  1.0000
  O   O31       1.0  0.03581694199939293  0.5404240359903268  0.3862311854180407  1.0000
  O   O32       1.0  0.03745136725074612  0.38568100161258917  0.5410096041629516  1.0000
  O   O33       1.0  0.25626840579896276  0.08004890697542061  0.8293424610748307  1.0000
  O   O34       1.0  0.2258505815830175  0.07795686345502852  0.9589470463685645  1.0000
  O   O35       1.0  0.2455397138762621  0.9276848982869764  0.07992005118962457  1.0000
  O   O36       1.0  0.26118953238403003  0.8153859211532648  0.057881654657890656  1.0000
  O   O37       1.0  0.7469176202423994  0.07966349597836568  0.92822173404997  1.0000
  O   O38       1.0  0.8655509457313642  0.057229838850389535  0.8159941255210585  1.0000
  O   O39       1.0  0.8342727180469679  0.8288718562761659  0.08047747240019028  1.0000
  O   O40       1.0  0.7373035786499498  0.9585291538549398  0.07845410598744013  1.0000
