data_image0
_chemical_formula_structural       MnCuH6C14N2O8
_chemical_formula_sum              "Mn1 Cu1 H6 C14 N2 O8"
_cell_length_a       5.0429575041304595
_cell_length_b       7.401401201494739
_cell_length_c       9.26227332150992
_cell_angle_alpha    99.87011635750355
_cell_angle_beta     96.92400522756436
_cell_angle_gamma    99.21372029837016

_space_group_name_H-M_alt    "P 1"
_space_group_IT_number       1

loop_
  _space_group_symop_operation_xyz
  'x, y, z'

loop_
  _atom_site_type_symbol
  _atom_site_label
  _atom_site_symmetry_multiplicity
  _atom_site_fract_x
  _atom_site_fract_y
  _atom_site_fract_z
  _atom_site_occupancy
  Mn  Mn1       1.0  1.6810368564420366e-06  0.50000135738631  0.5000009505714118  1.0000
  Cu  Cu1       1.0  0.5000015906701593  0.5000008998550028  0.9999990918904373  1.0000
  H   H1        1.0  0.9187127254924905  0.1209947502536366  0.6342510371284932  1.0000
  H   H2        1.0  0.08129209652728511  0.8790081094585671  0.3657510773444841  1.0000
  H   H3        1.0  0.23304613246925507  0.8039386993028544  0.775480220722315  1.0000
  H   H4        1.0  0.7669497678771078  0.1960599166164911  0.22451738425644407  1.0000
  H   H5        1.0  0.19923584362068422  0.09834074743285728  0.9504359930744215  1.0000
  H   H6        1.0  0.8007564066854584  0.9016592314147118  0.04956151058569702  1.0000
  C   C1        1.0  0.71511732500435  0.2670693954680772  0.7962122481855545  1.0000
  C   C2        1.0  0.2848845321980987  0.7329292667179388  0.20378690842446903  1.0000
  C   C3        1.0  0.7574453560413448  0.10963023728521648  0.7024340795029858  1.0000
  C   C4        1.0  0.24255640751854907  0.8903684201850978  0.297567229031486  1.0000
  C   C5        1.0  0.5809871270021816  0.9400830847439251  0.692813422954714  1.0000
  C   C6        1.0  0.41901473020026  0.05991557744209079  0.3071857336553093  1.0000
  C   C7        1.0  0.3746511392581694  0.9334117464500264  0.7813052250481504  1.0000
  C   C8        1.0  0.6253473734941509  0.06658967165093799  0.2186951219995166  1.0000
  C   C9        1.0  0.35234249990240574  0.09520818669701468  0.8769476489005825  1.0000
  C   C10       1.0  0.6476537528553122  0.9047918245669067  0.12305017187223648  1.0000
  C   C11       1.0  0.874235458126698  0.45947885787113296  0.8079756993951079  1.0000
  C   C12       1.0  0.1257642573861233  0.5405197810331543  0.1920265265452485  1.0000
  C   C13       1.0  0.6042639863490892  0.7691689114094301  0.583652751009133  1.0000
  C   C14       1.0  0.39574043643804657  0.23083255060034696  0.41635022363201557  1.0000
  N   N1        1.0  0.5172395377186518  0.25830057773164566  0.8824026309187403  1.0000
  N   N2        1.0  0.48276076431192644  0.7416994683064716  0.1175944310045409  1.0000
  O   O1        1.0  0.8082091473742139  0.5910950536226663  0.8984020117382627  1.0000
  O   O2        1.0  0.1917886137340972  0.4089035714313026  0.1015989796835228  1.0000
  O   O3        1.0  0.06287175847314332  0.48592518522208644  0.7312496360143825  1.0000
  O   O4        1.0  0.9371267074578924  0.5140762305210274  0.2687517869955016  1.0000
  O   O5        1.0  0.8425657197153883  0.7497052909585378  0.5605768801715598  1.0000
  O   O6        1.0  0.15744150276281493  0.250298982664269  0.43942453268958553  1.0000
  O   O7        1.0  0.3857261043357596  0.6623867000734619  0.519691910041594  1.0000
  O   O8        1.0  0.6142763640468588  0.337614748085997  0.48030983008098366  1.0000
