data_image0
_chemical_formula_structural       Zn6H56C80O24
_chemical_formula_sum              "Zn6 H56 C80 O24"
_cell_length_a       21.951730105798426
_cell_length_b       21.960306413949684
_cell_length_c       22.186775293961926
_cell_angle_alpha    60.55172069753572
_cell_angle_beta     60.816547892106996
_cell_angle_gamma    89.92500893052238

_space_group_name_H-M_alt    "P 1"
_space_group_IT_number       1

loop_
  _space_group_symop_operation_xyz
  'x, y, z'

loop_
  _atom_site_type_symbol
  _atom_site_label
  _atom_site_symmetry_multiplicity
  _atom_site_fract_x
  _atom_site_fract_y
  _atom_site_fract_z
  _atom_site_occupancy
  Zn  Zn1       1.0  0.9420432344109385  0.5023680739347898  0.49885863371972766  1.0000
  Zn  Zn2       1.0  0.05795522444603313  0.49762900911139957  0.5011319364855424  1.0000
  Zn  Zn3       1.0  0.5020462711436976  0.05781692329755121  0.5012590839415907  1.0000
  Zn  Zn4       1.0  0.4979460406712873  0.9421905986164489  0.49873118708025305  1.0000
  Zn  Zn5       1.0  0.9576390593200088  0.9580295403740279  0.5797352091632108  1.0000
  Zn  Zn6       1.0  0.0423487567069785  0.041965278439526806  0.42027239207799744  1.0000
  H   H1        1.0  0.08936478895889619  0.0480011077544802  0.7114158988902304  1.0000
  H   H2        1.0  0.35991216798610276  0.7264914398933158  0.9250733113441499  1.0000
  H   H3        1.0  0.7003091171082615  0.11430741877537542  0.07212040131032173  1.0000
  H   H4        1.0  0.3002828835186051  0.8856283166730137  0.927816006905971  1.0000
  H   H5        1.0  0.12885241974603895  0.6993854429116978  0.3681437222356863  1.0000
  H   H6        1.0  0.8711477217161843  0.30061213091716615  0.6318615765301843  1.0000
  H   H7        1.0  0.24260899828808397  0.8040309242204132  0.2641463337947981  1.0000
  H   H8        1.0  0.7573872747476357  0.19597102407032455  0.7358641141351185  1.0000
  H   H9        1.0  0.2516991212284268  0.9138665889876737  0.271016211502797  1.0000
  H   H10       1.0  0.748291418390849  0.0861336993306736  0.7289973463673932  1.0000
  H   H11       1.0  0.14384319927531658  0.9207611175666415  0.3768696917377952  1.0000
  H   H12       1.0  0.9106276423555851  0.952010225891705  0.28858283459908307  1.0000
  H   H13       1.0  0.8561456263083113  0.07923532381836651  0.6231443003212224  1.0000
  H   H14       1.0  0.08177957269207779  0.03316608438147738  0.6120811672727626  1.0000
  H   H15       1.0  0.9182127155460406  0.9668397504831676  0.3879189468620579  1.0000
  H   H16       1.0  0.8990795563870859  0.7558041989825599  0.6062871217009019  1.0000
  H   H17       1.0  0.10090379840256959  0.2441862568527499  0.39371256862038007  1.0000
  H   H18       1.0  0.23961816859828394  0.9868486951147517  0.4055949857352772  1.0000
  H   H19       1.0  0.7603628210487797  0.0131576871761752  0.594405787970324  1.0000
  H   H20       1.0  0.3494861868589895  0.9768697086078153  0.41322218169665326  1.0000
  H   H21       1.0  0.6504936564769251  0.0231229190001159  0.5867840040387763  1.0000
  H   H22       1.0  0.3001807254923888  0.012298243503210002  0.6280931673935087  1.0000
  H   H23       1.0  0.7760250255998214  0.1882598746065085  0.9261105339621737  1.0000
  H   H24       1.0  0.6998058796927467  0.9876960280588848  0.3719139289458082  1.0000
  H   H25       1.0  0.19724266378047867  0.03353380217897951  0.722607067586985  1.0000
  H   H26       1.0  0.8027499861392756  0.9664714955081241  0.2773899778567779  1.0000
  H   H27       1.0  0.781225808169573  0.3831897612549042  0.9281792776730882  1.0000
  H   H28       1.0  0.2181695922504829  0.6168040104879394  0.07182473272327873  1.0000
  H   H29       1.0  0.8758700337452864  0.2401366434869274  0.9279537022117241  1.0000
  H   H30       1.0  0.12438494566406186  0.7603972086751585  0.07201451791277674  1.0000
  H   H31       1.0  0.8808703663356992  0.3207639061950402  0.9271136028014271  1.0000
  H   H32       1.0  0.11896248933948796  0.6797637458505864  0.07290100929269962  1.0000
  H   H33       1.0  0.8059817824282192  0.25330804571530763  0.07112064793277992  1.0000
  H   H34       1.0  0.22456856783258416  0.8117164474487241  0.07384195375993831  1.0000
  H   H35       1.0  0.1938377839562762  0.7471900238106812  0.9288736695242721  1.0000
  H   H36       1.0  0.7080284604848754  0.2310590449029847  0.9250572472491925  1.0000
  H   H37       1.0  0.2923387632861462  0.7685448846656515  0.07488520742775494  1.0000
  H   H38       1.0  0.8824657695169761  0.573244374058973  0.65709007496487  1.0000
  H   H39       1.0  0.8346943265071115  0.6345405738694654  0.6741411231428031  1.0000
  H   H40       1.0  0.8431310997959756  0.6167917499834418  0.6006160728004418  1.0000
  H   H41       1.0  0.11752922194411043  0.4267482905050884  0.3429065565130002  1.0000
  H   H42       1.0  0.15686355672940516  0.3831981620151979  0.39938205325476156  1.0000
  H   H43       1.0  0.16529651665594972  0.36544713489991665  0.3258585515013338  1.0000
  H   H44       1.0  0.712279840303971  0.3090743355003839  0.07403586836853998  1.0000
  H   H45       1.0  0.6348390583282182  0.16042842415243544  0.07088117872563518  1.0000
  H   H46       1.0  0.28720389993826956  0.6908951763150243  0.9259892574131996  1.0000
  H   H47       1.0  0.8076799303019155  0.1177841118327052  0.06266808186543937  1.0000
  H   H48       1.0  0.874716742451561  0.16532308093135842  0.060396123254896836  1.0000
  H   H49       1.0  0.7837928959392  0.11764664845556888  0.15195982799079394  1.0000
  H   H50       1.0  0.19293926657287844  0.882672167085886  0.9373239748397497  1.0000
  H   H51       1.0  0.21656103746904884  0.8829492472883018  0.8480145938879744  1.0000
  H   H52       1.0  0.12562468988988953  0.8355320360870524  0.9395943897408472  1.0000
  H   H53       1.0  0.3655091946085847  0.8391513177344481  0.9290658888746747  1.0000
  H   H54       1.0  0.7099019724279073  0.34480043403743116  0.9290012511147765  1.0000
  H   H55       1.0  0.2897062051545163  0.6547146483106019  0.07105530254735015  1.0000
  H   H56       1.0  0.6397522523066995  0.27307042376888546  0.0749601307952901  1.0000
  C   C1        1.0  0.999851710118733  0.6189185358448056  0.49795143449107837  1.0000
  C   C2        1.0  0.2873819214411668  0.7930548186742146  0.9182422444153245  1.0000
  C   C3        1.0  0.693381721692205  0.1691136300011564  0.04717639399115827  1.0000
  C   C4        1.0  0.30698209818424965  0.8307199080209955  0.9527691380259498  1.0000
  C   C5        1.0  0.741849883254282  0.21730940946804372  0.950653876796949  1.0000
  C   C6        1.0  0.2585187798697959  0.7825548947967177  0.04929064724402811  1.0000
  C   C7        1.0  0.66677751132908  0.1618231650493129  0.17226944578966652  1.0000
  C   C8        1.0  0.3332544973590287  0.8381695105889976  0.8277238067141468  1.0000
  C   C9        1.0  0.8372622289760511  0.33550013524679656  0.8280229557176216  1.0000
  C   C10       1.0  0.16274562705438458  0.6645524595138569  0.17196009082715594  1.0000
  C   C11       1.0  0.8741977132326681  0.3742108916597787  0.7521405365591677  1.0000
  C   C12       1.0  0.000165663096396431  0.38107243290615145  0.5020568927882112  1.0000
  C   C13       1.0  0.1257901357097779  0.625809221826799  0.24786065359400303  1.0000
  C   C14       1.0  0.13137998437048987  0.7476751741846641  0.37040135264680896  1.0000
  C   C15       1.0  0.8686201539633345  0.2523190757999814  0.6296109666107413  1.0000
  C   C16       1.0  0.919164242051927  0.41961651805228684  0.6623818924565442  1.0000
  C   C17       1.0  0.08080951244272687  0.5803816344492249  0.3376164309268573  1.0000
  C   C18       1.0  0.19539842911362376  0.8062426741234108  0.3123458308266789  1.0000
  C   C19       1.0  0.8045983974793387  0.19375267051906064  0.6876675502767426  1.0000
  C   C20       1.0  0.20029487406921478  0.868432096215095  0.3158211328703898  1.0000
  C   C21       1.0  0.7996965603404714  0.13156268807230734  0.6841951121035522  1.0000
  C   C22       1.0  0.14020690218349333  0.8722659191654998  0.37532622955976064  1.0000
  C   C23       1.0  0.6270176592427956  0.12473560817245752  0.24807699601895195  1.0000
  C   C24       1.0  0.85978261530861  0.1277310720956706  0.6246876141720321  1.0000
  C   C25       1.0  0.07265344815427001  0.8136732478739859  0.43507453726733997  1.0000
  C   C26       1.0  0.9273379909642895  0.18632320192512714  0.5649372927654642  1.0000
  C   C27       1.0  0.0689689765403614  0.7486430133292572  0.4344044339678916  1.0000
  C   C28       1.0  0.9310290687642533  0.2513512274113765  0.5656102481973451  1.0000
  C   C29       1.0  0.0028460316313570276  0.6874812311520772  0.4970092539876987  1.0000
  C   C30       1.0  0.997154996775883  0.312507509417209  0.5030071094165579  1.0000
  C   C31       1.0  0.9416226718245753  0.6891212433794821  0.5588655192801825  1.0000
  C   C32       1.0  0.058371272360140794  0.310866435283252  0.44114169351992427  1.0000
  C   C33       1.0  0.9463419234063151  0.7534983998518143  0.5582538697156427  1.0000
  C   C34       1.0  0.37298332816992996  0.87527632751425  0.751908317849683  1.0000
  C   C35       1.0  0.05364766486516713  0.24649369179355332  0.4417487920663277  1.0000
  C   C36       1.0  0.008643427903599904  0.8146239332494931  0.49830374902137453  1.0000
  C   C37       1.0  0.9913466509992755  0.18536812346471981  0.5017077082474656  1.0000
  C   C38       1.0  0.3045806308283758  0.9877405139278254  0.4539224813762388  1.0000
  C   C39       1.0  0.695401278798954  0.012253752539770301  0.54608597346342  1.0000
  C   C40       1.0  0.12967986942470588  0.028545808328679804  0.6151590658252603  1.0000
  C   C41       1.0  0.8703105082014273  0.9714589204343371  0.38484295347316794  1.0000
  C   C42       1.0  0.30980097833049314  0.9972939374926572  0.508661246523168  1.0000
  C   C43       1.0  0.6901864901577284  0.0027030947789726005  0.4913422943820295  1.0000
  C   C44       1.0  0.3796710864977371  0.9961862251538068  0.5047096866172393  1.0000
  C   C45       1.0  0.792998153784225  0.2896437098244604  0.9185502060384892  1.0000
  C   C46       1.0  0.6203181699664454  0.0038064377703577  0.4952874492503769  1.0000
  C   C47       1.0  0.5804227917090826  0.07945222823600061  0.33778718164577276  1.0000
  C   C48       1.0  0.41956651340202444  0.9205640871819081  0.6622020775554633  1.0000
  C   C49       1.0  0.11932331372116069  0.0056741118272043015  0.49772180013357575  1.0000
  C   C50       1.0  0.8806628920056808  0.9943289544737083  0.5022839317495312  1.0000
  C   C51       1.0  0.004332421354810302  0.8808234563115959  0.5017911477176257  1.0000
  C   C52       1.0  0.9956534793431897  0.1191702510159161  0.49821971573014434  1.0000
  C   C53       1.0  0.1870397380268186  0.0138155554784021  0.5614855936017664  1.0000
  C   C54       1.0  0.8129495985878774  0.9861891749444139  0.4385160239337153  1.0000
  C   C55       1.0  0.2525641734745392  0.016490800304879403  0.6244041301741987  1.0000
  C   C56       1.0  0.20701576434969132  0.7104049896582724  0.08144533487022433  1.0000
  C   C57       1.0  0.7474243344527878  0.9835062285121411  0.37560026484159437  1.0000
  C   C58       1.0  0.19506224600870328  0.0288647181171413  0.6768977576176242  1.0000
  C   C59       1.0  0.8049278045433822  0.9711372670544663  0.323103494519856  1.0000
  C   C60       1.0  0.13379585513134626  0.036283575441018505  0.6711907761467231  1.0000
  C   C61       1.0  0.8661971029781906  0.96372776455447  0.3288063488334528  1.0000
  C   C62       1.0  0.24279541852295952  0.9930427436896923  0.4498987416310171  1.0000
  C   C63       1.0  0.7571895873683585  0.006959787923378299  0.5501033189166266  1.0000
  C   C64       1.0  0.18466399006283038  0.0049970415543896  0.5028493555499765  1.0000
  C   C65       1.0  0.8153208397087396  0.9950049339682111  0.49715441124933346  1.0000
  C   C66       1.0  0.25116507895111784  0.009975056042264901  0.5643747198088676  1.0000
  C   C67       1.0  0.6986802102863476  0.282475306823926  0.04929761109551133  1.0000
  C   C68       1.0  0.7488246256426693  0.9900274842549167  0.43562507754313634  1.0000
  C   C69       1.0  0.7450794771598267  0.33095506074987924  0.9528154661186435  1.0000
  C   C70       1.0  0.2545611749055183  0.668869927763808  0.047219563959124806  1.0000
  C   C71       1.0  0.8424231516476723  0.269786655094606  0.9521940457295273  1.0000
  C   C72       1.0  0.15761436704007536  0.7306158094003834  0.047802202190375426  1.0000
  C   C73       1.0  0.7958517945755617  0.22158581435886773  0.04913131281122665  1.0000
  C   C74       1.0  0.204205324119819  0.7788007627014367  0.9508537439497288  1.0000
  C   C75       1.0  0.8717493562207534  0.6250837590524726  0.6263635761461189  1.0000
  C   C76       1.0  0.1282418266031442  0.3749050475394284  0.3736363047759212  1.0000
  C   C77       1.0  0.8162887973652102  0.15139073743674206  0.08338818837541603  1.0000
  C   C78       1.0  0.30100697903886  0.7173568457086361  0.9507309555927108  1.0000
  C   C79       1.0  0.18406882835792265  0.8491985676274754  0.9165858484891488  1.0000
  C   C80       1.0  0.7126587596918836  0.20694392727452285  0.0817438977324018  1.0000
  O   O1        1.0  0.9481228713269797  0.5951877314338959  0.4960661387169337  1.0000
  O   O2        1.0  0.9511345672560051  0.4112175287216503  0.49844134865045947  1.0000
  O   O3        1.0  0.8854982871621927  0.4393961699124134  0.6254286772150551  1.0000
  O   O4        1.0  0.11446575702888147  0.56059425740078  0.37457850796437236  1.0000
  O   O5        1.0  0.9887040203304946  0.4360971337760732  0.6274647621613668  1.0000
  O   O6        1.0  0.011265853238128933  0.563885102228646  0.3725300672600723  1.0000
  O   O7        1.0  0.40901260338670636  0.0468408581450532  0.5042291537825606  1.0000
  O   O8        1.0  0.5909855252434254  0.953155137847432  0.4957584960588903  1.0000
  O   O9        1.0  0.405931418623922  0.9455669411275239  0.4998775447769929  1.0000
  O   O10       1.0  0.5940488100030163  0.05442019584297951  0.5001279607471434  1.0000
  O   O11       1.0  0.5631087070913311  0.1125180745699481  0.37503812072692005  1.0000
  O   O12       1.0  0.05190048378418775  0.4047988954316396  0.5039287959711274  1.0000
  O   O13       1.0  0.4368882326060798  0.887502656280482  0.6249457795581748  1.0000
  O   O14       1.0  0.5607058382765328  0.009766735420846802  0.3723158350052673  1.0000
  O   O15       1.0  0.4392704290424091  0.9902479119004681  0.6276786976198423  1.0000
  O   O16       1.0  0.055918993164205226  0.9692332877342622  0.5663372302629881  1.0000
  O   O17       1.0  0.9440677425104906  0.0307681283782557  0.4336690463138598  1.0000
  O   O18       1.0  0.1320279427757995  0.04127975437324239  0.42451342459278874  1.0000
  O   O19       1.0  0.867959319693945  0.9587216680885791  0.5754912434749144  1.0000
  O   O20       1.0  0.9644788542003792  0.8694993846206601  0.5740728736359914  1.0000
  O   O21       1.0  0.03550617531659841  0.1304948732779181  0.4259376911877908  1.0000
  O   O22       1.0  0.03888582731705274  0.9442372176342603  0.4324207292136605  1.0000
  O   O23       1.0  0.9610986864193405  0.05575538635132201  0.5675913355838775  1.0000
  O   O24       1.0  0.0488759827645211  0.5887767064597539  0.5015745358888426  1.0000
