data_image0
_chemical_formula_structural       Zn4H34C56N16O12F6
_chemical_formula_sum              "Zn4 H34 C56 N16 O12 F6"
_cell_length_a       14.369583149203129
_cell_length_b       14.856543920063553
_cell_length_c       14.758451460594499
_cell_angle_alpha    95.17181495403923
_cell_angle_beta     114.55135773561874
_cell_angle_gamma    119.68688043988729

_space_group_name_H-M_alt    "P 1"
_space_group_IT_number       1

loop_
  _space_group_symop_operation_xyz
  'x, y, z'

loop_
  _atom_site_type_symbol
  _atom_site_label
  _atom_site_symmetry_multiplicity
  _atom_site_fract_x
  _atom_site_fract_y
  _atom_site_fract_z
  _atom_site_occupancy
  Zn  Zn1       1.0  0.8433521139006075  0.4907656279490098  0.3583162260450338  1.0000
  Zn  Zn2       1.0  0.16394119617085326  0.6615055020902859  0.502758252834937  1.0000
  Zn  Zn3       1.0  0.1437303020995274  0.4996716534951703  0.6460903692310183  1.0000
  Zn  Zn4       1.0  0.832474461660311  0.33097780600697746  0.5044261378067532  1.0000
  H   H1        1.0  0.8714489494994169  0.3758450522800487  0.18825956727265947  1.0000
  H   H2        1.0  0.19769113054252335  0.5400552546101096  0.33379182862518775  1.0000
  H   H3        1.0  0.8653039892345546  0.4403685091120408  0.01083814333371448  1.0000
  H   H4        1.0  0.8092905213001061  0.5885807294922288  0.9881811439210182  1.0000
  H   H5        1.0  0.8576271383880252  0.4151060614293625  0.8520865974645134  1.0000
  H   H6        1.0  0.7862740250314317  0.5142607580562811  0.8279296919310681  1.0000
  H   H7        1.0  0.19007724688324856  0.6939198907573498  0.9871034357798364  1.0000
  H   H8        1.0  0.12346667658811596  0.7700069723228895  0.9627618959111217  1.0000
  H   H9        1.0  0.37067328039003655  0.38533280696348277  0.20534487564049897  1.0000
  H   H10       1.0  0.5118561408862873  0.017106485908549015  0.8531099169725636  1.0000
  H   H11       1.0  0.35752210130682727  0.2089411580387122  0.4208626438901605  1.0000
  H   H12       1.0  0.6796641202358983  0.8691857602298613  0.0307561931691893  1.0000
  H   H13       1.0  0.2294620619582659  0.25480468106004395  0.4499861593363548  1.0000
  H   H14       1.0  0.815090257595031  0.03926781440257799  0.19384242894224005  1.0000
  H   H15       1.0  0.930849844042413  0.8568968890091853  0.7292947040656372  1.0000
  H   H16       1.0  0.09842027783789571  0.9627051246299486  0.5409597320483711  1.0000
  H   H17       1.0  0.9246285443926112  0.020251324613567993  0.7509265598224816  1.0000
  H   H18       1.0  0.0997155810503543  0.1298392775460329  0.5692435452992157  1.0000
  H   H19       1.0  0.7947258384483787  0.10579663589542321  0.5584200000133279  1.0000
  H   H20       1.0  0.20270567703521888  0.33341410917475406  0.7448696205700713  1.0000
  H   H21       1.0  0.20296417625682747  0.735263467429732  0.3110284309248428  1.0000
  H   H22       1.0  0.7939572781681434  0.5201896868667006  0.1301650978924656  1.0000
  H   H23       1.0  0.18738721569678057  0.6680089487393985  0.8344794428187683  1.0000
  H   H24       1.0  0.7782732853065965  0.4392068494447087  0.6534506359683121  1.0000
  H   H25       1.0  0.5448981839279198  0.23973059990785833  0.4594501577634844  1.0000
  H   H26       1.0  0.4063741145910526  0.6842197468279564  0.8853903507058192  1.0000
  H   H27       1.0  0.02537187543907041  0.49130062063261454  0.08365793167727988  1.0000
  H   H28       1.0  0.9359591718612349  0.7249939286552234  0.01852113625380266  1.0000
  H   H29       1.0  0.03200548481289191  0.3382621347884083  0.838451893507262  1.0000
  H   H30       1.0  0.7676626323915271  0.6614633585932665  0.673706127337134  1.0000
  H   H31       1.0  0.23848728887949014  0.5041002246279191  0.10507433889974749  1.0000
  H   H32       1.0  0.556475966246751  0.2523742851063133  0.908316766825145  1.0000
  H   H33       1.0  0.643113875098166  0.6483388911685425  0.48490558980518733  1.0000
  H   H34       1.0  0.3665888856385563  0.9419221374502768  0.6215686843864603  1.0000
  C   C1        1.0  0.8559556952015299  0.3295372114786232  0.239499410808925  1.0000
  C   C2        1.0  0.18296818426636463  0.49529042825460584  0.3861868168469158  1.0000
  C   C3        1.0  0.5641687093182668  0.28008804450701763  0.40534976928037036  1.0000
  C   C4        1.0  0.4042554788343152  0.717927023008059  0.8227327828682932  1.0000
  C   C5        1.0  0.43481137704982564  0.8179728005519278  0.7258404230708138  1.0000
  C   C6        1.0  0.5643355635085923  0.35367976178348925  0.2841265323625066  1.0000
  C   C7        1.0  0.004908036506975476  0.7946862929434031  0.5998298901572097  1.0000
  C   C8        1.0  0.9826130046870316  0.5694167726177568  0.7858066535081393  1.0000
  C   C9        1.0  0.49007395939772636  0.3031916558382406  0.3274050143380691  1.0000
  C   C10       1.0  0.48809910262085754  0.8272698478782416  0.8329906088041454  1.0000
  C   C11       1.0  0.9586479739794953  0.5029492316940819  0.02484467016574145  1.0000
  C   C12       1.0  0.8988446203346426  0.6365004860186261  0.9912082001937109  1.0000
  C   C13       1.0  0.9537061547427399  0.4841719980453832  0.9177112397998712  1.0000
  C   C14       1.0  0.8752577175539071  0.5982601855384644  0.8779419593480924  1.0000
  C   C15       1.0  0.12159025725078715  0.7064327559348057  0.08750072020905003  1.0000
  C   C16       1.0  0.9940412262917775  0.6204060722319298  0.07329744555411116  1.0000
  C   C17       1.0  0.9838723665467908  0.590368851747975  0.8880867629467986  1.0000
  C   C18       1.0  0.15325973194426723  0.3814529739235581  0.47162692197599654  1.0000
  C   C19       1.0  0.8119882801827386  0.20720918553814735  0.3149142741879984  1.0000
  C   C20       1.0  0.11217597903645074  0.695998554432464  0.9797578912509621  1.0000
  C   C21       1.0  0.2597832228084727  0.37705198633163667  0.2705223357239532  1.0000
  C   C22       1.0  0.6536383860477101  0.1170627776546382  0.019286479561010587  1.0000
  C   C23       1.0  0.3399874878233788  0.3557650529140803  0.2592595031273461  1.0000
  C   C24       1.0  0.5812326212837177  0.022431410649751595  0.9266233089923972  1.0000
  C   C25       1.0  0.3838928334189049  0.30135363616631144  0.3175200734812336  1.0000
  C   C26       1.0  0.5852094279193877  0.9302069330691509  0.9291008872030062  1.0000
  C   C27       1.0  0.3327484812358533  0.2578893404436187  0.37916383426886574  1.0000
  C   C28       1.0  0.6720316671272711  0.9384272943151261  0.026635133820476987  1.0000
  C   C29       1.0  0.258175385141854  0.2829028919771304  0.3946833619989576  1.0000
  C   C30       1.0  0.7478421213285245  0.03412565757604107  0.11879005843706388  1.0000
  C   C31       1.0  0.22619061827271733  0.3495089667632385  0.3472042453514987  1.0000
  C   C32       1.0  0.7383722110860232  0.1239270380518391  0.11873282024051687  1.0000
  C   C33       1.0  0.9641088114639871  0.9140913123649456  0.6907157630031052  1.0000
  C   C34       1.0  0.06287688404057701  0.9763864506638954  0.5892925789035104  1.0000
  C   C35       1.0  0.9628216307446421  0.0076930369333041  0.7047029408709305  1.0000
  C   C36       1.0  0.0635349986633003  0.070149858820308  0.6048816942178021  1.0000
  C   C37       1.0  0.01043235633340341  0.08591757936565611  0.6605569385698759  1.0000
  C   C38       1.0  0.8933988109359061  0.17726621740341392  0.6034736276667587  1.0000
  C   C39       1.0  0.10149147728109392  0.2932525846355744  0.6981242502681724  1.0000
  C   C40       1.0  0.010984447207789749  0.8956630647253263  0.6301883297221168  1.0000
  C   C41       1.0  0.10311708110229026  0.6816804183345652  0.2823931064087049  1.0000
  C   C42       1.0  0.8948507777506193  0.5727720046637259  0.18980938689645652  1.0000
  C   C43       1.0  0.8056596997590831  0.21601661406466377  0.2190915513570459  1.0000
  C   C44       1.0  0.18101816416880462  0.39975443961424867  0.3913306654220534  1.0000
  C   C45       1.0  0.001925780295899003  0.180726690213227  0.6618466363082689  1.0000
  C   C46       1.0  0.9981031257810783  0.6304019836566326  0.17734853854879876  1.0000
  C   C47       1.0  0.8983812202309519  0.6846677699896233  0.5284103269217084  1.0000
  C   C48       1.0  0.1053233997033871  0.7951131310913624  0.6058867858072645  1.0000
  C   C49       1.0  0.0872954438987677  0.6055277242255104  0.7759185614721105  1.0000
  C   C50       1.0  0.8787350458469803  0.4883097826298838  0.6837410426380829  1.0000
  C   C51       1.0  0.038400780198770655  0.4518525582734155  0.9177865135767576  1.0000
  C   C52       1.0  0.8642739355083648  0.6737260108843162  0.8184421002322895  1.0000
  C   C53       1.0  0.20643358001826329  0.422177586144187  0.19457149839379173  1.0000
  C   C54       1.0  0.6189344894630365  0.1968071048285509  0.009135872024920354  1.0000
  C   C55       1.0  0.7643717182323896  0.6396963318850337  0.47225860896639194  1.0000
  C   C56       1.0  0.23676517434730465  0.8914007108687159  0.6531107471617688  1.0000
  N   N1        1.0  0.8854285213182533  0.3806908740265628  0.3371838113724052  1.0000
  N   N2        1.0  0.16101953524322005  0.5283585447754078  0.4578743942857458  1.0000
  N   N3        1.0  0.14252376441304895  0.45752871901584063  0.5120135077545385  1.0000
  N   N4        1.0  0.8578425278272305  0.30362723769423633  0.38461839753182403  1.0000
  N   N5        1.0  0.9260988571041294  0.279390183430003  0.6040062742970563  1.0000
  N   N6        1.0  0.055985717851371124  0.35207024282095045  0.663516200014378  1.0000
  N   N7        1.0  0.06535695957081339  0.6561313023440081  0.351677274321851  1.0000
  N   N8        1.0  0.9355336688472843  0.5882721426134196  0.2942682363868839  1.0000
  N   N9        1.0  0.9353647549960297  0.6259769338665605  0.4957082770986148  1.0000
  N   N10       1.0  0.0612429447659651  0.6932654621304478  0.5442732899782642  1.0000
  N   N11       1.0  0.047871185597550374  0.5481487497721247  0.6758684707154073  1.0000
  N   N12       1.0  0.9197226819760685  0.47626325384526763  0.6194935101537098  1.0000
  N   N13       1.0  0.6722303390706088  0.3168601426100964  0.4089350630699898  1.0000
  N   N14       1.0  0.3100886853728682  0.6534492601280633  0.7191264095089878  1.0000
  N   N15       1.0  0.3277897726749614  0.7172878217329168  0.6571578334018823  1.0000
  N   N16       1.0  0.6737483996969685  0.36552470480627614  0.33347802980249247  1.0000
  O   O1        1.0  0.15366305078674003  0.5073270636208634  0.9798181299450732  1.0000
  O   O2        1.0  0.9722821859234045  0.35284625877729797  0.8384786641984406  1.0000
  O   O3        1.0  0.9361517500849743  0.7756993332105537  0.8559279286003445  1.0000
  O   O4        1.0  0.7647439327307026  0.6127131898118351  0.7152968103803659  1.0000
  O   O5        1.0  0.09944251579585742  0.3979652476187781  0.15815426630965126  1.0000
  O   O6        1.0  0.2854422719987467  0.48848206638651703  0.1652363269209332  1.0000
  O   O7        1.0  0.6049059841392648  0.24032178450813294  0.07192226160150035  1.0000
  O   O8        1.0  0.5956894241706507  0.21305896449739242  0.914180575066645  1.0000
  O   O9        1.0  0.6870842873929066  0.5769609319837202  0.37821775600622237  1.0000
  O   O10       1.0  0.7318575718456656  0.6778455423034514  0.5339170073063002  1.0000
  O   O11       1.0  0.3038819225235373  0.9693575676902528  0.7386454804177803  1.0000
  O   O12       1.0  0.27505581887136543  0.8841699203080823  0.5830192896514461  1.0000
  F   F1        1.0  0.2138872017898167  0.6938716580590738  0.15483519264726914  1.0000
  F   F2        1.0  0.16605682655202267  0.8144218150234437  0.1413313346975684  1.0000
  F   F3        1.0  0.13817890224256493  0.29990058544635184  0.5108504630476034  1.0000
  F   F4        1.0  0.7738147392536447  0.11540027855056678  0.33991977247637817  1.0000
  F   F5        1.0  0.48463984048975567  0.8984495951778373  0.6885296473001077  1.0000
  F   F6        1.0  0.5382397902523551  0.3895359587490859  0.20314726336434322  1.0000
