data_image0
_chemical_formula_structural       Zn2H24C40N12O8
_chemical_formula_sum              "Zn2 H24 C40 N12 O8"
_cell_length_a       9.201996940622182
_cell_length_b       10.192404183133817
_cell_length_c       12.643748544889423
_cell_angle_alpha    90.78138748474731
_cell_angle_beta     88.19139632063398
_cell_angle_gamma    76.05932142103202

_space_group_name_H-M_alt    "P 1"
_space_group_IT_number       1

loop_
  _space_group_symop_operation_xyz
  'x, y, z'

loop_
  _atom_site_type_symbol
  _atom_site_label
  _atom_site_symmetry_multiplicity
  _atom_site_fract_x
  _atom_site_fract_y
  _atom_site_fract_z
  _atom_site_occupancy
  Zn  Zn1       1.0  0.14347121425998918  0.6230226252887406  0.5322249448210243  1.0000
  Zn  Zn2       1.0  0.8565249096320356  0.3769767349959353  0.4677737854185864  1.0000
  H   H1        1.0  0.10328253237280188  0.09087326372974763  0.5527646194361893  1.0000
  H   H2        1.0  0.8967259730854735  0.9091198763799184  0.4472304972779781  1.0000
  H   H3        1.0  0.14984205248840238  0.46851389821568307  0.7387432459168295  1.0000
  H   H4        1.0  0.8501508522693156  0.531485524614233  0.2612579735999319  1.0000
  H   H5        1.0  0.5850617214684847  0.4339270840540194  0.2607751404481888  1.0000
  H   H6        1.0  0.4149407709282256  0.5660732620822204  0.7392273159783684  1.0000
  H   H7        1.0  0.1178553039930179  0.7823710959270117  0.3297726433956356  1.0000
  H   H8        1.0  0.8821393795389625  0.21762523662947328  0.6702245552336592  1.0000
  H   H9        1.0  0.47342755047876034  0.26352668079974256  0.6231082614152399  1.0000
  H   H10       1.0  0.5265689064914554  0.7364757098959487  0.3768912492906082  1.0000
  H   H11       1.0  0.26629219238738217  0.7926626851298837  0.1598166146360498  1.0000
  H   H12       1.0  0.7337071783398911  0.20733262566404426  0.8401835787955038  1.0000
  H   H13       1.0  0.8575193319287062  0.8083247664049016  0.6287754516437971  1.0000
  H   H14       1.0  0.14248135399278533  0.19168265695027742  0.3712270732011334  1.0000
  H   H15       1.0  0.627725690137474  0.0351257688519624  0.6669030140819316  1.0000
  H   H16       1.0  0.37227793319575386  0.9648785887953583  0.3330986123743003  1.0000
  H   H17       1.0  0.516409551329481  0.8331880292551261  0.6486225877525271  1.0000
  H   H18       1.0  0.48360418765067686  0.16681008633442934  0.351371551535415  1.0000
  H   H19       1.0  0.4266569805199864  0.4409048239744069  0.4230423579142268  1.0000
  H   H20       1.0  0.573339659507809  0.5590925142477232  0.5769563527772732  1.0000
  H   H21       1.0  0.9796648674376199  0.4558214944064504  0.8954077896537244  1.0000
  H   H22       1.0  0.02032900231758817  0.5441870014909044  0.10459419035861119  1.0000
  H   H23       1.0  0.6747825638394501  0.8128133685082874  0.7828618197505505  1.0000
  H   H24       1.0  0.3252188224755059  0.18720013383450154  0.2171438469299716  1.0000
  C   C1        1.0  0.2442346897848679  0.8284440421480075  0.5825585314438939  1.0000
  C   C2        1.0  0.7557719618888398  0.17154814679280153  0.4174398159174544  1.0000
  C   C3        1.0  0.2172944461387161  0.07954875228524123  0.5793320701030567  1.0000
  C   C4        1.0  0.7827089350450648  0.9204434719524173  0.4206663951807457  1.0000
  C   C5        1.0  0.042867546836909264  0.5418078708730861  0.7511924586538044  1.0000
  C   C6        1.0  0.9571270049931115  0.4581935414053504  0.248807911344521  1.0000
  C   C7        1.0  0.18561921050592642  0.33067873198645265  0.5657037898017307  1.0000
  C   C8        1.0  0.8143763222400153  0.6693186089184949  0.4342941697456908  1.0000
  C   C9        1.0  0.48266173308900306  0.5133888580124193  0.2711107481119015  1.0000
  C   C10       1.0  0.5173360655762735  0.4866085047752763  0.7288910850783736  1.0000
  C   C11       1.0  0.4383258159609297  0.6145288869871736  0.19669927807549928  1.0000
  C   C12       1.0  0.5616727805626809  0.3854694569005802  0.8033009446782131  1.0000
  C   C13       1.0  0.22226125187810192  0.7081213875948935  0.3098925631220339  1.0000
  C   C14       1.0  0.7777370115673248  0.29187392588185906  0.690106879165441  1.0000
  C   C15       1.0  0.30427355485524277  0.95063541257975  0.6006483413145034  1.0000
  C   C16       1.0  0.6957340145065983  0.049357821040700904  0.39935392877122666  1.0000
  C   C17       1.0  0.4267803548998117  0.17521854773229964  0.6194803929880593  1.0000
  C   C18       1.0  0.5732149605514678  0.8247838274806156  0.38051678567057934  1.0000
  C   C19       1.0  0.8128965165509852  0.6330028067193609  0.8502161673548373  1.0000
  C   C20       1.0  0.18710138077926788  0.36700261170452114  0.1497848749613198  1.0000
  C   C21       1.0  0.3042135218580526  0.7132605985377796  0.21643871949938642  1.0000
  C   C22       1.0  0.6957847073502916  0.28673469677337243  0.7835591418849646  1.0000
  C   C23       1.0  0.8792174953954516  0.7323588398250039  0.6899773178419295  1.0000
  C   C24       1.0  0.12078258226142677  0.26764655506764273  0.3100236458592533  1.0000
  C   C25       1.0  0.5122369439473929  0.047115900518733204  0.6433469051860284  1.0000
  C   C26       1.0  0.48776581305333605  0.9528874396973281  0.35665316990050394  1.0000
  C   C27       1.0  0.27844958316117635  0.19233074295801342  0.5887301336525681  1.0000
  C   C28       1.0  0.7215565589129012  0.8076674731564495  0.41126586169091445  1.0000
  C   C29       1.0  0.5332523472583474  0.6180181436982367  0.10143607112915728  1.0000
  C   C30       1.0  0.46674783844581186  0.3819781572785602  0.8985633023173989  1.0000
  C   C31       1.0  0.45127498199202143  0.9350751913535051  0.6337753502542823  1.0000
  C   C32       1.0  0.5487290482296032  0.06492308462338062  0.3662238855104292  1.0000
  C   C33       1.0  0.39403254442679264  0.5166677579766772  0.36281178279166676  1.0000
  C   C34       1.0  0.6059666024696779  0.48332858201412426  0.637190001317066  1.0000
  C   C35       1.0  0.9489559510907098  0.5354806079653683  0.8381065219244093  1.0000
  C   C36       1.0  0.051041079907037025  0.4645237930272616  0.1618929690220554  1.0000
  C   C37       1.0  0.7088331104849598  0.6271511307398614  0.9398778538971868  1.0000
  C   C38       1.0  0.2911648382009204  0.3728543149324041  0.0601255597736667  1.0000
  C   C39       1.0  0.7788567775618274  0.7347889805447992  0.7750097947491881  1.0000
  C   C40       1.0  0.22114252589138772  0.26521944744168024  0.2249911982741537  1.0000
  N   N1        1.0  0.008081589908236625  0.6366611961649016  0.6773751405422955  1.0000
  N   N2        1.0  0.9919148841805241  0.3633412036135866  0.3226251606151109  1.0000
  N   N3        1.0  0.2667942517622635  0.6121943532665243  0.3822742279677556  1.0000
  N   N4        1.0  0.7332015219330259  0.3878019675243466  0.6177229313540521  1.0000
  N   N5        1.0  0.745517435411848  0.5193509492766425  0.0034503449192655033  1.0000
  N   N6        1.0  0.2544817587939788  0.4806534191019553  0.9965482769606523  1.0000
  N   N7        1.0  0.6560874741974769  0.5146340951309726  0.08580162386610367  1.0000
  N   N8        1.0  0.3439130274663285  0.4853652271740359  0.9141977395951244  1.0000
  N   N9        1.0  0.4917575567038456  0.72172793736776  0.03416635611638699  1.0000
  N   N10       1.0  0.5082419232708162  0.2782714330340498  0.9658362084585761  1.0000
  N   N11       1.0  0.581382755230365  0.7262958686552567  0.951714272928413  1.0000
  N   N12       1.0  0.4186124733384417  0.27370760841689906  0.048290820019914804  1.0000
  O   O1        1.0  0.2541160008735801  0.4258859392141261  0.558179465932291  1.0000
  O   O2        1.0  0.7458770763593207  0.5741124271705262  0.44181779155259443  1.0000
  O   O3        1.0  0.04550996776583814  0.3467622006313605  0.5589858418501592  1.0000
  O   O4        1.0  0.9544839350263461  0.6532331599078489  0.4410137576672639  1.0000
  O   O5        1.0  0.11694625172244594  0.842801923834806  0.5405019115595168  1.0000
  O   O6        1.0  0.8830675084225207  0.15718819969814046  0.45949855176348814  1.0000
  O   O7        1.0  0.32282067512412727  0.7121084960224451  0.6061031091941018  1.0000
  O   O8        1.0  0.6771946570828361  0.2878795755167404  0.3938957143701884  1.0000
