data_image0
_chemical_formula_structural       Na2H72PtC48S4N4O12
_chemical_formula_sum              "Na2 H72 Pt1 C48 S4 N4 O12"
_cell_length_a       10.020760243550043
_cell_length_b       11.813261282230823
_cell_length_c       12.638
_cell_angle_alpha    103.09078712635268
_cell_angle_beta     109.60292696375794
_cell_angle_gamma    98.86425840406976

_space_group_name_H-M_alt    "P 1"
_space_group_IT_number       1

loop_
  _space_group_symop_operation_xyz
  'x, y, z'

loop_
  _atom_site_type_symbol
  _atom_site_label
  _atom_site_symmetry_multiplicity
  _atom_site_fract_x
  _atom_site_fract_y
  _atom_site_fract_z
  _atom_site_occupancy
  Na  Na1       1.0  0.4578379829936167  0.7142764126910421  0.2667147615216193  1.0000
  Na  Na2       1.0  0.5421599096893034  0.2857206201611788  0.733285078346853  1.0000
  H   H1        1.0  0.7033846348493354  0.8764873742856878  0.6192536768767596  1.0000
  H   H2        1.0  0.2966149042268427  0.1235150452190865  0.3807437850727453  1.0000
  H   H3        1.0  0.9589250763163831  0.9498643553354569  0.6357434468267867  1.0000
  H   H4        1.0  0.04107524768742369  0.0501371663938883  0.36425561638653653  1.0000
  H   H5        1.0  0.9391214878779691  0.8364169637341946  0.701844617573343  1.0000
  H   H6        1.0  0.0608769918716945  0.1635854557705727  0.2981541451028917  1.0000
  H   H7        1.0  0.0965369040709945  0.7984949297751314  0.5894974818391177  1.0000
  H   H8        1.0  0.9034623606062978  0.20150659195421383  0.41050129957205417  1.0000
  H   H9        1.0  0.9571674086258923  0.7995650780819332  0.4588439278780642  1.0000
  H   H10       1.0  0.04283424910329361  0.20043734142284106  0.5411564714690442  1.0000
  H   H11       1.0  0.9539523047971628  0.5883984225529133  0.45827855216477076  1.0000
  H   H12       1.0  0.046045626154750614  0.41160220140100284  0.5417188931126162  1.0000
  H   H13       1.0  0.9388136536809312  0.6185107080884507  0.5966694443944435  1.0000
  H   H14       1.0  0.0611856109963682  0.3814908136408945  0.40332854575229504  1.0000
  H   H15       1.0  0.6912641847657498  0.5197302736081468  0.4322887759258265  1.0000
  H   H16       1.0  0.3087337461861637  0.48027035034576937  0.5677094606160011  1.0000
  H   H17       1.0  0.7151636488144035  0.6350405492166331  0.36793428875153467  1.0000
  H   H18       1.0  0.2848358902617676  0.36496187028814125  0.632065546991285  1.0000
  H   H19       1.0  0.6976953878254762  0.6681953956680573  0.6105678412806768  1.0000
  H   H20       1.0  0.3023030919241947  0.331807023836717  0.38943092139556507  1.0000
  H   H21       1.0  0.4673489819889198  0.8037011294656793  0.5487826564274485  1.0000
  H   H22       1.0  0.5326481640353649  0.196300392263673  0.4512147701150013  1.0000
  H   H23       1.0  0.4559352192502785  0.6744941880510282  0.6005112506244785  1.0000
  H   H24       1.0  0.5440651047535212  0.325507333678317  0.3994878125888377  1.0000
  H   H25       1.0  0.2538211034514148  0.5590178239888957  0.4018458548977009  1.0000
  H   H26       1.0  0.7461768275004985  0.4409827999650275  0.5981515903796861  1.0000
  H   H27       1.0  0.2078016042573765  0.6800217913437834  0.48529239459291057  1.0000
  H   H28       1.0  0.7921973860210443  0.3199788326101327  0.5147053324866206  1.0000
  H   H29       1.0  0.030272029937137294  0.688003014873523  0.28664998330675207  1.0000
  H   H30       1.0  0.9697291172632915  0.3120012001821024  0.713350660372619  1.0000
  H   H31       1.0  0.09067503151881338  0.5614292487808896  0.22836913490682056  1.0000
  H   H32       1.0  0.909325056355108  0.4385749662747287  0.7716296444415248  1.0000
  H   H33       1.0  0.9918624833741703  0.6706373448245131  0.08313489114362939  1.0000
  H   H34       1.0  0.008138153297508716  0.3293686657819563  0.9168652056035711  1.0000
  H   H35       1.0  0.13404562063568187  0.801832858805902  0.17403728082069136  1.0000
  H   H36       1.0  0.8659565858912545  0.1981713562497163  0.8259628533963835  1.0000
  H   H37       1.0  0.05670427051277473  0.6323786450810118  0.9313535237383164  1.0000
  H   H38       1.0  0.9432963278899038  0.3676237744237625  0.06864659380664051  1.0000
  H   H39       1.0  0.364546646161763  0.5921915237242459  0.9864380354765316  1.0000
  H   H40       1.0  0.6354534034431651  0.4078091002296702  0.013563929727347086  1.0000
  H   H41       1.0  0.1992963556937752  0.47960330320487543  0.9297161763231045  1.0000
  H   H42       1.0  0.8007047532376602  0.5203973207490478  0.07028448815403725  1.0000
  H   H43       1.0  0.11419229793261111  0.5347841719373534  0.745340292999586  1.0000
  H   H44       1.0  0.8858112040507108  0.4652173497919918  0.2546611981490372  1.0000
  H   H45       1.0  0.2898916441799955  0.5082163037803795  0.7726514536409184  1.0000
  H   H46       1.0  0.7101107984768192  0.49178521794896574  0.22735054697000834  1.0000
  H   H47       1.0  0.2643761606688527  0.694003745815337  0.7076117647041968  1.0000
  H   H48       1.0  0.7356257331902184  0.3059959803631571  0.29238891850787496  1.0000
  H   H49       1.0  0.40422039222126216  0.7274683247884468  0.8486008604429712  1.0000
  H   H50       1.0  0.5957831097620598  0.2725331969408984  0.15140142197009246  1.0000
  H   H51       1.0  0.09092750017471467  0.7551287856378508  0.7999713830887172  1.0000
  H   H52       1.0  0.9090743936843495  0.2448709405406433  0.20002850885891388  1.0000
  H   H53       1.0  0.247607291480854  0.8744251841340756  0.8502400837935795  1.0000
  H   H54       1.0  0.752392758124074  0.1255754398198476  0.14975950761697723  1.0000
  H   H55       1.0  0.17231526250676413  0.8459827608893563  0.011453040425422492  1.0000
  H   H56       1.0  0.8276840021705352  0.1540187608399961  0.9885473235146306  1.0000
  H   H57       1.0  0.378057516506388  0.9978612251157486  0.03820884717033832  1.0000
  H   H58       1.0  0.6219438668239263  0.0021402966135966  0.9617912891095557  1.0000
  H   H59       1.0  0.5517681824708376  0.9757113098260177  0.11532970778684871  1.0000
  H   H60       1.0  0.4482324159318409  0.0242911096787495  0.8846688272292269  1.0000
  H   H61       1.0  0.4451465503222564  0.09730000280420369  0.2437431289300207  1.0000
  H   H62       1.0  0.5548572260599443  0.9027024167005706  0.756257834021369  1.0000
  H   H63       1.0  0.29776228926470333  0.9692697711504437  0.20092684295708813  1.0000
  H   H64       1.0  0.7022409765887474  0.0307344439051747  0.7990751555910052  1.0000
  H   H65       1.0  0.6731580705231437  0.0980173253689074  0.3589374131634386  1.0000
  H   H66       1.0  0.32684437213367096  0.9019841963604378  0.6410606311252776  1.0000
  H   H67       1.0  0.6930621526691638  0.9563714316170647  0.2869572111548706  1.0000
  H   H68       1.0  0.3069402899876579  0.0436300901122806  0.7130408331338529  1.0000
  H   H69       1.0  0.8366431765292573  0.0268219386022963  0.503853334837352  1.0000
  H   H70       1.0  0.16336032545406448  0.973179583127049  0.4961449912535087  1.0000
  H   H71       1.0  0.6705466911544918  0.0219093114757811  0.5290634552107534  1.0000
  H   H72       1.0  0.3294552409735729  0.9780940058044152  0.4709340421457924  1.0000
  Pt  Pt1       1.0  0.9999991881393058  0.9999943395259407  2.7793289091655847e-06  1.0000
  C   C1        1.0  0.7445480062876867  0.8250259891396752  0.5576582898340446  1.0000
  C   C2        1.0  0.2554515327884843  0.1749764303650991  0.44233996337989373  1.0000
  C   C3        1.0  0.911522357933336  0.8534432746724931  0.6158689148924096  1.0000
  C   C4        1.0  0.0884782404693425  0.1465591448322812  0.38413041138811366  1.0000
  C   C5        1.0  0.9772864668191374  0.7770309149102347  0.5419825715114328  1.0000
  C   C6        1.0  0.022711974661533  0.2229679134928375  0.4580162119625654  1.0000
  C   C7        1.0  0.9094489791964546  0.643274047640837  0.5141124644010944  1.0000
  C   C8        1.0  0.0905494622842156  0.356724780762228  0.4858855278084632  1.0000
  C   C9        1.0  0.7431337378782031  0.6151000592482418  0.4524477231596363  1.0000
  C   C10       1.0  0.25686686052447527  0.38490236025653257  0.5475516031208869  1.0000
  C   C11       1.0  0.677215785751372  0.6900732850039546  0.5266357107024504  1.0000
  C   C12       1.0  0.32278269399829174  0.3099291345008126  0.4733630519737915  1.0000
  C   C13       1.0  0.4381310860594922  0.7045364471034006  0.5211581473504481  1.0000
  C   C14       1.0  0.5618673936901786  0.2954659724013666  0.4788398240613532  1.0000
  C   C15       1.0  0.27974309267490577  0.657703094274126  0.4380204947145288  1.0000
  C   C16       1.0  0.7202580162565296  0.3422975296797901  0.5619785872337246  1.0000
  C   C17       1.0  0.11350769729448021  0.6604565715031185  0.2541156232350588  1.0000
  C   C18       1.0  0.8864910568540623  0.3395467457770778  0.745883402508383  1.0000
  C   C19       1.0  0.1055809498114257  0.7027965583294247  0.1486865348405644  1.0000
  C   C20       1.0  0.8944191380624957  0.2972076567261936  0.8513138270366696  1.0000
  C   C21       1.0  0.1764577948760575  0.6588055624962337  0.9827260306235244  1.0000
  C   C22       1.0  0.8235440989830137  0.3411941636822604  0.017273861324106604  1.0000
  C   C23       1.0  0.2478559593179597  0.5693736635181992  0.9294842407920569  1.0000
  C   C24       1.0  0.7521440902869614  0.430626960435724  0.07051614188293338  1.0000
  C   C25       1.0  0.23071001800160218  0.569651973900001  0.8045539239308822  1.0000
  C   C26       1.0  0.7692932095828482  0.43034865005392214  0.19544730415054087  1.0000
  C   C27       1.0  0.2850012956657935  0.6957229857545357  0.7993431295542308  1.0000
  C   C28       1.0  0.7150014213898999  0.3042794337502386  0.20065913412388875  1.0000
  C   C29       1.0  0.2097768831658442  0.7826734334574112  0.8520616424949664  1.0000
  C   C30       1.0  0.7902242257655914  0.21732719049651192  0.1479374394532869  1.0000
  C   C31       1.0  0.23295074140187924  0.7850372761518756  0.9787434295826215  1.0000
  C   C32       1.0  0.7670522500526927  0.2149660411283207  0.021256723369383168  1.0000
  C   C33       1.0  0.4351343426320824  0.9527605788570456  0.10084589276765847  1.0000
  C   C34       1.0  0.5648678638948539  0.0472436361985729  0.8991550327138499  1.0000
  C   C35       1.0  0.4136217487438856  0.9979599804125173  0.21489501832579802  1.0000
  C   C36       1.0  0.5863812427106865  0.0020433368676791  0.7851051346262139  1.0000
  C   C37       1.0  0.6481604310855573  0.0008313400437032  0.34916799388503955  1.0000
  C   C38       1.0  0.35184173717238554  0.999169283910213  0.6508289960720361  1.0000
  C   C39       1.0  0.7186936929305004  0.9817766805984505  0.46722605038179665  1.0000
  C   C40       1.0  0.2813076903998066  0.0182248411308947  0.5327717121047827  1.0000
  C   C41       1.0  0.7910612748546412  0.8003326760704468  0.9906322889275713  1.0000
  C   C42       1.0  0.20893285278200582  0.1996589701292208  0.00937332157779741  1.0000
  C   C43       1.0  0.6931803687394335  0.6999146992146379  0.9884116572692959  1.0000
  C   C44       1.0  0.3068147416857272  0.3000697647816253  0.011591902840429165  1.0000
  C   C45       1.0  0.6606249038710531  0.6999416324773975  0.08843949616486661  1.0000
  C   C46       1.0  0.3393755031866519  0.3000428315188728  0.911564681691118  1.0000
  C   C47       1.0  0.6307397936776837  0.5981330014880015  0.8884010445059829  1.0000
  C   C48       1.0  0.369259394461622  0.4018613380379392  0.1116080649384514  1.0000
  S   S1        1.0  0.880190648601875  0.9264557588996426  0.10961153082393331  1.0000
  S   S2        1.0  0.11980002665637098  0.073534989524596  0.8903890148856064  1.0000
  S   S3        1.0  0.8430257001230074  0.8142455018342645  0.876839612091338  1.0000
  S   S4        1.0  0.1569643497994946  0.18573626883572564  0.12316044907932171  1.0000
  N   N1        1.0  0.6359481833332552  0.702801944981978  0.17317845586398303  1.0000
  N   N2        1.0  0.36405069213817143  0.2971879056668385  0.8268264549888115  1.0000
  N   N3        1.0  0.5812440251275177  0.5131603530467714  0.8054852987333591  1.0000
  N   N4        1.0  0.4187465735927418  0.4868232131740697  0.19451528857170797  1.0000
  O   O1        1.0  0.6954630556258934  0.8556679621760566  0.44980223511654327  1.0000
  O   O2        1.0  0.30453726837790634  0.1443335595532886  0.5501960368323324  1.0000
  O   O3        1.0  0.5227910068148205  0.6582758749953825  0.4593110792294439  1.0000
  O   O4        1.0  0.4772074729348432  0.3417265445093847  0.5406861009179168  1.0000
  O   O5        1.0  0.2569687727053918  0.7106000223249822  0.34427756000599885  1.0000
  O   O6        1.0  0.743031040769658  0.2894032949552141  0.6557209562751467  1.0000
  O   O7        1.0  0.2020321510566561  0.6542170322982059  0.10056847041827409  1.0000
  O   O8        1.0  0.7979692322736581  0.3457844894311464  0.8994324571260677  1.0000
  O   O9        1.0  0.3858567434418846  0.8253617571486843  0.05346158143333214  1.0000
  O   O10       1.0  0.6141459736138088  0.174640662356083  0.946539890980354  1.0000
  O   O11       1.0  0.49319056814113077  0.9535156079896083  0.30720473205616367  1.0000
  O   O12       1.0  0.5068118745156909  0.0464859137397369  0.6927941034969932  1.0000
