data_image0
_chemical_formula_structural       Ni6H40C64N8O28
_chemical_formula_sum              "Ni6 H40 C64 N8 O28"
_cell_length_a       12.255692316011427
_cell_length_b       14.36271793138311
_cell_length_c       14.366098313229136
_cell_angle_alpha    99.94540072704605
_cell_angle_beta     90.83224912791027
_cell_angle_gamma    90.84262390641341

_space_group_name_H-M_alt    "P 1"
_space_group_IT_number       1

loop_
  _space_group_symop_operation_xyz
  'x, y, z'

loop_
  _atom_site_type_symbol
  _atom_site_label
  _atom_site_symmetry_multiplicity
  _atom_site_fract_x
  _atom_site_fract_y
  _atom_site_fract_z
  _atom_site_occupancy
  Ni  Ni1       1.0  0.2628431821790755  0.5793557171561973  0.02483051429565821  1.0000
  Ni  Ni2       1.0  0.23719810253444246  0.9752280299731382  0.42074861931064333  1.0000
  Ni  Ni3       1.0  0.7372071183608996  0.4206186113047181  0.975160277113474  1.0000
  Ni  Ni4       1.0  0.7628270376246463  0.024803029480388296  0.5792698970305992  1.0000
  Ni  Ni5       1.0  0.5000298504864488  0.49998021844071866  0.9999835357594404  1.0000
  Ni  Ni6       1.0  0.9999408307249381  1.9500653444002788e-05  0.5000284752314599  1.0000
  H   H1        1.0  0.08688709587692497  0.5241024906166912  0.155241968942633  1.0000
  H   H2        1.0  0.09232738584465491  0.5672248079837985  0.8776915478067692  1.0000
  H   H3        1.0  0.3991317328371834  0.15046900595476842  0.23739046515569126  1.0000
  H   H4        1.0  0.24755909270179902  0.803436801014364  0.05793969614347112  1.0000
  H   H5        1.0  0.4516439336521998  0.27913149902969536  0.14676235772298438  1.0000
  H   H6        1.0  0.13805057665013726  0.4043717771959764  0.2021239100222161  1.0000
  H   H7        1.0  0.08743175041907142  0.27853528067072386  0.294606342522286  1.0000
  H   H8        1.0  0.45001601420281645  0.31575109597989126  0.7399954651036323  1.0000
  H   H9        1.0  0.12068201797772103  0.3890461334384127  0.8134971098754704  1.0000
  H   H10       1.0  0.2526595578076751  0.6157407298115557  0.2465316867755263  1.0000
  H   H11       1.0  0.4131049157277431  0.844739332590116  0.4758088729793357  1.0000
  H   H12       1.0  0.40759500169998125  0.12246856381545969  0.4330324113226992  1.0000
  H   H13       1.0  0.10092309366651618  0.7630449745244618  0.8498584722614451  1.0000
  H   H14       1.0  0.252567066524584  0.9424110735430132  0.1969671428751596  1.0000
  H   H15       1.0  0.048415468985055575  0.8536437821033258  0.7212000778530907  1.0000
  H   H16       1.0  0.36175582965178416  0.7978051065969111  0.5956396632022987  1.0000
  H   H17       1.0  0.41240521547253917  0.7053955831366849  0.7215061427829923  1.0000
  H   H18       1.0  0.049998220334572394  0.2603432465259131  0.6840442364399237  1.0000
  H   H19       1.0  0.37932666359972694  0.18619330172083437  0.6114012133250455  1.0000
  H   H20       1.0  0.24690689157116447  0.7536068479404391  0.3844455566533682  1.0000
  H   H21       1.0  0.913136547455089  0.4758827064793607  0.8447577979561913  1.0000
  H   H22       1.0  0.9076992095149948  0.4327511712296682  0.1223052355440544  1.0000
  H   H23       1.0  0.6008333224136706  0.8495096175379968  0.7626324626233368  1.0000
  H   H24       1.0  0.7524343505518799  0.19656305317185743  0.9420445819057193  1.0000
  H   H25       1.0  0.5483447180962315  0.7208040527680878  0.8532109047535315  1.0000
  H   H26       1.0  0.8619541512390825  0.59560982572426  0.7978246285123802  1.0000
  H   H27       1.0  0.9125591344248107  0.7214864812630565  0.705387394074009  1.0000
  H   H28       1.0  0.5500114657579331  0.6842440656267996  0.2599929640006167  1.0000
  H   H29       1.0  0.8793571471946249  0.6109548494308683  0.1865406864624859  1.0000
  H   H30       1.0  0.7472406063928005  0.3842580282903682  0.7534633728318453  1.0000
  H   H31       1.0  0.5868800516713292  0.15532973242853385  0.5242113520790639  1.0000
  H   H32       1.0  0.5923751077789562  0.8775992037938067  0.5669948795686892  1.0000
  H   H33       1.0  0.8991105524504591  0.23692382940896548  0.15013927553926007  1.0000
  H   H34       1.0  0.7474370777910477  0.05759286443134929  0.8030216103949499  1.0000
  H   H35       1.0  0.951596731620782  0.14637596860214327  0.278834187681376  1.0000
  H   H36       1.0  0.6382168706207025  0.20219801505778173  0.40432242671483454  1.0000
  H   H37       1.0  0.5876003115880692  0.29457697929747434  0.2784212918591251  1.0000
  H   H38       1.0  0.9500203568342157  0.7396544161986113  0.3159966420003144  1.0000
  H   H39       1.0  0.6206704643177545  0.8138042231939407  0.38860222625940816  1.0000
  H   H40       1.0  0.7530188798793345  0.2463980095972786  0.6155456506895192  1.0000
  C   C1        1.0  0.0474321703641891  0.513687545098321  0.08590415744413352  1.0000
  C   C2        1.0  0.05048476118304991  0.5370750318288913  0.9320690288232854  1.0000
  C   C3        1.0  0.3420442867290987  0.20615329838688012  0.2291766763119369  1.0000
  C   C4        1.0  0.32977143705801376  0.4294414802139455  0.8661251903428493  1.0000
  C   C5        1.0  0.32942407687126257  0.42307717691527097  0.11200697932551408  1.0000
  C   C6        1.0  0.2890233244597695  0.35953694626600446  0.7831930737545534  1.0000
  C   C7        1.0  0.2980606372466994  0.34877467958046543  0.1684926268894245  1.0000
  C   C8        1.0  0.20150078936726595  0.13697455305227627  0.331963065384599  1.0000
  C   C9        1.0  0.2489554519804003  0.7930604425559267  0.1314152768041197  1.0000
  C   C10       1.0  0.37156074022044555  0.27694048780828234  0.17841107687740987  1.0000
  C   C11       1.0  0.23924387366220404  0.20665163246566456  0.2707863788148188  1.0000
  C   C12       1.0  0.19523264467978407  0.3489168044974773  0.20988217991333608  1.0000
  C   C13       1.0  0.1662425903969265  0.27874222709120733  0.26057462351496946  1.0000
  C   C14       1.0  0.3628874938326732  0.30372181900472833  0.7258365013016075  1.0000
  C   C15       1.0  0.1764216652012038  0.3453843454974502  0.7672847260325993  1.0000
  C   C16       1.0  0.2501432467073101  0.6889792602171455  0.2356846146680667  1.0000
  C   C17       1.0  0.45256297342790935  0.9140871483865921  0.4862515508377712  1.0000
  C   C18       1.0  0.4494854038664257  0.06802991459836251  0.4630618306530607  1.0000
  C   C19       1.0  0.1579798791796492  0.771161735845247  0.7941110255674104  1.0000
  C   C20       1.0  0.17021242127974287  0.1338868674391946  0.5706885449469326  1.0000
  C   C21       1.0  0.17050924658791902  0.8880434056707855  0.5770276685943188  1.0000
  C   C22       1.0  0.21099269930358133  0.21681373516923227  0.6405963300276838  1.0000
  C   C23       1.0  0.2018810463499747  0.8316673079801545  0.6513941325348255  1.0000
  C   C24       1.0  0.29850853348522577  0.668290480147334  0.8632272816237289  1.0000
  C   C25       1.0  0.25105394522048396  0.8688883324947342  0.20726555264046453  1.0000
  C   C26       1.0  0.1284624546874866  0.8218981926142348  0.723319591937603  1.0000
  C   C27       1.0  0.2607163093616903  0.7294363150324229  0.7935455726749153  1.0000
  C   C28       1.0  0.3046525676758804  0.7901645379564142  0.6511711202456495  1.0000
  C   C29       1.0  0.33365225635759543  0.7395157408757739  0.7213699623620755  1.0000
  C   C30       1.0  0.13713153284951565  0.2743844783180761  0.6961908146401611  1.0000
  C   C31       1.0  0.32359560920438923  0.23257266883945246  0.6548952382213855  1.0000
  C   C32       1.0  0.24955263435320055  0.764495585611449  0.31123358719696625  1.0000
  C   C33       1.0  0.9525880949356562  0.4862893056199553  0.9140821879503349  1.0000
  C   C34       1.0  0.9495418937589122  0.4629016712996047  0.06792579800032426  1.0000
  C   C35       1.0  0.6579301686309406  0.793827512470301  0.7708252911700768  1.0000
  C   C36       1.0  0.670268375007474  0.5705413634956427  0.13387871884152958  1.0000
  C   C37       1.0  0.6705871669882626  0.5768962883859744  0.8879736649284737  1.0000
  C   C38       1.0  0.711010377710551  0.6404559016825715  0.2168090114856653  1.0000
  C   C39       1.0  0.7019332738422295  0.6511884818828905  0.8314746027142234  1.0000
  C   C40       1.0  0.7984950948992733  0.8630714928731321  0.6680839030505296  1.0000
  C   C41       1.0  0.7510148966568123  0.20693539737125374  0.8685739862753223  1.0000
  C   C42       1.0  0.628429579316581  0.7230197723151974  0.8215694663679614  1.0000
  C   C43       1.0  0.7607357029821458  0.7933588008528999  0.729223142707532  1.0000
  C   C44       1.0  0.8047611256535775  0.6510640560485399  0.7900861496302766  1.0000
  C   C45       1.0  0.833740314660517  0.7212598712090851  0.7394105014373055  1.0000
  C   C46       1.0  0.6371356927702081  0.6962732844114327  0.2741650410920613  1.0000
  C   C47       1.0  0.8236046618314958  0.654618985084518  0.23274483023656956  1.0000
  C   C48       1.0  0.7497815295924609  0.31102065906089393  0.7643056781277693  1.0000
  C   C49       1.0  0.5474231547896764  0.0859670862456596  0.5137618506626609  1.0000
  C   C50       1.0  0.5505015807187874  0.9320284946412158  0.5369593060453538  1.0000
  C   C51       1.0  0.8420504389378395  0.22882137466309158  0.2058746024747222  1.0000
  C   C52       1.0  0.8297864826925476  0.8661232025846745  0.429336692615415  1.0000
  C   C53       1.0  0.8294862811169706  0.11198025268971888  0.42298671086186346  1.0000
  C   C54       1.0  0.7890175502377372  0.7831947706614528  0.35943029121968095  1.0000
  C   C55       1.0  0.7981103102746798  0.16834802528967427  0.34860541780095383  1.0000
  C   C56       1.0  0.7015075592805432  0.3316724925839338  0.1367307021257673  1.0000
  C   C57       1.0  0.7489353034945766  0.13111081906056649  0.7927240669779393  1.0000
  C   C58       1.0  0.871553491823633  0.17810468510828062  0.2766943167249423  1.0000
  C   C59       1.0  0.7393070889961492  0.2705314086314345  0.2064266711744907  1.0000
  C   C60       1.0  0.695336958605381  0.20983614090359026  0.348804858070892  1.0000
  C   C61       1.0  0.6663538758704775  0.2604629521939259  0.2785857431394092  1.0000
  C   C62       1.0  0.8628798563353468  0.72561473866903  0.3038439053234399  1.0000
  C   C63       1.0  0.6764145220018777  0.7674267553478984  0.3451165151404253  1.0000
  C   C64       1.0  0.750383752210901  0.2355091484664626  0.688757157534546  1.0000
  N   N1        1.0  0.24886746789326958  0.70319244361832  0.14575995864252886  1.0000
  N   N2        1.0  0.0984783131358284  0.5501660772325963  0.018109395386936483  1.0000
  N   N3        1.0  0.25101513713943285  0.854458085916029  0.2970831810870322  1.0000
  N   N4        1.0  0.4014868202118222  0.9819594802224144  0.4499147750191312  1.0000
  N   N5        1.0  0.7510857138494134  0.2968001159044106  0.8542227297574385  1.0000
  N   N6        1.0  0.9015465566176744  0.4498064044545558  0.9818846271204364  1.0000
  N   N7        1.0  0.7489596978246595  0.14555109541620226  0.7029134692956517  1.0000
  N   N8        1.0  0.5985027441664243  0.018098271806309203  0.5500965589338804  1.0000
  O   O1        1.0  0.2552411805967907  0.46743911333984306  0.9204216795102838  1.0000
  O   O2        1.0  0.2689868355902547  0.49709297001325586  0.121017663678515  1.0000
  O   O3        1.0  0.2640874144315433  0.06317116988843452  0.3323252344672127  1.0000
  O   O4        1.0  0.4319438855658717  0.44127741962386574  0.876574749820193  1.0000
  O   O5        1.0  0.4060703866402307  0.5951686295779764  0.028387593276917773  1.0000
  O   O6        1.0  0.4104120302149851  0.4063570061018281  0.05931194217394159  1.0000
  O   O7        1.0  0.1176291498885647  0.1549740742226007  0.3775895848636068  1.0000
  O   O8        1.0  0.24472835582921704  0.07955567277278418  0.5327043072615254  1.0000
  O   O9        1.0  0.2309781663053911  0.8789880023590155  0.5030459371181094  1.0000
  O   O10       1.0  0.23592085365774548  0.667877248474788  0.9370125891133511  1.0000
  O   O11       1.0  0.0680445771643008  0.12348775374421446  0.5588218327009926  1.0000
  O   O12       1.0  0.0939590335879856  0.9716726274371864  0.40489564900975944  1.0000
  O   O13       1.0  0.08949141008122301  0.9407088865214276  0.593669678890805  1.0000
  O   O14       1.0  0.38241662737195264  0.6226948402869111  0.8452405895805483  1.0000
  O   O15       1.0  0.7447985089828038  0.5325252051903746  0.0795955940080404  1.0000
  O   O16       1.0  0.7310285197671931  0.5028880964636285  0.8789797662230966  1.0000
  O   O17       1.0  0.7358901472074209  0.9368582485536975  0.6677036742019665  1.0000
  O   O18       1.0  0.5680920173126366  0.5587295745363788  0.12342645872345058  1.0000
  O   O19       1.0  0.5939008183646096  0.4048313849565303  0.9716094050005067  1.0000
  O   O20       1.0  0.5896029755366499  0.5936326324003006  0.940677278780619  1.0000
  O   O21       1.0  0.8824005151103618  0.8451137944347875  0.6224894098060005  1.0000
  O   O22       1.0  0.7552781483254591  0.9204456904095152  0.4673348590441647  1.0000
  O   O23       1.0  0.7690220812805463  0.12102926282102536  0.4969639222873923  1.0000
  O   O24       1.0  0.7641021008418604  0.3320955298208332  0.06294872067839209  1.0000
  O   O25       1.0  0.9319591713556861  0.8765427776230651  0.44120581926357966  1.0000
  O   O26       1.0  0.9060629849301733  0.0283571544860877  0.5951107267994615  1.0000
  O   O27       1.0  0.9105119930888393  0.059309673219154  0.4063502364222629  1.0000
  O   O28       1.0  0.6175843519120221  0.37725213237418836  0.15470439808962766  1.0000
