data_image0
_chemical_formula_structural       Cu4H32C56N8O20
_chemical_formula_sum              "Cu4 H32 C56 N8 O20"
_cell_length_a       13.620926670903136
_cell_length_b       13.950925419863882
_cell_length_c       13.462461414495042
_cell_angle_alpha    110.44226227093945
_cell_angle_beta     89.94400293118368
_cell_angle_gamma    90.03986055473435

_space_group_name_H-M_alt    "P 1"
_space_group_IT_number       1

loop_
  _space_group_symop_operation_xyz
  'x, y, z'

loop_
  _atom_site_type_symbol
  _atom_site_label
  _atom_site_symmetry_multiplicity
  _atom_site_fract_x
  _atom_site_fract_y
  _atom_site_fract_z
  _atom_site_occupancy
  Cu  Cu1       1.0  0.546437839192798  0.41384905450610177  0.9559213593927467  1.0000
  Cu  Cu2       1.0  0.04620310515960568  0.5856981896907526  0.5437345270780798  1.0000
  Cu  Cu3       1.0  0.4535069490913201  0.5861875959349234  0.04408853581980313  1.0000
  Cu  Cu4       1.0  0.9538400385284331  0.414303974887872  0.45629544226744667  1.0000
  H   H1        1.0  0.2542486817401225  0.700305578748832  0.08290764456285162  1.0000
  H   H2        1.0  0.7542221055217693  0.29985194758169337  0.41763915401651275  1.0000
  H   H3        1.0  0.7457268894472406  0.2996757918309001  0.9171660363935956  1.0000
  H   H4        1.0  0.245782853830974  0.7001303002517004  0.5823917494866963  1.0000
  H   H5        1.0  0.18980354617792725  0.8816916405582303  0.15082316203660182  1.0000
  H   H6        1.0  0.6898685438239976  0.1185402960848023  0.34939219761582047  1.0000
  H   H7        1.0  0.8101713035248391  0.11829437856660259  0.8492284427236355  1.0000
  H   H8        1.0  0.31014377189996617  0.8814397336521154  0.6506074392190727  1.0000
  H   H9        1.0  0.4895965649208448  0.9818114375397186  0.2295054839146077  1.0000
  H   H10       1.0  0.9896818335628408  0.0185631483789024  0.2704455131825654  1.0000
  H   H11       1.0  0.5103915395196309  0.018183953211014597  0.7704730190126412  1.0000
  H   H12       1.0  0.010335639515105298  0.9814353152087423  0.729531123743563  1.0000
  H   H13       1.0  0.539155187972362  0.7993559254285146  0.16346865888566953  1.0000
  H   H14       1.0  0.0392142637610107  0.2009739208741621  0.3369093088096164  1.0000
  H   H15       1.0  0.4608299663363977  0.20064245474708292  0.8365391611395623  1.0000
  H   H16       1.0  0.9608090690774418  0.7990290619191783  0.6630979410439651  1.0000
  H   H17       1.0  0.44962843575577677  0.24242697596827867  0.13406908027299383  1.0000
  H   H18       1.0  0.949668603607442  0.757714629735247  0.3657225715585071  1.0000
  H   H19       1.0  0.5502708681443095  0.7575494575287536  0.8658282789078628  1.0000
  H   H20       1.0  0.050349644316014484  0.24229015057490239  0.6341768854860419  1.0000
  H   H21       1.0  0.28531825720116183  0.5174361618718777  0.28656747191137555  1.0000
  H   H22       1.0  0.7855968236781763  0.482446993456854  0.21391920218403734  1.0000
  H   H23       1.0  0.7146492905507029  0.48258062390448947  0.7134270053619859  1.0000
  H   H24       1.0  0.21447644119165685  0.5175300579088925  0.7860510937120468  1.0000
  H   H25       1.0  0.21445728126685984  0.24264352945922957  0.3496835823316858  1.0000
  H   H26       1.0  0.7136765052904362  0.7572503846049018  0.15129678678331984  1.0000
  H   H27       1.0  0.7855843855248563  0.757399862317925  0.6503940891464738  1.0000
  H   H28       1.0  0.286286616734614  0.24273037681553689  0.8487127967287834  1.0000
  H   H29       1.0  0.4196527326404862  0.1000006168811112  0.1819668843750151  1.0000
  H   H30       1.0  0.9192237464719425  0.8999897944578592  0.3182912046824598  1.0000
  H   H31       1.0  0.5803133567241757  0.9000001686123013  0.8179957668725423  1.0000
  H   H32       1.0  0.08082530954580848  0.09997205956463519  0.6816304840117056  1.0000
  C   C1        1.0  0.30307772079196826  0.7656539962592247  0.11691789715322896  1.0000
  C   C2        1.0  0.8031479149166925  0.23460891864097988  0.38349255908005386  1.0000
  C   C3        1.0  0.6969022731261703  0.23433739887289562  0.8831274925630056  1.0000
  C   C4        1.0  0.1968739326736254  0.7653825157367039  0.6165401970785853  1.0000
  C   C5        1.0  0.2677822469417562  0.865448380176318  0.15329145983650977  1.0000
  C   C6        1.0  0.7678726366641015  0.1347755929128382  0.3469299896937414  1.0000
  C   C7        1.0  0.7321992274739911  0.1345468971106314  0.8467323162606135  1.0000
  C   C8        1.0  0.23214554337057786  0.865213564247597  0.653094510619539  1.0000
  C   C9        1.0  0.33418560443108447  0.9464142869425771  0.19315978968315056  1.0000
  C   C10       1.0  0.8342048136470976  0.0537578851112599  0.30691290355667183  1.0000
  C   C11       1.0  0.665792948080657  0.05358488453561711  0.8068371796354512  1.0000
  C   C12       1.0  0.1658141185485249  0.9462367115965763  0.6930794086727304  1.0000
  C   C13       1.0  0.4338300809173105  0.9230582257372574  0.19658994638137992  1.0000
  C   C14       1.0  0.9338544858330095  0.07718169442266999  0.3034391525819302  1.0000
  C   C15       1.0  0.5661492073487223  0.07693560396253932  0.803399877072394  1.0000
  C   C16       1.0  0.06615857224778669  0.9228106044145648  0.6965530682319212  1.0000
  C   C17       1.0  0.4625464891680976  0.8206815361587302  0.16022225384988079  1.0000
  C   C18       1.0  0.9625782686458633  0.1795908789247065  0.34004809492539323  1.0000
  C   C19       1.0  0.5374394029697455  0.179310748304367  0.8397736888228665  1.0000
  C   C20       1.0  0.03744211971109478  0.820399836187974  0.6599658297159865  1.0000
  C   C21       1.0  0.2931993422928371  0.05306054333978239  0.2317896919575873  1.0000
  C   C22       1.0  0.7930842733172765  0.9470889982368434  0.2683535771804132  1.0000
  C   C23       1.0  0.7067836185375143  0.9469485809534887  0.7682079295257013  1.0000
  C   C24       1.0  0.20693760275459985  0.052898756601827294  0.7316191567491475  1.0000
  C   C25       1.0  0.33613712915295924  0.2304731891667373  0.24289595558361302  1.0000
  C   C26       1.0  0.8357529044288796  0.7696217238253596  0.25741506681924176  1.0000
  C   C27       1.0  0.663854642686857  0.7695573412672304  0.7571154017587248  1.0000
  C   C28       1.0  0.16427413080499056  0.23035848897292507  0.7425118343984283  1.0000
  C   C29       1.0  0.39263203109962314  0.2819889965259819  0.1904452214802035  1.0000
  C   C30       1.0  0.8924707190843574  0.7181830638443288  0.3096404343384976  1.0000
  C   C31       1.0  0.6073047085363966  0.7180210384340457  0.8094903580301749  1.0000
  C   C32       1.0  0.10758863317806086  0.2817819384721219  0.6902474842416312  1.0000
  C   C33       1.0  0.3739981683917292  0.38468067988532784  0.2058352232382745  1.0000
  C   C34       1.0  0.8739396885692866  0.6154682183478074  0.29426579474802156  1.0000
  C   C35       1.0  0.6259481054928243  0.6153277791275825  0.7941190906399385  1.0000
  C   C36       1.0  0.12613800985513984  0.38450362621666295  0.7056431776574358  1.0000
  C   C37       1.0  0.30014725443377427  0.4377696313784938  0.2757531029449468  1.0000
  C   C38       1.0  0.8000104141251894  0.5622126957586246  0.22464571038592143  1.0000
  C   C39       1.0  0.6998430393216921  0.5622501505593576  0.7242699387254277  1.0000
  C   C40       1.0  0.2000092525114708  0.43776356018874907  0.7753324924086231  1.0000
  C   C41       1.0  0.24321901069899343  0.385414260684975  0.32647796736343093  1.0000
  C   C42       1.0  0.742728905657948  0.614476773810189  0.17421656255925919  1.0000
  C   C43       1.0  0.7567866955469496  0.6146184919031513  0.6735646478955248  1.0000
  C   C44       1.0  0.25726137998572085  0.3855192756446684  0.8258052621568412  1.0000
  C   C45       1.0  0.26050277547390266  0.2822723243840032  0.310693587020161  1.0000
  C   C46       1.0  0.7599347362575131  0.7176726893857507  0.19001294810388475  1.0000
  C   C47       1.0  0.7395256843046452  0.7177542907037874  0.6893556952975217  1.0000
  C   C48       1.0  0.24004381113416423  0.28231881399219116  0.8099886560392521  1.0000
  C   C49       1.0  0.42749531917638706  0.43335058007284727  0.13830422727440356  1.0000
  C   C50       1.0  0.9279891395163415  0.5666673455430384  0.36108161906977904  1.0000
  C   C51       1.0  0.572483981355333  0.5666754096625367  0.8616846833809861  1.0000
  C   C52       1.0  0.07202612889506098  0.4333035933983424  0.6388790500321875  1.0000
  C   C53       1.0  0.15678934181094203  0.43514552285717667  0.39306920782968297  1.0000
  C   C54       1.0  0.6563464616676664  0.5643670690313627  0.10746576337387387  1.0000
  C   C55       1.0  0.8432214822799079  0.5648481473115581  0.6069873951203065  1.0000
  C   C56       1.0  0.34362547292963797  0.43563357778563744  0.8925532879920726  1.0000
  N   N1        1.0  0.3987125215873986  0.7432656146284131  0.12039718323739389  1.0000
  N   N2        1.0  0.8988165523321141  0.2570288277361001  0.3800710024444811  1.0000
  N   N3        1.0  0.6012674845834951  0.256728134276905  0.8796252940124419  1.0000
  N   N4        1.0  0.10120676722525697  0.7429603322431932  0.6199527536177316  1.0000
  N   N5        1.0  0.35643733128745225  0.1262861230983106  0.22240032831283685  1.0000
  N   N6        1.0  0.8561034721512822  0.8737992997970139  0.27774360041159724  1.0000
  N   N7        1.0  0.6435375620342823  0.8737299193402495  0.7775857037620996  1.0000
  N   N8        1.0  0.14394852869074268  0.1261786449197615  0.7221735489140216  1.0000
  O   O1        1.0  0.20861390713118763  0.07040656445972361  0.26703902607336977  1.0000
  O   O2        1.0  0.7084976381168672  0.9298897791800657  0.23322266070699993  1.0000
  O   O3        1.0  0.7913778484936668  0.9295963718498542  0.7329845638057864  1.0000
  O   O4        1.0  0.29151467721941055  0.0701139407332292  0.7667952622696745  1.0000
  O   O5        1.0  0.49029154715828577  0.3768216439435862  0.07397538332895694  1.0000
  O   O6        1.0  0.9909824312854095  0.6230112949586158  0.425332406654448  1.0000
  O   O7        1.0  0.5098837335400147  0.6233287496218337  0.9261894840916514  1.0000
  O   O8        1.0  0.008672990899810896  0.37718603592490046  0.5750080266276356  1.0000
  O   O9        1.0  0.4030573295541726  0.5241367193924447  0.14749275922590507  1.0000
  O   O10       1.0  0.9043966037287131  0.47551896336180727  0.3516519905358706  1.0000
  O   O11       1.0  0.5967722274984126  0.47583128797490565  0.8524008212682334  1.0000
  O   O12       1.0  0.09593885732534349  0.5243157156935183  0.6480130196685325  1.0000
  O   O13       1.0  0.1640292888900348  0.5281614824718944  0.4537135707190957  1.0000
  O   O14       1.0  0.6641996286223346  0.4715718096069636  0.046663529679435135  1.0000
  O   O15       1.0  0.8358679520137854  0.4719692615227657  0.5460171576737026  1.0000
  O   O16       1.0  0.3358193826769735  0.5284728578403274  0.9532066310056209  1.0000
  O   O17       1.0  0.08185011082099439  0.3773621991239794  0.3816305143475632  1.0000
  O   O18       1.0  0.5814102161335056  0.622078280531042  0.11923692471002313  1.0000
  O   O19       1.0  0.9182977711753039  0.6225157086687647  0.6188050263281542  1.0000
  O   O20       1.0  0.4185241915621986  0.37788296121070897  0.8809230375488042  1.0000
