data_image0
_chemical_formula_structural       Ag8H52C48N20O16
_chemical_formula_sum              "Ag8 H52 C48 N20 O16"
_cell_length_a       8.898750132633761
_cell_length_b       11.476185686513368
_cell_length_c       13.918693566003094
_cell_angle_alpha    90.00002944572054
_cell_angle_beta     90.00006107479366
_cell_angle_gamma    103.9188605885739

_space_group_name_H-M_alt    "P 1"
_space_group_IT_number       1

loop_
  _space_group_symop_operation_xyz
  'x, y, z'

loop_
  _atom_site_type_symbol
  _atom_site_label
  _atom_site_symmetry_multiplicity
  _atom_site_fract_x
  _atom_site_fract_y
  _atom_site_fract_z
  _atom_site_occupancy
  Ag  Ag1       1.0  0.5980011800018943  0.4840493289931943  0.9087745330288826  1.0000
  Ag  Ag2       1.0  0.4019964013234442  0.015952261368838105  0.4087748553914423  1.0000
  Ag  Ag3       1.0  0.4019985593207521  0.515954701077483  0.0912250424349068  1.0000
  Ag  Ag4       1.0  0.5980013769772513  0.9840454846030371  0.5912247200703575  1.0000
  Ag  Ag5       1.0  0.13463244660210452  0.5141352463002776  0.2093172125927154  1.0000
  Ag  Ag6       1.0  0.8653660371267194  0.9858668553460893  0.709315635947931  1.0000
  Ag  Ag7       1.0  0.8653661721387067  0.48586519285787233  0.7906845182446318  1.0000
  Ag  Ag8       1.0  0.1346337049537354  0.014133582490217107  0.2906832210568737  1.0000
  H   H1        1.0  0.8707214367964583  0.1166041412078869  0.0403977902209647  1.0000
  H   H2        1.0  0.1292813119931253  0.38339797260022834  0.5403978251998822  1.0000
  H   H3        1.0  0.12927886557668705  0.883398092085571  0.9596017852426328  1.0000
  H   H4        1.0  0.8707223631666992  0.6166006644983356  0.4596024687223448  1.0000
  H   H5        1.0  0.27466007644071777  0.5384598742909861  0.38125366069712646  1.0000
  H   H6        1.0  0.7253390306325115  0.9615397044620837  0.8812541339582437  1.0000
  H   H7        1.0  0.7253393854958716  0.4615396658179876  0.6187473516820958  1.0000
  H   H8        1.0  0.2746587449103828  0.03846163374416991  0.1187461599625408  1.0000
  H   H9        1.0  0.23837936686582145  0.6658686327378832  0.3385334300578364  1.0000
  H   H10       1.0  0.7616199357656869  0.8341318011037732  0.8385331560273814  1.0000
  H   H11       1.0  0.7616189717275786  0.33413090869115797  0.6614668638627634  1.0000
  H   H12       1.0  0.23837896312040394  0.16586953578242  0.1614678563520187  1.0000
  H   H13       1.0  0.40245873675011984  0.39160737950987823  0.2583771984673078  1.0000
  H   H14       1.0  0.5975402331788685  0.10839226264192803  0.7583781549276197  1.0000
  H   H15       1.0  0.5975390387920638  0.6083939586960128  0.7416223769952455  1.0000
  H   H16       1.0  0.4024589486110131  0.891606379738292  0.2416221389930797  1.0000
  H   H17       1.0  0.5740672896641286  0.41399897652241446  0.2106163135105206  1.0000
  H   H18       1.0  0.4259310254044593  0.08599882250160822  0.7106164253729262  1.0000
  H   H19       1.0  0.42593020573135487  0.5860014639547161  0.7893825434935096  1.0000
  H   H20       1.0  0.5740681563854294  0.9139998198786117  0.2893838685477732  1.0000
  H   H21       1.0  0.5703267386224197  0.7653216439479278  0.0053341886298384  1.0000
  H   H22       1.0  0.4296724645633887  0.7346802527834202  0.5053379577750974  1.0000
  H   H23       1.0  0.4296732836033074  0.2346796916164138  0.9946639499170118  1.0000
  H   H24       1.0  0.570326719989275  0.26531479736493685  0.4946666468942525  1.0000
  H   H25       1.0  0.7499973721895401  0.9321635969016813  0.09356095592066542  1.0000
  H   H26       1.0  0.2499986356573913  0.5678383918496622  0.5935623773962746  1.0000
  H   H27       1.0  0.2500009636432026  0.06783953676028891  0.906437182625993  1.0000
  H   H28       1.0  0.7499957753779185  0.4321557658512419  0.4064407903548002  1.0000
  H   H29       1.0  0.9725131591646772  0.8849785751599981  0.18420386787827434  1.0000
  H   H30       1.0  0.02748330830161904  0.615024401790457  0.6842037208926897  1.0000
  H   H31       1.0  0.027487703498323413  0.11502545358919045  0.8157935522111899  1.0000
  H   H32       1.0  0.9725085731413685  0.38497245305545397  0.3157965730251533  1.0000
  H   H33       1.0  0.011667756639113217  0.6780414860514983  0.1783595583435087  1.0000
  H   H34       1.0  0.9883312260877302  0.8219623801539986  0.6783608703348634  1.0000
  H   H35       1.0  0.9883356328534206  0.3219634377845396  0.8216364248305369  1.0000
  H   H36       1.0  0.011669922239711627  0.17803536185627425  0.32163798666984894  1.0000
  H   H37       1.0  0.5095267046544052  0.7102157250610192  0.35996370379895376  1.0000
  H   H38       1.0  0.49047320346051054  0.7897829333934329  0.8599639451560607  1.0000
  H   H39       1.0  0.4904724771376152  0.28978291732028083  0.6400387454964545  1.0000
  H   H40       1.0  0.5095251351343038  0.21021660803632614  0.1400377856810096  1.0000
  H   H41       1.0  0.4661988909244315  0.6935600241517578  0.2347471922395741  1.0000
  H   H42       1.0  0.5337996459159413  0.8064385106430481  0.7347467516066786  1.0000
  H   H43       1.0  0.5338000079623769  0.30644131273479763  0.7652545385980645  1.0000
  H   H44       1.0  0.4661972891896866  0.19356013437835887  0.2652542607714921  1.0000
  H   H45       1.0  0.6685926694836866  0.5934931566985783  0.2832891521895462  1.0000
  H   H46       1.0  0.3314062436188436  0.9065063242758171  0.7832907712852446  1.0000
  H   H47       1.0  0.331405949254993  0.4065072824584989  0.7167104232731063  1.0000
  H   H48       1.0  0.6685909716334919  0.0934932184743502  0.2167109595514418  1.0000
  H   H49       1.0  0.5447750288374991  0.506742677685793  0.3710135606971221  1.0000
  H   H50       1.0  0.4552263046456204  0.9932568882059912  0.8710145819968105  1.0000
  H   H51       1.0  0.4552255564394443  0.49325686110169914  0.6289852963077749  1.0000
  H   H52       1.0  0.5447723140944731  0.006743550951803503  0.1289864303823052  1.0000
  C   C1        1.0  0.6704931617859131  0.7499719675654436  0.043656781680070395  1.0000
  C   C2        1.0  0.3295083639643721  0.7500299647751663  0.5436604891363217  1.0000
  C   C3        1.0  0.3295079837808784  0.25002936667776515  0.9563399199506933  1.0000
  C   C4        1.0  0.670490820587588  0.24996508537283552  0.4563433970747893  1.0000
  C   C5        1.0  0.7687867760013275  0.8420510579714602  0.09426359554008461  1.0000
  C   C6        1.0  0.23121119977656687  0.6579500311123355  0.5942657605414041  1.0000
  C   C7        1.0  0.23121352636897544  0.1579511753205622  0.9057331060905796  1.0000
  C   C8        1.0  0.7687854579422934  0.3420441239470194  0.40573597029396075  1.0000
  C   C9        1.0  0.8918984915257014  0.8151182102623198  0.1440671565423557  1.0000
  C   C10       1.0  0.10809958010644041  0.6848865207651897  0.6440699675697346  1.0000
  C   C11       1.0  0.1081026512818681  0.18488671621454963  0.8559288266309295  1.0000
  C   C12       1.0  0.8918956713654252  0.3151103301201914  0.3559317632657226  1.0000
  C   C13       1.0  0.9140234139641309  0.6993523228490661  0.1407025998458309  1.0000
  C   C14       1.0  0.08597633739913847  0.8006506067226412  0.640705444446141  1.0000
  C   C15       1.0  0.08598109887089582  0.30065259966656305  0.8592933833285914  1.0000
  C   C16       1.0  0.9140211607584162  0.199346241522271  0.3592970048483082  1.0000
  C   C17       1.0  0.81209989479634  0.6121629310694348  0.08622401435467711  1.0000
  C   C18       1.0  0.18790143233344034  0.8878417382635037  0.5862276833666725  1.0000
  C   C19       1.0  0.18790461803868652  0.3878419914461946  0.9137719688197522  1.0000
  C   C20       1.0  0.8120994358508538  0.11215510601980584  0.4137740474706888  1.0000
  C   C21       1.0  0.8312912112269187  0.48980155921154994  0.0733082715115643  1.0000
  C   C22       1.0  0.1687085128466705  0.010201489135468504  0.5733103319393109  1.0000
  C   C23       1.0  0.16871189812176374  0.5102024668971624  0.9266898670369059  1.0000
  C   C24       1.0  0.8312912319951381  0.9897953564682569  0.4266913988976669  1.0000
  C   C25       1.0  0.9116598743832612  0.3259238249566324  0.0843969488158507  1.0000
  C   C26       1.0  0.0883423984735643  0.17408012954388144  0.5843954311142098  1.0000
  C   C27       1.0  0.08834435830932821  0.674080199832389  0.9156026266494663  1.0000
  C   C28       1.0  0.9116615568329679  0.8259194052834434  0.4156055812665329  1.0000
  C   C29       1.0  0.7912630590892319  0.30813109704747893  0.0158329979363003  1.0000
  C   C30       1.0  0.20873739437582367  0.1918709948827627  0.5158322880633008  1.0000
  C   C31       1.0  0.20873864677168538  0.6918720326536061  0.9841658590697265  1.0000
  C   C32       1.0  0.7912688076156728  0.8081285373037306  0.48416872431820934  1.0000
  C   C33       1.0  0.008764773461294329  0.24640511256850328  0.1175577832772703  1.0000
  C   C34       1.0  0.991236161566867  0.25359797862247296  0.6175569131556883  1.0000
  C   C35       1.0  0.9912369324003336  0.753598017132944  0.8824417921869951  1.0000
  C   C36       1.0  0.00876667039575801  0.7464015575245496  0.3824426623082076  1.0000
  C   C37       1.0  0.7293101238137396  0.20376476692384668  0.9507878009819352  1.0000
  C   C38       1.0  0.27069203406874454  0.29623686009036027  0.4507881517474601  1.0000
  C   C39       1.0  0.2706924252436664  0.7962374637284242  0.0492110560241983  1.0000
  C   C40       1.0  0.7293119212384908  0.7037626747373197  0.5492135790915144  1.0000
  C   C41       1.0  0.45634315652522167  0.645502207282739  0.3035862544925436  1.0000
  C   C42       1.0  0.5436583235949611  0.8544981890369315  0.803585840750074  1.0000
  C   C43       1.0  0.5436571458500623  0.3545000260117989  0.6964154763457557  1.0000
  C   C44       1.0  0.4563425418294003  0.14550224747966922  0.1964144531715775  1.0000
  C   C45       1.0  0.5475644350645936  0.5496108415496651  0.3000126541245933  1.0000
  C   C46       1.0  0.4524342310035152  0.9503877583875424  0.8000129370623911  1.0000
  C   C47       1.0  0.45243418367408583  0.4503895976074119  0.6999869213380591  1.0000
  C   C48       1.0  0.5475627041021126  0.04961088663386451  0.1999880753157797  1.0000
  N   N1        1.0  0.6903460352240886  0.6379805927311895  0.0395428730653151  1.0000
  N   N2        1.0  0.3096549193301001  0.8620231322805267  0.5395466140546858  1.0000
  N   N3        1.0  0.3096567939778864  0.36202253564876935  0.9604545470246251  1.0000
  N   N4        1.0  0.6903456687089147  0.13797281427473962  0.4604558352406301  1.0000
  N   N5        1.0  0.7429288395641933  0.4122548333478094  0.0101600571472744  1.0000
  N   N6        1.0  0.2570721657209418  0.08774545614407003  0.510161491794392  1.0000
  N   N7        1.0  0.25707483283427723  0.5877473959833351  0.9898373629427653  1.0000
  N   N8        1.0  0.7429301059511174  0.9122522845468596  0.4898395205853988  1.0000
  N   N9        1.0  0.936508986330928  0.4412249986262324  0.11863439016774889  1.0000
  N   N10       1.0  0.06349166792657002  0.05878078814600231  0.6186356809678912  1.0000
  N   N11       1.0  0.06349327982125898  0.558779926531294  0.8813637483806147  1.0000
  N   N12       1.0  0.9365069508142411  0.9412196510121548  0.3813660498694631  1.0000
  N   N13       1.0  0.29020379900217813  0.596473164837235  0.32349969456291916  1.0000
  N   N14       1.0  0.7097965972046866  0.9035272526786929  0.8234994144268128  1.0000
  N   N15       1.0  0.709795662934411  0.40352637527174556  0.6765013178163031  1.0000
  N   N16       1.0  0.29020202153541425  0.09647318647909496  0.1765015979523099  1.0000
  N   N17       1.0  0.4884717794859696  0.45641517673519877  0.22642093753865572  1.0000
  N   N18       1.0  0.5115271271681365  0.04358443352037972  0.7264210898115524  1.0000
  N   N19       1.0  0.5115259960562141  0.5435861614706924  0.7735786379238972  1.0000
  N   N20       1.0  0.4884712114252565  0.9564151079086544  0.2735792041090548  1.0000
  O   O1        1.0  0.7603125976598477  0.10221189557704245  0.9740169818237661  1.0000
  O   O2        1.0  0.23969128985212518  0.39779154875916606  0.4740180726127861  1.0000
  O   O3        1.0  0.2396868615175194  0.8977912367655919  0.025983312097970702  1.0000
  O   O4        1.0  0.7603137887976034  0.6022079847480982  0.5259836582265791  1.0000
  O   O5        1.0  0.653146595671835  0.21810822746776645  0.8780977662574329  1.0000
  O   O6        1.0  0.3468565416253425  0.2818933256734796  0.3780981628080653  1.0000
  O   O7        1.0  0.3468596035583076  0.7818948969513003  0.12190037229188991  1.0000
  O   O8        1.0  0.6531474136826105  0.7181062091545558  0.6219042864891478  1.0000
  O   O9        1.0  0.1259132755687062  0.28597505849879923  0.16828816733923446  1.0000
  O   O10       1.0  0.8740863564160009  0.21402718691750525  0.6682850455338709  1.0000
  O   O11       1.0  0.8740867466598701  0.7140262770669781  0.8317128450405491  1.0000
  O   O12       1.0  0.12591422885951428  0.785972351869269  0.3317123745545629  1.0000
  O   O13       1.0  0.96801518182091  0.13274105701432867  0.09272601372148162  1.0000
  O   O14       1.0  0.03198654723712485  0.36726111034343506  0.592725975739647  1.0000
  O   O15       1.0  0.031985963748020686  0.8672602772299599  0.9072728432839839  1.0000
  O   O16       1.0  0.9680174080679791  0.632738424483172  0.40727359972462546  1.0000
