data_image0
_chemical_formula_structural       Zr6H14C54Cl20O32
_chemical_formula_sum              "Zr6 H14 C54 Cl20 O32"
_cell_length_a       14.849950037956633
_cell_length_b       14.826377671636228
_cell_length_c       14.754441588360146
_cell_angle_alpha    60.28279120426811
_cell_angle_beta     59.75613901951018
_cell_angle_gamma    59.71928984450878

_space_group_name_H-M_alt    "P 1"
_space_group_IT_number       1

loop_
  _space_group_symop_operation_xyz
  'x, y, z'

loop_
  _atom_site_type_symbol
  _atom_site_label
  _atom_site_symmetry_multiplicity
  _atom_site_fract_x
  _atom_site_fract_y
  _atom_site_fract_z
  _atom_site_occupancy
  Zr  Zr1       1.0  0.8791688144736723  0.8827756439981227  0.6241146933272007  1.0000
  Zr  Zr2       1.0  0.11912700093343885  0.11959705777596241  0.3816925627575359  1.0000
  Zr  Zr3       1.0  0.12179819226894768  0.8774515692095972  0.6181761001105245  1.0000
  Zr  Zr4       1.0  0.8837653664941242  0.11667565669886688  0.379125844408712  1.0000
  Zr  Zr5       1.0  0.11982706833945395  0.8799855662293506  0.3800074623212241  1.0000
  Zr  Zr6       1.0  0.8811418600447425  0.1227613332576354  0.6177978297406598  1.0000
  H   H1        1.0  0.09166070958480085  0.717562758734651  0.5964418626878256  1.0000
  H   H2        1.0  0.10107396942395751  0.09111783199769262  0.2158549306970983  1.0000
  H   H3        1.0  0.09596566507026688  0.09617408216194427  0.5908738586455726  1.0000
  H   H4        1.0  0.7173588238245899  0.0949666634785657  0.59916104129222  1.0000
  H   H5        1.0  0.9825024729831854  0.5836986216031477  0.7409312259160502  1.0000
  H   H6        1.0  0.9660493589520841  0.42739121768779853  0.7415023885045146  1.0000
  H   H7        1.0  0.9669535790398669  0.25128764153281236  0.07581466284366221  1.0000
  H   H8        1.0  0.9551662641598496  0.26122500799660053  0.9111801403502116  1.0000
  H   H9        1.0  0.9344612160958621  0.578614167030487  0.21881635221097895  1.0000
  H   H10       1.0  0.9747550600433711  0.4328723253174117  0.27578074193159824  1.0000
  H   H11       1.0  0.0763703637167339  0.4971718951013884  0.19327633330212993  1.0000
  H   H12       1.0  0.09574979718503586  0.65493940942833  0.02431825882489858  1.0000
  H   H13       1.0  0.02317276151418888  0.7549254821738743  0.9306823041255328  1.0000
  H   H14       1.0  0.9505589230583028  0.7154040253888921  0.07558747644574763  1.0000
  C   C1        1.0  0.9868896557239921  0.7052341728718899  0.49947845423164944  1.0000
  C   C2        1.0  0.3162881029267056  0.9938397096574219  0.2101324627928563  1.0000
  C   C3        1.0  0.9913947457128105  0.31143382775412204  0.49427066342251197  1.0000
  C   C4        1.0  0.7091021986193055  0.000121289034375191  0.8171592755912087  1.0000
  C   C5        1.0  0.9992093472668487  0.7007119469250541  0.8091379221965695  1.0000
  C   C6        1.0  0.7004641199875294  0.9989579756080929  0.4985166265616955  1.0000
  C   C7        1.0  0.9958782850851405  0.3052977381955984  0.19900212866193112  1.0000
  C   C8        1.0  0.31073550254357973  0.9873128002089613  0.4971398578277474  1.0000
  C   C9        1.0  0.29861745389407457  0.6860990289175531  0.49179017737743896  1.0000
  C   C10       1.0  0.0006906991303167282  0.005053742373128538  0.8002566115641017  1.0000
  C   C11       1.0  0.695521835735846  0.3012203390739785  0.49274875611809693  1.0000
  C   C12       1.0  0.009908592230992304  0.9901772078623453  0.19598468727459561  1.0000
  C   C13       1.0  0.9894832790960993  0.41443066867485384  0.49356917248157134  1.0000
  C   C14       1.0  0.9859065637893706  0.6043108465387448  0.49820017976971803  1.0000
  C   C15       1.0  0.0819482627882309  0.41382671383614417  0.4983311303001443  1.0000
  C   C16       1.0  0.8934729926054107  0.6048765385334888  0.49370689518811883  1.0000
  C   C17       1.0  0.0797820270863809  0.5082102244466853  0.5012780355606878  1.0000
  C   C18       1.0  0.8952802997460766  0.510454736028528  0.49081301132791577  1.0000
  C   C19       1.0  0.4234183179109935  0.9981143002428322  0.11487812898352001  1.0000
  C   C20       1.0  0.6167545100799571  0.0007375598240174821  0.926899241635013  1.0000
  C   C21       1.0  0.42639490959734877  0.09473531790344224  0.023209000524851  1.0000
  C   C22       1.0  0.6138064114647933  0.9040091102879089  0.01965095231511809  1.0000
  C   C23       1.0  0.528374510365566  0.10050163452010005  0.9381259007804558  1.0000
  C   C24       1.0  0.5230489293914716  0.9092328250313241  0.11854771459169212  1.0000
  C   C25       1.0  0.0019976458634757385  0.0050044247601377136  0.901831157278913  1.0000
  C   C26       1.0  0.012416970945316875  0.9903927737479208  0.0927920962936285  1.0000
  C   C27       1.0  0.9287453554473262  0.9651889029885722  0.006047444089375922  1.0000
  C   C28       1.0  0.08369912889155989  0.033496647996436583  0.9885643053164512  1.0000
  C   C29       1.0  0.9380787420061693  0.9523417693086244  0.10204215029073561  1.0000
  C   C30       1.0  0.07749509947015547  0.04172451074818889  0.8926429985127057  1.0000
  C   C31       1.0  0.39159012767927953  0.5778176070001206  0.48805590554644623  1.0000
  C   C32       1.0  0.5882510961931118  0.3956890537091482  0.4883353173666051  1.0000
  C   C33       1.0  0.47912691915760763  0.5685605841859316  0.3869002887825065  1.0000
  C   C34       1.0  0.489214783431585  0.3882773145994634  0.5772978806061602  1.0000
  C   C35       1.0  0.5828243087142441  0.4864311871938581  0.391164254821078  1.0000
  C   C36       1.0  0.3954192661683535  0.48396889798012666  0.5838243280164476  1.0000
  C   C37       1.0  0.9983888881755546  0.5990275048001835  0.9098554512514242  1.0000
  C   C38       1.0  0.9864360557897457  0.5092934990700397  0.9088466289029853  1.0000
  C   C39       1.0  0.006412889601314526  0.5935890891742587  0.0027367503449440404  1.0000
  C   C40       1.0  0.9809685456111908  0.5110323756796616  0.8144682421896265  1.0000
  C   C41       1.0  0.9706095171535695  0.423533664985747  0.8148968440918197  1.0000
  C   C42       1.0  0.9923671243780705  0.4085084496508387  0.09980364389944209  1.0000
  C   C43       1.0  0.999901930231019  0.498262438058134  0.10016982405191774  1.0000
  C   C44       1.0  0.9835105540609066  0.41227235006702756  0.005314844826166913  1.0000
  C   C45       1.0  0.9722293286308384  0.32398045069137277  0.002717475997919128  1.0000
  C   C46       1.0  0.965077027544382  0.3297115373522601  0.9103077364955114  1.0000
  C   C47       1.0  0.41489779507513463  0.9833001869623672  0.4967220377097804  1.0000
  C   C48       1.0  0.5981986434979876  0.9999290036568735  0.498337003582634  1.0000
  C   C49       1.0  0.43730310270873235  0.9377716433155213  0.5961216795647388  1.0000
  C   C50       1.0  0.5757282266089023  0.04544196163870853  0.3986936402277905  1.0000
  C   C51       1.0  0.5247021289380027  0.9504484926974184  0.5974440187300091  1.0000
  C   C52       1.0  0.48708823055271466  0.0343328849680162  0.3979209939330275  1.0000
  C   C53       1.0  0.9962736182596076  0.5011338259823929  0.2025141957842751  1.0000
  C   C54       1.0  0.019363825108442097  0.6851866479231745  0.007432027293923146  1.0000
  Cl  Cl1       1.0  0.19794270150536866  0.297239187619077  0.5030630295611687  1.0000
  Cl  Cl2       1.0  0.7774476111240958  0.7214000974058054  0.4910873583320597  1.0000
  Cl  Cl3       1.0  0.1911712274791666  0.5038543156281037  0.5132264766689332  1.0000
  Cl  Cl4       1.0  0.7831416124504148  0.514343663794662  0.48058209299623666  1.0000
  Cl  Cl5       1.0  0.3082996733028692  0.20822164332548707  0.014651298915829676  1.0000
  Cl  Cl6       1.0  0.7229131709213025  0.7819391929158  0.01774745885489189  1.0000
  Cl  Cl7       1.0  0.5410679799552225  0.22785921817334312  0.8583618925409979  1.0000
  Cl  Cl8       1.0  0.5365564620647236  0.8171976563685986  0.24436654451080406  1.0000
  Cl  Cl9       1.0  0.8260628737620197  0.9353478436458287  0.0160137821036273  1.0000
  Cl  Cl10      1.0  0.17789696986083908  0.07546570153024865  0.979251327694314  1.0000
  Cl  Cl11      1.0  0.8637093060658858  0.8848364983910811  0.23081329894015593  1.0000
  Cl  Cl12      1.0  0.15501103248659126  0.10547185883144286  0.7631153174972738  1.0000
  Cl  Cl13      1.0  0.46218893470614847  0.6457226783572165  0.2605571320215747  1.0000
  Cl  Cl14      1.0  0.4806794129408659  0.25999360313185355  0.666482374685039  1.0000
  Cl  Cl15      1.0  0.6989727026289287  0.49592322739944456  0.27577048774595186  1.0000
  Cl  Cl16      1.0  0.28267965194319816  0.4810286923240312  0.7039998771515102  1.0000
  Cl  Cl17      1.0  0.360344296417054  0.8662761090980808  0.7188773390838746  1.0000
  Cl  Cl18      1.0  0.6511187178485899  0.11760772689484601  0.27529083306836805  1.0000
  Cl  Cl19      1.0  0.5334238067354848  0.9106496004943734  0.7245728016187629  1.0000
  Cl  Cl20      1.0  0.4729228749662441  0.08044652385424206  0.2722552003366944  1.0000
  O   O1        1.0  0.9173824125488113  0.7370429735187544  0.5834450600179083  1.0000
  O   O2        1.0  0.2696548937939553  0.07089821318938763  0.251516506486503  1.0000
  O   O3        1.0  0.0686373202820363  0.27194499376768283  0.417548205018484  1.0000
  O   O4        1.0  0.7367228737931059  0.9269253616175701  0.7779415195229193  1.0000
  O   O5        1.0  0.07941451614789234  0.7367414080615547  0.7650512558984772  1.0000
  O   O6        1.0  0.7404855025580943  0.07430782124131226  0.4227485509648758  1.0000
  O   O7        1.0  0.921475460521364  0.2629834657945692  0.23914562572451825  1.0000
  O   O8        1.0  0.27545842390586733  0.9065325890624508  0.5649019873900798  1.0000
  O   O9        1.0  0.2562851961830218  0.7338429578297011  0.4156119672568152  1.0000
  O   O10       1.0  0.9262289474731136  0.08429031417511383  0.7607958578917718  1.0000
  O   O11       1.0  0.7311574110087238  0.272252207116722  0.5686790406849627  1.0000
  O   O12       1.0  0.08762682164714881  0.9155681922379341  0.23348496936699803  1.0000
  O   O13       1.0  0.0748680929746753  0.9244504015961752  0.7650861727582097  1.0000
  O   O14       1.0  0.7402303506787078  0.2580395380467808  0.41758331745595734  1.0000
  O   O15       1.0  0.9302400553425302  0.06618025715548717  0.23499698019983853  1.0000
  O   O16       1.0  0.27100904588597535  0.7231313695705451  0.5665013643620825  1.0000
  O   O17       1.0  0.919897357614559  0.7450392221820719  0.7719109161506597  1.0000
  O   O18       1.0  0.2631243065527471  0.07390903846186349  0.43230450222383615  1.0000
  O   O19       1.0  0.0744543765077239  0.26449171465758065  0.23636108243812254  1.0000
  O   O20       1.0  0.7411880135899481  0.9216919518559196  0.5735956491097627  1.0000
  O   O21       1.0  0.7490507893127828  0.07720648972809852  0.7697355809856462  1.0000
  O   O22       1.0  0.058835771547428736  0.7467712780037984  0.41818958292589764  1.0000
  O   O23       1.0  0.2802180810085489  0.9192574723601438  0.238484061986327  1.0000
  O   O24       1.0  0.9165622873815522  0.27159037772386796  0.5731118399952919  1.0000
  O   O25       1.0  0.7978780567353568  0.06734994667435505  0.5715066422409549  1.0000
  O   O26       1.0  0.06809847162679018  0.06849518729695346  0.5661363297797521  1.0000
  O   O27       1.0  0.07243975059161302  0.0643339209292577  0.2964031215857901  1.0000
  O   O28       1.0  0.06570313548361639  0.797734108147594  0.568273326747118  1.0000
  O   O29       1.0  0.14858985580188755  0.948882740690642  0.450815637291683  1.0000
  O   O30       1.0  0.9511806323831424  0.9498172622155678  0.45261260216410915  1.0000
  O   O31       1.0  0.950199439865948  0.1490589780362298  0.44952285880637555  1.0000
  O   O32       1.0  0.9525026500016981  0.9525917872786708  0.6488369172542223  1.0000
