data_image0
_chemical_formula_structural       CuH28C44N6O14
_chemical_formula_sum              "Cu1 H28 C44 N6 O14"
_cell_length_a       8.877800746714664
_cell_length_b       10.105834811991983
_cell_length_c       15.370187922869384
_cell_angle_alpha    105.02063898378273
_cell_angle_beta     83.4126781029485
_cell_angle_gamma    111.08667773563054

_space_group_name_H-M_alt    "P 1"
_space_group_IT_number       1

loop_
  _space_group_symop_operation_xyz
  'x, y, z'

loop_
  _atom_site_type_symbol
  _atom_site_label
  _atom_site_symmetry_multiplicity
  _atom_site_fract_x
  _atom_site_fract_y
  _atom_site_fract_z
  _atom_site_occupancy
  Cu  Cu1       1.0  0.49999286076557325  0.5000063375096317  2.021470905292469e-06  1.0000
  H   H1        1.0  0.30466775286947007  0.5679880943041197  0.16067769627807138  1.0000
  H   H2        1.0  0.6953219027103472  0.4320108033573931  0.8393337084107699  1.0000
  H   H3        1.0  0.20401665957340495  0.47172299683285246  0.2989654997218095  1.0000
  H   H4        1.0  0.7959563980150008  0.5282600670159  0.7010328788275401  1.0000
  H   H5        1.0  0.33507890146733393  0.092634878365196  0.1651799988873819  1.0000
  H   H6        1.0  0.6649402073107565  0.9073715125219977  0.8348127538080377  1.0000
  H   H7        1.0  0.4239940475177448  0.2017456073666324  0.0323696056690679  1.0000
  H   H8        1.0  0.5760297678624935  0.798283611326937  0.9676330647056375  1.0000
  H   H9        1.0  0.4739787764677388  0.24951676831567945  0.4708649516127252  1.0000
  H   H10       1.0  0.5260184550530552  0.7504736299806182  0.5291214322164207  1.0000
  H   H11       1.0  0.5892066302032715  0.2588832315609437  0.6146152627847671  1.0000
  H   H12       1.0  0.41082187615464955  0.7411180951280513  0.38536793845793227  1.0000
  H   H13       1.0  0.5832362545822107  0.14613155583258927  0.7392922674153722  1.0000
  H   H14       1.0  0.4168079211543088  0.853885448938442  0.2606909277052125  1.0000
  H   H15       1.0  0.36393012046966794  0.9159179385342001  0.7539358713444172  1.0000
  H   H16       1.0  0.6361183712779307  0.0841101350998841  0.24606455324008178  1.0000
  H   H17       1.0  0.15140658675401394  0.7902323440731677  0.6372384282576249  1.0000
  H   H18       1.0  0.8486314878641822  0.20977497507225  0.36277017722333227  1.0000
  H   H19       1.0  0.03896312709931485  0.7789612090513528  0.4935245752322074  1.0000
  H   H20       1.0  0.9610560909809177  0.22103037705227283  0.5064926004949157  1.0000
  H   H21       1.0  0.79088398697327  0.4318151962119926  0.024893548915414978  1.0000
  H   H22       1.0  0.20907751502975463  0.5681673974034354  0.9751057663546873  1.0000
  H   H23       1.0  0.006524865226019577  0.5243454834141732  0.14181723127662588  1.0000
  H   H24       1.0  0.9934461615427633  0.47562127180315616  0.8581675962170789  1.0000
  H   H25       1.0  0.804929969554884  0.858825619241486  0.2712757224051217  1.0000
  H   H26       1.0  0.19509244264763473  0.14118303427197526  0.7287146719813293  1.0000
  H   H27       1.0  0.6025375063979154  0.7560121028953615  0.14862021980398765  1.0000
  H   H28       1.0  0.3974667589034055  0.24400020869197184  0.8513830378683522  1.0000
  C   C1        1.0  0.3084933710330374  0.4635327909602437  0.16549144123471388  1.0000
  C   C2        1.0  0.6914990346074391  0.5364705082897031  0.8345192581372203  1.0000
  C   C3        1.0  0.25391520114138183  0.4096986580065049  0.24196153834184025  1.0000
  C   C4        1.0  0.7460687818487202  0.5902945662910495  0.758041990736423  1.0000
  C   C5        1.0  0.2694085288094215  0.2780839669837221  0.2449926035640573  1.0000
  C   C6        1.0  0.7305908161882398  0.721913074157868  0.7550064795584814  1.0000
  C   C7        1.0  0.3276111719110517  0.19913478299743298  0.16849547926356215  1.0000
  C   C8        1.0  0.6723977469932051  0.8008669467584538  0.8315033836070995  1.0000
  C   C9        1.0  0.37736130509585303  0.2590076318559085  0.09352009874027088  1.0000
  C   C10       1.0  0.6226487037777488  0.7410049163749122  0.9064830177896537  1.0000
  C   C11       1.0  0.2295095414146999  0.23251654836510477  0.3321118267264466  1.0000
  C   C12       1.0  0.7704712330456687  0.7674700819458095  0.667889474033295  1.0000
  C   C13       1.0  0.2679676853953055  0.07379837916748498  0.4108085102439744  1.0000
  C   C14       1.0  0.7320143301324505  0.926189400778561  0.589195537976856  1.0000
  C   C15       1.0  0.37840040008899206  0.14831198460814926  0.4776567720761092  1.0000
  C   C16       1.0  0.6215924813415442  0.8516879741321901  0.522338401431881  1.0000
  C   C17       1.0  0.37347690504422093  0.08937417442998448  0.5525512074009171  1.0000
  C   C18       1.0  0.6265220776956469  0.9106346592452472  0.44744776273220316  1.0000
  C   C19       1.0  0.4919661103672084  0.15768884791479817  0.6199544239100871  1.0000
  C   C20       1.0  0.5080566356602392  0.8423273385299695  0.38003647811841285  1.0000
  C   C21       1.0  0.4884481332250346  0.09430135319745858  0.6898095510453855  1.0000
  C   C22       1.0  0.5115886892139015  0.9057186088699749  0.31017824212772627  1.0000
  C   C23       1.0  0.36452186379792534  0.961906926438402  0.6970511126203149  1.0000
  C   C24       1.0  0.6355219226641324  0.03811663568151859  0.3029468015584129  1.0000
  C   C25       1.0  0.24712845204836492  0.8927798115263952  0.6327385248337478  1.0000
  C   C26       1.0  0.7529037039873856  0.10723583445523839  0.3672682978622958  1.0000
  C   C27       1.0  0.24941976739174263  0.9531675268753688  0.5584636607993045  1.0000
  C   C28       1.0  0.7505917621497955  0.046844044243080384  0.4415431679433722  1.0000
  C   C29       1.0  0.13541684437236512  0.8807441174253584  0.4889712714302235  1.0000
  C   C30       1.0  0.8645825542868764  0.11925301990357438  0.5110382544387022  1.0000
  C   C31       1.0  0.14655061359458435  0.9396250988078733  0.41639503328568844  1.0000
  C   C32       1.0  0.8534221173228146  0.060366633868944995  0.5836138273905006  1.0000
  C   C33       1.0  0.0416083832117308  0.7477083090123243  0.2879614165586659  1.0000
  C   C34       1.0  0.9583762312786421  0.25229354136197196  0.7120434325434317  1.0000
  C   C35       1.0  0.8001456999591029  0.5256286206479218  0.0812589748075467  1.0000
  C   C36       1.0  0.1998304415148766  0.4743663777205853  0.918739206066931  1.0000
  C   C37       1.0  0.9170871056848284  0.5765512395326339  0.1462210872938456  1.0000
  C   C38       1.0  0.08289903455700907  0.423438766395698  0.8537727493868701  1.0000
  C   C39       1.0  0.919012456472494  0.696361048419831  0.21695568855166408  1.0000
  C   C40       1.0  0.08098984390824163  0.30364038514920094  0.7830407259461794  1.0000
  C   C41       1.0  0.8061736817861841  0.7638783961129787  0.21854543509805066  1.0000
  C   C42       1.0  0.193833070733433  0.2361253474110185  0.7814485928623396  1.0000
  C   C43       1.0  0.6931697661893494  0.7075768995305296  0.15089802585810466  1.0000
  C   C44       1.0  0.3068293172825491  0.2924254882515029  0.8490999401429062  1.0000
  N   N1        1.0  0.37308368660469426  0.39109345662917144  0.09372238276842637  1.0000
  N   N2        1.0  0.6269058443309701  0.6089107815654485  0.9062865959270283  1.0000
  N   N3        1.0  0.6889219768670855  0.5894780676626254  0.0846298282377731  1.0000
  N   N4        1.0  0.3110561379065828  0.4105202605245424  0.9153714159895117  1.0000
  N   N5        1.0  0.36957786376823515  0.8326466581694872  0.09305753126928809  1.0000
  N   N6        1.0  0.6304058299256212  0.16733792478299137  0.9069414056055007  1.0000
  O   O1        1.0  0.16367842153169926  0.290672228113209  0.39675300965463106  1.0000
  O   O2        1.0  0.8363194106143368  0.7093086784496518  0.6032494812894669  1.0000
  O   O3        1.0  0.2828122508613049  0.12089285653933497  0.33123583680911384  1.0000
  O   O4        1.0  0.7171707106002572  0.8790895462296149  0.668762784173957  1.0000
  O   O5        1.0  0.13382450507717178  0.6856625544712642  0.2934933285385739  1.0000
  O   O6        1.0  0.8661773259136182  0.31434966856600244  0.7065112944625935  1.0000
  O   O7        1.0  0.03557863559379373  0.8734006545485898  0.34684972958766014  1.0000
  O   O8        1.0  0.9643863578350886  0.1265897254399206  0.6531637235650647  1.0000
  O   O9        1.0  0.3759357966800039  0.702240570802381  0.07370108931316113  1.0000
  O   O10       1.0  0.6240467902863145  0.29774829007443765  0.9263011535457436  1.0000
  O   O11       1.0  0.4992506276087312  0.9394983761449254  0.0951779056573159  1.0000
  O   O12       1.0  0.5007315990787687  0.06048728010728149  0.9048277617511005  1.0000
  O   O13       1.0  0.23426951536153942  0.8486684181557889  0.10961249676834227  1.0000
  O   O14       1.0  0.7657152288565073  0.15131722435180706  0.8903800536930077  1.0000
