data_image0
_chemical_formula_structural       Ni2H28C28N16O16
_chemical_formula_sum              "Ni2 H28 C28 N16 O16"
_cell_length_a       7.110551309501172
_cell_length_b       8.46201526618494
_cell_length_c       13.848082230325417
_cell_angle_alpha    90.00063814761126
_cell_angle_beta     97.60624194126838
_cell_angle_gamma    90.00033149037408

_space_group_name_H-M_alt    "P 1"
_space_group_IT_number       1

loop_
  _space_group_symop_operation_xyz
  'x, y, z'

loop_
  _atom_site_type_symbol
  _atom_site_label
  _atom_site_symmetry_multiplicity
  _atom_site_fract_x
  _atom_site_fract_y
  _atom_site_fract_z
  _atom_site_occupancy
  Ni  Ni1       1.0  0.999999685862896  9.864067322999999e-07  0.9999999423505487  1.0000
  Ni  Ni2       1.0  0.5000011657618089  0.5000013637932739  0.4999988861518361  1.0000
  H   H1        1.0  0.37904495369959074  0.45847849955870146  0.1810291340435697  1.0000
  H   H2        1.0  0.12096025434408378  0.9584781942389424  0.3189782126831062  1.0000
  H   H3        1.0  0.6209659118559967  0.5415195010543882  0.8189698730926692  1.0000
  H   H4        1.0  0.8790336311528719  0.04152453334120309  0.6810212188922763  1.0000
  H   H5        1.0  0.20357226647247728  0.18664213489525847  0.1850147551601253  1.0000
  H   H6        1.0  0.29642055144232426  0.6866450125543649  0.3149849168825156  1.0000
  H   H7        1.0  0.7964357177118586  0.8133535021926334  0.8149826344665883  1.0000
  H   H8        1.0  0.7035705187074016  0.3133565332720564  0.6850150677790623  1.0000
  H   H9        1.0  0.32126592238729057  0.7350156908753716  0.8730800463405615  1.0000
  H   H10       1.0  0.1787423033813269  0.23501517721447127  0.6269276394203019  1.0000
  H   H11       1.0  0.6787336817994147  0.26498230972917713  0.12692117315796034  1.0000
  H   H12       1.0  0.8212543974478237  0.764985186864628  0.3730712390557542  1.0000
  H   H13       1.0  0.1445468945354165  0.6865112924795013  0.7278562318933764  1.0000
  H   H14       1.0  0.35545934712544647  0.18650249697606108  0.7721459446403856  1.0000
  H   H15       1.0  0.8554539743012483  0.31349143508941063  0.2721400081294618  1.0000
  H   H16       1.0  0.644533163699883  0.8134978671097738  0.22785484876720122  1.0000
  H   H17       1.0  0.020014540456010393  0.5075911992964848  0.7033690969524997  1.0000
  H   H18       1.0  0.4799917345640026  0.007588208563554102  0.7966361807763889  1.0000
  H   H19       1.0  0.9799934877460075  0.4924056195562442  0.2966297397394939  1.0000
  H   H20       1.0  0.5200063849394353  0.9924121555199222  0.203362782919605  1.0000
  H   H21       1.0  0.13896439553096224  0.8281329678740901  0.1409125609997162  1.0000
  H   H22       1.0  0.36103108500248027  0.32813168847660995  0.35908969130554885  1.0000
  H   H23       1.0  0.8610337679801319  0.17186621447104494  0.859087849752804  1.0000
  H   H24       1.0  0.6389642851977868  0.6718734026309718  0.6409119960898693  1.0000
  H   H25       1.0  0.2842902416977253  0.8184635622207279  0.0656421956787128  1.0000
  H   H26       1.0  0.2157136908714961  0.31845936587919965  0.4343612198462737  1.0000
  H   H27       1.0  0.7157093404976749  0.18153798363196927  0.9343583003024918  1.0000
  H   H28       1.0  0.7842845166723222  0.6815445434855503  0.565640637984643  1.0000
  C   C1        1.0  0.2038513808537132  0.26153033935714376  0.12155037283818611  1.0000
  C   C2        1.0  0.2961520688784915  0.7615260959802158  0.3784526209924763  1.0000
  C   C3        1.0  0.7961552947130812  0.7384712065174526  0.8784505492427144  1.0000
  C   C4        1.0  0.7038474913105688  0.2384754498658593  0.6215471514582873  1.0000
  C   C5        1.0  0.25882774063946096  0.4650036423769279  0.030634187234475998  1.0000
  C   C6        1.0  0.24117315668196676  0.9650019524380722  0.46936933450557927  1.0000
  C   C7        1.0  0.7411718195496066  0.5349979034691469  0.9693655852162806  1.0000
  C   C8        1.0  0.758827800175041  0.03499959340575739  0.5306297996346673  1.0000
  C   C9        1.0  0.15148363868483014  0.3509126379305129  0.973988049394471  1.0000
  C   C10       1.0  0.3485140885385789  0.8509105323234677  0.5260154718461791  1.0000
  C   C11       1.0  0.8485145468225853  0.6490841809180664  0.026013084879736015  1.0000
  C   C12       1.0  0.6514869123210757  0.14908865003042845  0.47398510934620935  1.0000
  C   C13       1.0  0.1000857284252135  0.3797912301972983  0.8724008162906216  1.0000
  C   C14       1.0  0.39990931834051935  0.8797900490129534  0.6275998542903379  1.0000
  C   C15       1.0  0.8999137877261133  0.6202044068775621  0.1275975090773684  1.0000
  C   C16       1.0  0.6000975112255419  0.12020086114370801  0.3724061324642989  1.0000
  C   C17       1.0  0.2762138364610891  0.6266894287817948  0.9054250569143818  1.0000
  C   C18       1.0  0.22379626396325142  0.12669092019523726  0.5945805498797299  1.0000
  C   C19       1.0  0.7237885830578181  0.37330620832170763  0.0945756094848207  1.0000
  C   C20       1.0  0.7762089929242533  0.8733094439233894  0.40542028697685584  1.0000
  C   C21       1.0  0.1536987136696126  0.5580514669320279  0.7382456309090486  1.0000
  C   C22       1.0  0.3463065486004595  0.058045981501159395  0.7617592118103502  1.0000
  C   C23       1.0  0.8463050805309462  0.441948897168963  0.2617536736667034  1.0000
  C   C24       1.0  0.6536887335494087  0.9419532008219631  0.2382395814413911  1.0000
  C   C25       1.0  0.32122638926835373  0.49416477937035813  0.689723263176745  1.0000
  C   C26       1.0  0.17877093612351294  0.9941657917042335  0.8102747221243689  1.0000
  C   C27       1.0  0.6787789336331542  0.5058344030165571  0.3102797442668006  1.0000
  C   C28       1.0  0.8212214206574514  0.005834572335224699  0.1897210065700889  1.0000
  N   N1        1.0  0.11711258817440039  0.2246255792638863  0.0333436321014204  1.0000
  N   N2        1.0  0.38288633658103066  0.7246245604814232  0.4666602797953274  1.0000
  N   N3        1.0  0.8828884346915943  0.7753736030966324  0.966657672621416  1.0000
  N   N4        1.0  0.617114686299999  0.27537816713387286  0.5333410249406398  1.0000
  N   N5        1.0  0.28941931390873077  0.40609542731824166  0.1233846770175475  1.0000
  N   N6        1.0  0.21058822120272683  0.9060918974502954  0.3766202815537198  1.0000
  N   N7        1.0  0.7105901989966056  0.5939037550619304  0.8766164154944748  1.0000
  N   N8        1.0  0.7894085016427823  0.09391083013860418  0.6233793204615452  1.0000
  N   N9        1.0  0.31914004276181623  0.6057367563067118  0.9996785505068998  1.0000
  N   N10       1.0  0.180865601940674  0.1057386812471819  0.5003259219058762  1.0000
  N   N11       1.0  0.6808609801041784  0.3942624260538067  0.00032275421594361745  1.0000
  N   N12       1.0  0.8191339582534028  0.8942640463504855  0.4996738505492644  1.0000
  N   N13       1.0  0.1750095318935649  0.5241917415821148  0.8427335888891676  1.0000
  N   N14       1.0  0.3249953992343038  0.024192522446902797  0.6572695559996475  1.0000
  N   N15       1.0  0.8249928656240115  0.47580507726635796  0.1572663539839638  1.0000
  N   N16       1.0  0.6750041389383981  0.9758066598893648  0.3427294929119142  1.0000
  O   O1        1.0  0.0011066533416154943  0.29631975490247686  0.8103305744426095  1.0000
  O   O2        1.0  0.4988862668454673  0.796317840599734  0.6896693926574714  1.0000
  O   O3        1.0  0.9988886728259346  0.7036806091854899  0.18966966587440479  1.0000
  O   O4        1.0  0.5011118746542849  0.20368015998718647  0.31033029456021666  1.0000
  O   O5        1.0  0.4671038703542009  0.4436327519016316  0.7427522941423491  1.0000
  O   O6        1.0  0.0328959298582063  0.9436344231717937  0.7572476579107743  1.0000
  O   O7        1.0  0.5328970644914576  0.5563676121839762  0.2572461164630795  1.0000
  O   O8        1.0  0.9670993742829664  0.05636121390318748  0.2427518588582913  1.0000
  O   O9        1.0  0.2928555032642421  0.4980341041792114  0.5972684774560051  1.0000
  O   O10       1.0  0.20714196495178067  0.998029849337527  0.9027331541372376  1.0000
  O   O11       1.0  0.7071454756041079  0.5019686234228328  0.40273138021907334  1.0000
  O   O12       1.0  0.7928575291932134  0.001965787730718199  0.0972644477002973  1.0000
  O   O13       1.0  0.2166844461374922  0.8958944463312475  0.10178744499911122  1.0000
  O   O14       1.0  0.2833143803754012  0.39588875541424073  0.3982133090354552  1.0000
  O   O15       1.0  0.7833137173836278  0.10410709951706557  0.8982129657621626  1.0000
  O   O16       1.0  0.7166823204637751  0.6041139721680365  0.6017855694493619  1.0000
