data_image0
_chemical_formula_structural       Hf12H72C100O64F28
_chemical_formula_sum              "Hf12 H72 C100 O64 F28"
_cell_length_a       14.269468746158818
_cell_length_b       17.70653618623634
_cell_length_c       23.739251520441194
_cell_angle_alpha    88.28659627029307
_cell_angle_beta     89.57120237375908
_cell_angle_gamma    86.70232029907241

_space_group_name_H-M_alt    "P 1"
_space_group_IT_number       1

loop_
  _space_group_symop_operation_xyz
  'x, y, z'

loop_
  _atom_site_type_symbol
  _atom_site_label
  _atom_site_symmetry_multiplicity
  _atom_site_fract_x
  _atom_site_fract_y
  _atom_site_fract_z
  _atom_site_occupancy
  Hf  Hf1       1.0  0.48013695218183716  0.3799067051970015  0.45530021129318504  1.0000
  Hf  Hf2       1.0  0.5577295099009802  0.5873471471093696  0.5662338244335245  1.0000
  Hf  Hf3       1.0  0.5969941923159398  0.5533547505497936  0.42315497279663106  1.0000
  Hf  Hf4       1.0  0.46026615512582947  0.41612548920076625  0.5979985295629646  1.0000
  Hf  Hf5       1.0  0.6816504514452147  0.419038162848075  0.5307275015483981  1.0000
  Hf  Hf6       1.0  0.35605279842045695  0.5449773545677987  0.49636711773452896  1.0000
  Hf  Hf7       1.0  0.0777454653334999  0.06792327482647659  0.9594320368684917  1.0000
  Hf  Hf8       1.0  0.982525852020487  0.861707390973649  0.077559101333307  1.0000
  Hf  Hf9       1.0  0.9737101543322525  0.8958143363398963  0.9324305005156717  1.0000
  Hf  Hf10      1.0  0.08393090140034333  0.0322311780924878  0.1048890688830468  1.0000
  Hf  Hf11      1.0  0.8688523697609228  0.03179943408940741  0.027841854788029297  1.0000
  Hf  Hf12      1.0  0.1931990642388683  0.8999451792399783  0.008850621793882891  1.0000
  H   H1        1.0  0.5792691855919119  0.30099735325556765  0.5537298072532835  1.0000
  H   H2        1.0  0.736496148998441  0.564899919478201  0.5156186434888566  1.0000
  H   H3        1.0  0.3840874339062594  0.5635403434910629  0.6157476269166934  1.0000
  H   H4        1.0  0.376403625712058  0.4889263036602573  0.38821902491128657  1.0000
  H   H5        1.0  0.8475813955449497  0.44372014015652184  0.4983119334832223  1.0000
  H   H6        1.0  0.5020114369349287  0.6094907838487629  0.3337019006974487  1.0000
  H   H7        1.0  0.3314105421456119  0.6780519867620356  0.4329889803731959  1.0000
  H   H8        1.0  0.7700500381282964  0.3232134145360135  0.6052496201179238  1.0000
  H   H9        1.0  0.5164215072528222  0.34775803153187473  0.6966368115294088  1.0000
  H   H10       1.0  0.32529226058801436  0.44465669571528826  0.6741536870562327  1.0000
  H   H11       1.0  0.19590474848854467  0.5123358333922283  0.544677419459795  1.0000
  H   H12       1.0  0.8301633923418806  0.446093782674005  0.599473236877941  1.0000
  H   H13       1.0  0.6855890989234793  0.6822201217433631  0.6069321282132164  1.0000
  H   H14       1.0  0.3546121961110842  0.2811337683824888  0.4159904017294096  1.0000
  H   H15       1.0  0.20842741279497554  0.5494473412662374  0.4286686479928221  1.0000
  H   H16       1.0  0.4699127306242375  0.2850902507629557  0.6606744105301772  1.0000
  H   H17       1.0  0.6543469492511349  0.6260726760189075  0.6573075725488451  1.0000
  H   H18       1.0  0.7753021386604574  0.515007739710221  0.4090374721876557  1.0000
  H   H19       1.0  0.8278103774494385  0.38454856691410555  0.4502271193669998  1.0000
  H   H20       1.0  0.2684576368768248  0.4792747531047041  0.5950156947451504  1.0000
  H   H21       1.0  0.41370511931451404  0.6279466745017076  0.39788867928373856  1.0000
  H   H22       1.0  0.3971510759740299  0.3268860091968548  0.3634482499913787  1.0000
  H   H23       1.0  0.9890459721025452  0.15088072323545992  0.04633013024133698  1.0000
  H   H24       1.0  0.8173083590973321  0.8808504392052755  0.009840070054970295  1.0000
  H   H25       1.0  0.1534759789357878  0.8847254015585053  0.12903885862574777  1.0000
  H   H26       1.0  0.1766364236613072  0.9484846057858436  0.9028967151455163  1.0000
  H   H27       1.0  0.7081429575102336  0.9994142873483728  0.9802100200498103  1.0000
  H   H28       1.0  0.0672509754752326  0.8413861578386916  0.8435100797106472  1.0000
  H   H29       1.0  0.21205308130877396  0.7567777400067117  0.956741606482133  1.0000
  H   H30       1.0  0.7926143929145014  0.09167112542912292  0.1165130462099171  1.0000
  H   H31       1.0  0.02133388570216251  0.15551718925939886  0.16393557466403047  1.0000
  H   H32       1.0  0.252817775744127  0.06292054310318922  0.14057737296520398  1.0000
  H   H33       1.0  0.3368604345280843  0.883658314675948  0.0944896212987985  1.0000
  H   H34       1.0  0.7430275797723099  0.9552384938551273  0.08944023604008318  1.0000
  H   H35       1.0  0.8272955961336167  0.784689862794643  0.10964902357206796  1.0000
  H   H36       1.0  0.2306667868638073  0.14749936927658786  0.9245763706847896  1.0000
  H   H37       1.0  0.3539946171925267  0.9504931556138702  0.9808287617232523  1.0000
  H   H38       1.0  0.9019217965677059  0.1163925769308349  0.12412762301742217  1.0000
  H   H39       1.0  0.8568019221238289  0.833250230678587  0.16097975167341613  1.0000
  H   H40       1.0  0.8306760398705179  0.916319381940646  0.8634509516762064  1.0000
  H   H41       1.0  0.7860574536041156  0.9704224048093907  0.9330589739056947  1.0000
  H   H42       1.0  0.27318297056992685  0.9645385670974703  0.1051286552909829  1.0000
  H   H43       1.0  0.144516587325171  0.8085773612163224  0.9151610827860208  1.0000
  H   H44       1.0  0.18729373043026237  0.11217136729170822  0.8701332556430258  1.0000
  H   H45       1.0  0.19573256623046115  0.6589798800257329  0.17728247922760684  1.0000
  H   H46       1.0  0.2914730965043617  0.517737441531871  0.007602409907867997  1.0000
  H   H47       1.0  0.14690746104352573  0.27491087139001996  0.13339871020180988  1.0000
  H   H48       1.0  0.39155273210172237  0.3626804553045702  0.0017650333160332994  1.0000
  H   H49       1.0  0.6539885189969326  0.3609491081735001  0.0128127324297296  1.0000
  H   H50       1.0  0.4260298253034449  0.5793009860582502  0.030622262838321  1.0000
  H   H51       1.0  0.8015308400603018  0.7261591971981363  0.9053132244942077  1.0000
  H   H52       1.0  0.7909721981037523  0.496459017430098  0.027988933811556593  1.0000
  H   H53       1.0  0.8856161571071581  0.4489616750902954  0.949484623371802  1.0000
  H   H54       1.0  0.7200824315056451  0.21451303650171386  0.9219043215130824  1.0000
  H   H55       1.0  0.4713457367852811  0.31908976511854104  0.2704678550810442  1.0000
  H   H56       1.0  0.468052234747411  0.5541672816439631  0.15327273248663428  1.0000
  H   H57       1.0  0.7203277961974733  0.5103232299617205  0.7363496887921243  1.0000
  H   H58       1.0  0.49963416713968206  0.4822766829232847  0.8972387428250171  1.0000
  H   H59       1.0  0.667430666841547  0.9721701668251514  0.45886020116355997  1.0000
  H   H60       1.0  0.8232925000684832  0.7145311226572845  0.4512092625657829  1.0000
  H   H61       1.0  0.6949206370608891  0.16677375856365023  0.5298034491714461  1.0000
  H   H62       1.0  0.8224198620390482  0.0856307227696718  0.3446557029808303  1.0000
  H   H63       1.0  0.04727219688015081  0.9519227597156144  0.39522939960169623  1.0000
  H   H64       1.0  0.8234109774420163  0.9267179870804654  0.23900865455807005  1.0000
  H   H65       1.0  0.8860386114009845  0.8982991963834481  0.5337608866789907  1.0000
  H   H66       1.0  0.1261598398767347  0.08429061568689636  0.5010778426028821  1.0000
  H   H67       1.0  0.10866016931761645  0.8543874132708356  0.5689989508827721  1.0000
  H   H68       1.0  0.4514425915231471  0.8372034598832913  0.591115853331672  1.0000
  H   H69       1.0  0.2900528943008425  0.0163217028237312  0.5120731815957242  1.0000
  H   H70       1.0  0.2595575490898057  0.2450858966652163  0.6265061678219864  1.0000
  H   H71       1.0  0.9889492267692078  0.0411863616158215  0.6389504831410376  1.0000
  H   H72       1.0  0.20690376791453963  0.9762273854816074  0.7964531207298718  1.0000
  C   C1        1.0  0.16595466296411124  0.9951844079470722  0.5990168419996138  1.0000
  C   C2        1.0  0.8596248068076803  0.9754902250141131  0.43082743647258326  1.0000
  C   C3        1.0  0.662752912585674  0.2731500119046545  0.4494297405804701  1.0000
  C   C4        1.0  0.381847523764243  0.2625215622310151  0.5434823232663035  1.0000
  C   C5        1.0  0.5361951753792269  0.43557334495119465  0.3279371981472393  1.0000
  C   C6        1.0  0.6414497506398932  0.7107987876397176  0.4805132149275124  1.0000
  C   C7        1.0  0.3794227303123848  0.7017422268972241  0.5621831872774905  1.0000
  C   C8        1.0  0.5359498185768744  0.5147220718343563  0.7023723149776373  1.0000
  C   C9        1.0  0.6891189686075804  0.47910265249208106  0.932657894146537  1.0000
  C   C10       1.0  0.3760582015893022  0.45057446983116023  0.0996857926778247  1.0000
  C   C11       1.0  0.898957747121905  0.18385139872520995  0.9520963697610225  1.0000
  C   C12       1.0  0.17119252820955214  0.1832718541080567  0.045454702685042  1.0000
  C   C13       1.0  0.030652950142595604  0.015463057471066603  0.8334737065521409  1.0000
  C   C14       1.0  0.9023875888728412  0.7404410689371164  0.9955981894155812  1.0000
  C   C15       1.0  0.16010223030660603  0.7421219932923011  0.07834705890533657  1.0000
  C   C16       1.0  0.0069727816916441065  0.919828241647856  0.2036713299287882  1.0000
  C   C17       1.0  0.2180626198239892  0.6295794680742548  0.1393520020298311  1.0000
  C   C18       1.0  0.19839344119281319  0.6616565067843612  0.0861364333423893  1.0000
  C   C19       1.0  0.22366498893671155  0.6176634898923935  0.04002149105029669  1.0000
  C   C20       1.0  0.273625459142785  0.5486795615063472  0.0455406135062191  1.0000
  C   C21       1.0  0.30550397401390944  0.5205663675627364  0.09854372478789489  1.0000
  C   C22       1.0  0.2695850373953165  0.5605109564191865  0.14500949581601927  1.0000
  C   C23       1.0  0.19869674868559878  0.29503949519740064  0.10349013857680227  1.0000
  C   C24       1.0  0.21889148881675885  0.25509790046633907  0.054323032391096086  1.0000
  C   C25       1.0  0.28623925674261846  0.2840497191198281  0.0179464052491767  1.0000
  C   C26       1.0  0.3366622796196737  0.34610956251016506  0.030952613951853895  1.0000
  C   C27       1.0  0.31982267918531443  0.3837799921254401  0.0813100308500481  1.0000
  C   C28       1.0  0.24616416617012501  0.3584866747947189  0.1150311388657812  1.0000
  C   C29       1.0  0.6042278936547305  0.40974421767696617  0.014649107318540194  1.0000
  C   C30       1.0  0.6127372198035276  0.4734247632554229  0.978980243521441  1.0000
  C   C31       1.0  0.5471450323420087  0.5335286666784  0.9888303856773958  1.0000
  C   C32       1.0  0.4734091669579287  0.5293369627791693  0.027141839101602692  1.0000
  C   C33       1.0  0.45940224993481144  0.46275828413013914  0.0586839746350236  1.0000
  C   C34       1.0  0.5302329743254361  0.40528273702723544  0.0525521964422353  1.0000
  C   C35       1.0  0.7997247380370069  0.6754745108159385  0.9323804319008174  1.0000
  C   C36       1.0  0.8492541857530755  0.6723053238237214  0.9830251462635855  1.0000
  C   C37       1.0  0.8425595612955589  0.6065603448361827  0.0167565519618904  1.0000
  C   C38       1.0  0.7927535263594265  0.5460510195412172  0.9997572887193298  1.0000
  C   C39       1.0  0.7450159960222893  0.5480114291611501  0.9480056946916946  1.0000
  C   C40       1.0  0.7475996990058604  0.6162482966634502  0.9164971539879403  1.0000
  C   C41       1.0  0.847402839829343  0.3986970763267266  0.9424786343205227  1.0000
  C   C42       1.0  0.7508434068318409  0.4042803316489412  0.9321675118233586  1.0000
  C   C43       1.0  0.7096609134604395  0.33583421252244955  0.921372979460891  1.0000
  C   C44       1.0  0.7575413163575534  0.26591270032849224  0.9261728951790644  1.0000
  C   C45       1.0  0.8533786775315735  0.2606605319806122  0.9388990283853146  1.0000
  C   C46       1.0  0.8969544928825856  0.3285903121632502  0.9449728609180282  1.0000
  C   C47       1.0  0.47042169943485135  0.37148367725576054  0.24519277179676635  1.0000
  C   C48       1.0  0.5082825063606222  0.4354986587509871  0.2671850981282943  1.0000
  C   C49       1.0  0.5082849085889194  0.4997956896575815  0.2311004446864828  1.0000
  C   C50       1.0  0.46832830460971314  0.501388341217897  0.1781259285520207  1.0000
  C   C51       1.0  0.42406768895105534  0.4391917311102134  0.1577692001778956  1.0000
  C   C52       1.0  0.43090977680764553  0.37326549127658387  0.1919625836495058  1.0000
  C   C53       1.0  0.6707400616675655  0.5039368458880916  0.7710678303088015  1.0000
  C   C54       1.0  0.5739240852973496  0.5063476137623368  0.7613843811177998  1.0000
  C   C55       1.0  0.5156697357897926  0.496833305040937  0.8082285241729394  1.0000
  C   C56       1.0  0.549678721564284  0.48836229333408454  0.8628185941427161  1.0000
  C   C57       1.0  0.6459856592612783  0.48745374372199274  0.8730343516657372  1.0000
  C   C58       1.0  0.7043347345857286  0.4930449337271058  0.8254914013319024  1.0000
  C   C59       1.0  0.7041248653152581  0.9165813399278241  0.45919553216146614  1.0000
  C   C60       1.0  0.7997440591352643  0.9082681805409648  0.44605934519994145  1.0000
  C   C61       1.0  0.8400610701970805  0.8341819091151947  0.4449831324692538  1.0000
  C   C62       1.0  0.7894228586385239  0.7708946407985594  0.4552499255188279  1.0000
  C   C63       1.0  0.6946141023490855  0.7802925287434379  0.47005855407328306  1.0000
  C   C64       1.0  0.6540914985109438  0.8534364168647529  0.47208526170945925  1.0000
  C   C65       1.0  0.7196086904267318  0.14847800722559157  0.48854810977066887  1.0000
  C   C66       1.0  0.708715900785478  0.19627736936472226  0.44094269372033773  1.0000
  C   C67       1.0  0.7445776359269942  0.17095077476992773  0.3899068072780949  1.0000
  C   C68       1.0  0.791960498642517  0.10077645057814522  0.3852118398899974  1.0000
  C   C69       1.0  0.8022892781908839  0.05161421529654581  0.43226222499298916  1.0000
  C   C70       1.0  0.7642653659949517  0.0777038940091614  0.48331710597075517  1.0000
  C   C71       1.0  0.9966633468491326  0.9489442490845407  0.36147999214349374  1.0000
  C   C72       1.0  0.9002755844806247  0.9594513343993186  0.37188173594204693  1.0000
  C   C73       1.0  0.8407808906805981  0.9488305162510077  0.3263896693971375  1.0000
  C   C74       1.0  0.8736361492176955  0.9316022636468662  0.2728882572960458  1.0000
  C   C75       1.0  0.9702726278941045  0.9247832381870256  0.2626289817373717  1.0000
  C   C76       1.0  0.02997858719572829  0.9330540399720564  0.30800479535358954  1.0000
  C   C77       1.0  0.9390301429205226  0.9388918281174984  0.5249111986732656  1.0000
  C   C78       1.0  0.9370285085938193  0.9821561100793943  0.47485710263509157  1.0000
  C   C79       1.0  0.004395458856102201  0.036326203759330204  0.47038483225444583  1.0000
  C   C80       1.0  0.07500126152409342  0.04217846412848301  0.5096554294995811  1.0000
  C   C81       1.0  0.08088079501077058  0.9955038554238771  0.5583737433212619  1.0000
  C   C82       1.0  0.00664690040513698  0.947058508615662  0.5652740747025788  1.0000
  C   C83       1.0  0.1835445767190294  0.8548917207796621  0.5748048094131732  1.0000
  C   C84       1.0  0.22769644980251502  0.9202319677187347  0.589117808389723  1.0000
  C   C85       1.0  0.32610936415786534  0.9097181959351772  0.5946407985638942  1.0000
  C   C86       1.0  0.3753372762357614  0.8405934640720077  0.5868683150861287  1.0000
  C   C87       1.0  0.3290209202009678  0.7761620574666993  0.5729249708613294  1.0000
  C   C88       1.0  0.23148965881212288  0.7858669341043696  0.5675211853711771  1.0000
  C   C89       1.0  0.28090318655504376  0.06640617617914303  0.5375943892068307  1.0000
  C   C90       1.0  0.22128831730609025  0.06588314729967953  0.5850024400701911  1.0000
  C   C91       1.0  0.21383697896467882  0.1335044350939683  0.6146378674651842  1.0000
  C   C92       1.0  0.266217484832616  0.19494795092016662  0.6009320292480139  1.0000
  C   C93       1.0  0.32668277648681254  0.19422348087289984  0.5544335134290606  1.0000
  C   C94       1.0  0.33086184542214175  0.12888604314692026  0.522495014181672  1.0000
  C   C95       1.0  0.03739506634384781  0.023697563678858603  0.6726682953944376  1.0000
  C   C96       1.0  0.12985238879451083  0.9975717292923892  0.6606084936801934  1.0000
  C   C97       1.0  0.18769785054522714  0.981406266165486  0.7072231569471157  1.0000
  C   C98       1.0  0.15708632161378938  0.9895622364658434  0.7624750075663868  1.0000
  C   C99       1.0  0.064090663849484  0.0136803786265816  0.7735013569564158  1.0000
  C   C100      1.0  0.005762148008194901  0.0300055566880175  0.7275654135300584  1.0000
  O   O1        1.0  0.3622670861513059  0.3315394009592795  0.3990740754014723  1.0000
  O   O2        1.0  0.5762331570873797  0.2828497778739276  0.4370606703640902  1.0000
  O   O3        1.0  0.5093882563810653  0.3808036375594952  0.35943142512305565  1.0000
  O   O4        1.0  0.3984122812747303  0.30026856114745465  0.5866052198501421  1.0000
  O   O5        1.0  0.5788473286959289  0.49101282564988236  0.34446487207867443  1.0000
  O   O6        1.0  0.40651305105758695  0.2785896449792205  0.49318114411789077  1.0000
  O   O7        1.0  0.7134646672918236  0.3194933651126633  0.4724504304542449  1.0000
  O   O8        1.0  0.5910150101306968  0.44412288423006885  0.4589039424364075  1.0000
  O   O9        1.0  0.5537111216836694  0.3497054335811427  0.5387762096312372  1.0000
  O   O10       1.0  0.4107774353880985  0.48290131097873257  0.42321686067116804  1.0000
  O   O11       1.0  0.406155749346553  0.43400631500384906  0.5196907253526958  1.0000
  O   O12       1.0  0.32940624775260824  0.42245720317811936  0.6372363927482283  1.0000
  O   O13       1.0  0.8141402168423043  0.436342464067714  0.46194497932467715  1.0000
  O   O14       1.0  0.5840223064778556  0.47310655602271356  0.5837515652743973  1.0000
  O   O15       1.0  0.6739708160476995  0.5471029184092232  0.5104624177968518  1.0000
  O   O16       1.0  0.498789352248629  0.5778416320692729  0.4920629152097007  1.0000
  O   O17       1.0  0.42361158131280524  0.5396537578622188  0.5871825659872698  1.0000
  O   O18       1.0  0.7264437355581919  0.5515209803289096  0.3951470766658288  1.0000
  O   O19       1.0  0.630542846579047  0.6716578436059776  0.438227176245192  1.0000
  O   O20       1.0  0.6165597449866597  0.6954904509220797  0.5312621908705353  1.0000
  O   O21       1.0  0.2266415301227767  0.5302938684341002  0.4658618494983884  1.0000
  O   O22       1.0  0.458258983913325  0.6854604245682056  0.586064290064904  1.0000
  O   O23       1.0  0.5017835678161761  0.6205134225528612  0.3735114923550427  1.0000
  O   O24       1.0  0.34729755192526574  0.6271436156633783  0.42040271978147803  1.0000
  O   O25       1.0  0.24940815664979968  0.5233603889229671  0.5681134854083679  1.0000
  O   O26       1.0  0.33809408641450034  0.6595660672043878  0.528976613869176  1.0000
  O   O27       1.0  0.6814869183586653  0.6292284980376551  0.6190116643832438  1.0000
  O   O28       1.0  0.5183657523057263  0.3220040270552503  0.6606411468982073  1.0000
  O   O29       1.0  0.5516870974169166  0.5735728743229986  0.6729988799883485  1.0000
  O   O30       1.0  0.4907613137923405  0.45929789366751106  0.6861682827728615  1.0000
  O   O31       1.0  0.7100360902380488  0.3314775109353292  0.5866986505753857  1.0000
  O   O32       1.0  0.804810953511698  0.46064711522079466  0.5628189308570483  1.0000
  O   O33       1.0  0.21060565311004353  0.1008548426060401  0.9083078104612667  1.0000
  O   O34       1.0  0.9835732056593686  0.16884473760918436  0.936887912396898  1.0000
  O   O35       1.0  0.05966918530541681  0.0673579851027739  0.8637397716671201  1.0000
  O   O36       1.0  0.1520273429041268  0.14524925016013415  0.0898982730421025  1.0000
  O   O37       1.0  0.9818459181711107  0.9613625038912091  0.8494646497231741  1.0000
  O   O38       1.0  0.15222446621414326  0.16643406637601293  0.9951348433322379  1.0000
  O   O39       1.0  0.8466879283731431  0.1400576917360823  0.979746704235154  1.0000
  O   O40       1.0  0.9633155165291998  0.006495255750671404  0.9617090731422235  1.0000
  O   O41       1.0  0.00019607664810909853  0.09805192817507452  0.03736632411195729  1.0000
  O   O42       1.0  0.1264265286021029  0.9532504171756107  0.930817986297292  1.0000
  O   O43       1.0  0.1449024013954556  0.011039734600657903  0.0248213954004655  1.0000
  O   O44       1.0  0.22007874067992367  0.016463836769432295  0.138634318410773  1.0000
  O   O45       1.0  0.7624047206673197  0.014977014919026001  0.9584762244285017  1.0000
  O   O46       1.0  0.9611658514832938  0.9757571017715279  0.08526893019869418  1.0000
  O   O47       1.0  0.8764023962883274  0.9043805844510827  0.014369904311124095  1.0000
  O   O48       1.0  0.052038169741130985  0.8661645704683849  0.004486314403834494  1.0000
  O   O49       1.0  0.12077413456807312  0.9063214811956539  0.09615374901560611  1.0000
  O   O50       1.0  0.8351440372958407  0.9054497385344008  0.9037632843948415  1.0000
  O   O51       1.0  0.9250276446373817  0.7796210093547487  0.9530017311225194  1.0000
  O   O52       1.0  0.9171963915049518  0.7561963434117943  0.04711608728561598  1.0000
  O   O53       1.0  0.3063216102797029  0.9232486427905614  0.9624456151148023  1.0000
  O   O54       1.0  0.08049198796587122  0.7606536143566988  0.09941548787103469  1.0000
  O   O55       1.0  0.05334181657219969  0.824208654842387  0.881669481907842  1.0000
  O   O56       1.0  0.2026918403052278  0.8078607144097776  0.940756211474202  1.0000
  O   O57       1.0  0.3027720645693038  0.9254588535960412  0.07494293324725729  1.0000
  O   O58       1.0  0.2148142066312815  0.7847578316312608  0.051091110285938185  1.0000
  O   O59       1.0  0.833945244902452  0.8364976894668176  0.12194363450958429  1.0000
  O   O60       1.0  0.9980997132585616  0.10896907033804842  0.1506175035541304  1.0000
  O   O61       1.0  0.9802929486987181  0.8663133566293483  0.1730970654352575  1.0000
  O   O62       1.0  0.058875864752749876  0.9716498491342379  0.1883467504009602  1.0000
  O   O63       1.0  0.8440986808525254  0.1166362757462664  0.0974674115163268  1.0000
  O   O64       1.0  0.7492472715904058  0.0042894447469237  0.07097373760814919  1.0000
  F   F1        1.0  0.2837945882075132  0.5343740186394755  0.19890136771665817  1.0000
  F   F2        1.0  0.19981707593232303  0.6438154501985168  0.9868463028625528  1.0000
  F   F3        1.0  0.22324196567299737  0.39539074589879425  0.1632400729334336  1.0000
  F   F4        1.0  0.3092476928853999  0.24879922515670222  0.9688518135089622  1.0000
  F   F5        1.0  0.5265855670357809  0.3398292782155181  0.0840061212187919  1.0000
  F   F6        1.0  0.552608171530089  0.5999492828540696  0.9587117333284921  1.0000
  F   F7        1.0  0.6967717624772974  0.6294191168059341  0.8685207558268144  1.0000
  F   F8        1.0  0.8869684424118914  0.5993051355252562  0.0673138132120386  1.0000
  F   F9        1.0  0.9899523023696518  0.327699143125635  0.9574330278160589  1.0000
  F   F10       1.0  0.6162527347591225  0.3363515578971246  0.9086146407876541  1.0000
  F   F11       1.0  0.39801113590107934  0.30708359865526813  0.1746611589220493  1.0000
  F   F12       1.0  0.5436208074405116  0.5654352480306032  0.24751652705788976  1.0000
  F   F13       1.0  0.7993325200369485  0.4917028997902619  0.8327469039878322  1.0000
  F   F14       1.0  0.4208105229209593  0.4973463316536881  0.8008363509234823  1.0000
  F   F15       1.0  0.5610602464242831  0.8636721708193633  0.48547556505106826  1.0000
  F   F16       1.0  0.9336779933405667  0.822549235541409  0.4333376113020151  1.0000
  F   F17       1.0  0.7717348373774088  0.032949352591984414  0.531265334564381  1.0000
  F   F18       1.0  0.7357718157478176  0.2174980063641884  0.34318146248480014  1.0000
  F   F19       1.0  0.12444073559840525  0.9240591497073112  0.3001795411839439  1.0000
  F   F20       1.0  0.7457065159917633  0.9563741145154977  0.33384993857135464  1.0000
  F   F21       1.0  0.9980088740777122  0.9024616117795362  0.613148348651599  1.0000
  F   F22       1.0  0.0033979296080843984  0.08607917926062213  0.4252752025278994  1.0000
  F   F23       1.0  0.17806534536317997  0.7273592282600492  0.5560253731844469  1.0000
  F   F24       1.0  0.3793830178391247  0.9679754346817189  0.6081614281305647  1.0000
  F   F25       1.0  0.3872954453880766  0.12387380469620984  0.4761335712457395  1.0000
  F   F26       1.0  0.15426030957981857  0.14350292184965951  0.6593663848889051  1.0000
  F   F27       1.0  0.9146946129707701  0.05441761489451841  0.7369086411126843  1.0000
  F   F28       1.0  0.27979337499940027  0.9588654555032434  0.7001439758753988  1.0000
