data_image0
_chemical_formula_structural       Co2H44C38N4O8
_chemical_formula_sum              "Co2 H44 C38 N4 O8"
_cell_length_a       8.722218999949858
_cell_length_b       8.996011204749816
_cell_length_c       11.73908106834059
_cell_angle_alpha    80.75164268011545
_cell_angle_beta     89.28474762750695
_cell_angle_gamma    78.51681358942996

_space_group_name_H-M_alt    "P 1"
_space_group_IT_number       1

loop_
  _space_group_symop_operation_xyz
  'x, y, z'

loop_
  _atom_site_type_symbol
  _atom_site_label
  _atom_site_symmetry_multiplicity
  _atom_site_fract_x
  _atom_site_fract_y
  _atom_site_fract_z
  _atom_site_occupancy
  Co  Co1       1.0  0.13425962482394033  0.55345715682828  0.11970256597322755  1.0000
  Co  Co2       1.0  0.865732785878194  0.4465555061061224  0.8802977932221904  1.0000
  H   H1        1.0  0.9744665923951955  0.8601015142286954  0.992348298317708  1.0000
  H   H2        1.0  0.0255619551429263  0.13991364857368893  0.007645345063274093  1.0000
  H   H3        1.0  0.3745114891767898  0.5550717102273737  0.9240944667774967  1.0000
  H   H4        1.0  0.625483245828967  0.44491332134198563  0.07590424643646537  1.0000
  H   H5        1.0  0.3646394421138624  0.41350578541332084  0.7540923043520137  1.0000
  H   H6        1.0  0.6353576638270867  0.5864953941187708  0.24590859803149798  1.0000
  H   H7        1.0  0.31266417432428273  0.23993965720100618  0.732755800690974  1.0000
  H   H8        1.0  0.6873358010371575  0.7600535299550587  0.26725544799584355  1.0000
  H   H9        1.0  0.372351194745832  0.1247201514706759  0.9346840926124569  1.0000
  H   H10       1.0  0.6276607209619343  0.8752985048613057  0.06533912543572735  1.0000
  H   H11       1.0  0.4614285628208775  0.2763922197419433  0.9603437936165589  1.0000
  H   H12       1.0  0.5385640476433127  0.7236469312380932  0.03965662186858049  1.0000
  H   H13       1.0  0.4056682341857823  0.7108053009446279  0.7365870961515169  1.0000
  H   H14       1.0  0.5943315343514327  0.28915556476765397  0.26340864834539696  1.0000
  H   H15       1.0  0.9908742527469487  0.0345242619678601  0.8096876016014106  1.0000
  H   H16       1.0  0.009148492065904252  0.965474735450883  0.19030474815124165  1.0000
  H   H17       1.0  0.3248941783772353  0.27301641095287715  0.25470123327833244  1.0000
  H   H18       1.0  0.6750904859897914  0.7270111231107421  0.7452888207663049  1.0000
  H   H19       1.0  0.3259088261356951  0.025221051249680205  0.6399248370048553  1.0000
  H   H20       1.0  0.674113820584033  0.9747676167562036  0.3600747829046397  1.0000
  H   H21       1.0  0.23209239456812017  0.9063987411349074  0.5726566230447857  1.0000
  H   H22       1.0  0.7679383936909617  0.09359451506618652  0.4273286885384947  1.0000
  H   H23       1.0  0.32121446858391073  0.0951168896593089  0.44016144411908426  1.0000
  H   H24       1.0  0.6787844220833322  0.9049084362544875  0.5598295690408079  1.0000
  H   H25       1.0  0.062260263994744505  0.1926917127971848  0.6698430946567979  1.0000
  H   H26       1.0  0.9377614750005918  0.8072957944683808  0.33015583110217506  1.0000
  H   H27       1.0  0.9703754693603841  0.07443129997847821  0.6028177928913292  1.0000
  H   H28       1.0  0.02964102239607058  0.9255538683855422  0.3971806401078337  1.0000
  H   H29       1.0  0.8706778556062318  0.36749116872304194  0.5019186608791557  1.0000
  H   H30       1.0  0.12930613426324558  0.6325121843761323  0.4980727546730961  1.0000
  H   H31       1.0  0.8937764561631454  0.5318839681478736  0.31200663979807786  1.0000
  H   H32       1.0  0.10620851804070953  0.4681148125713789  0.6879904531273551  1.0000
  H   H33       1.0  0.7296504111569889  0.013860124927681702  0.7484643107481614  1.0000
  H   H34       1.0  0.27034097224450454  0.9861249853204299  0.25155487783308667  1.0000
  H   H35       1.0  0.53044396225593  0.9935430575830183  0.7564065147029805  1.0000
  H   H36       1.0  0.46954125986417955  0.0064604071720281995  0.24360616852076322  1.0000
  H   H37       1.0  0.627299229438364  0.0299100275776141  0.8778705849405382  1.0000
  H   H38       1.0  0.3726837651621013  0.9700876729447714  0.12214370581502006  1.0000
  H   H39       1.0  0.5310751803643825  0.39000183018254847  0.5786325199514265  1.0000
  H   H40       1.0  0.4689292214910736  0.6099809895075836  0.4213723191510822  1.0000
  H   H41       1.0  0.487806367249526  0.20733740423010974  0.5696393737851861  1.0000
  H   H42       1.0  0.5121780829344829  0.7926534126529107  0.4303783252494282  1.0000
  H   H43       1.0  0.6863014004109473  0.2273916215542471  0.5799784127664578  1.0000
  H   H44       1.0  0.31368775189507414  0.7725818952413022  0.42002778674319774  1.0000
  C   C1        1.0  0.21270004851702137  0.33193488322758913  0.9483140406048065  1.0000
  C   C2        1.0  0.7872995606610687  0.6680709529572794  0.0516939096128652  1.0000
  C   C3        1.0  0.675767256174531  0.31656473246882655  0.7889825404932082  1.0000
  C   C4        1.0  0.32423053406842683  0.683438778057159  0.21102317012663716  1.0000
  C   C5        1.0  0.19905719065864966  0.887096262118483  0.7537033653804598  1.0000
  C   C6        1.0  0.8009591367642345  0.11287849744599751  0.24628616313662374  1.0000
  C   C7        1.0  0.06799591746038655  0.8308895808385872  0.9326677542070241  1.0000
  C   C8        1.0  0.9320180334532464  0.1691185724588919  0.0673243961463541  1.0000
  C   C9        1.0  0.09429655980648022  0.21546906889738443  0.488790784781365  1.0000
  C   C10       1.0  0.9057013493581534  0.7845389710692956  0.5111990181557216  1.0000
  C   C11       1.0  0.2894095389479149  0.6604213800540605  0.8951866262034682  1.0000
  C   C12       1.0  0.7105878182166591  0.3395728376087632  0.10480322716189508  1.0000
  C   C13       1.0  0.3940060474556049  0.2880927276458394  0.7801619486860502  1.0000
  C   C14       1.0  0.6059950033606613  0.7119062081866757  0.21984600462354106  1.0000
  C   C15       1.0  0.36878958358809655  0.2489123880120728  0.9096947125600178  1.0000
  C   C16       1.0  0.6312067232700826  0.7511037977689697  0.09031452471310077  1.0000
  C   C17       1.0  0.3072050635946795  0.7501779403200785  0.789863297602629  1.0000
  C   C18       1.0  0.6928015023717365  0.24978870588900293  0.21012822647952586  1.0000
  C   C19       1.0  0.5614930425552133  0.23017670151281783  0.742197082640139  1.0000
  C   C20       1.0  0.4385030575682195  0.7698129878660892  0.2578103957496935  1.0000
  C   C21       1.0  0.07833222401894362  0.9282963184408073  0.8293006993994892  1.0000
  C   C22       1.0  0.9216890158365203  0.07169346665822468  0.17069368507932128  1.0000
  C   C23       1.0  0.22697828886020235  0.2896718871495096  0.312966554998411  1.0000
  C   C24       1.0  0.7730085745706673  0.7103453402571703  0.6870324423003422  1.0000
  C   C25       1.0  0.21578319836900312  0.9828654444884889  0.6382511995896181  1.0000
  C   C26       1.0  0.7842368232706676  0.0171300707093138  0.3617390677114755  1.0000
  C   C27       1.0  0.22313486223587378  0.19104830693195402  0.4169303289523611  1.0000
  C   C28       1.0  0.776859744608842  0.8089700826309  0.5830607610401799  1.0000
  C   C29       1.0  0.080223973274741  0.11745094031486052  0.6034073750140081  1.0000
  C   C30       1.0  0.9197896003419503  0.882547986971396  0.3965825388334635  1.0000
  C   C31       1.0  0.973467653152859  0.3408819539020271  0.44946229990976144  1.0000
  C   C32       1.0  0.026516350661971378  0.6591214159101358  0.5505325208296339  1.0000
  C   C33       1.0  0.9856595800827607  0.43390317536221096  0.3448051180766071  1.0000
  C   C34       1.0  0.014315451643405206  0.5661047498578072  0.6551909389009295  1.0000
  C   C35       1.0  0.615453484476376  0.0571051870562584  0.7834470845759395  1.0000
  C   C36       1.0  0.38453500170339083  0.9428937071835579  0.21656869263433257  1.0000
  C   C37       1.0  0.5671997444123491  0.2659232952293493  0.6095587232677884  1.0000
  C   C38       1.0  0.4327950219704704  0.7340617739442264  0.39044765161723644  1.0000
  N   N1        1.0  0.1691864847005959  0.6973085822800016  0.9656164915880081  1.0000
  N   N2        1.0  0.8308249873802822  0.3026949436124299  0.034374570008715494  1.0000
  N   N3        1.0  0.11083175280581513  0.41001906994291204  0.2766369220578467  1.0000
  N   N4        1.0  0.8891496851967349  0.5899912180913561  0.7233630181184975  1.0000
  O   O1        1.0  0.0979637898654957  0.36206762058673553  0.8770720894906319  1.0000
  O   O2        1.0  0.9020309075345809  0.6379450525688597  0.12292738891170522  1.0000
  O   O3        1.0  0.6258287085635603  0.44583061806499563  0.8216730182990799  1.0000
  O   O4        1.0  0.37417190577747306  0.5541648457677655  0.17833197176586413  1.0000
  O   O5        1.0  0.20659436028926592  0.3639004432692516  0.05043720973469589  1.0000
  O   O6        1.0  0.7933952680613815  0.6361144914556717  0.949560340270423  1.0000
  O   O7        1.0  0.8218284325143514  0.2581502876208289  0.7935564409715283  1.0000
  O   O8        1.0  0.17818028510576767  0.7418555434881  0.20643862180917688  1.0000
