data_image0
_chemical_formula_structural       Al2C24S6Cl6O12
_chemical_formula_sum              "Al2 C24 S6 Cl6 O12"
_cell_length_a       3.969148059012114
_cell_length_b       20.15006373609356
_cell_length_c       20.15003861300038
_cell_angle_alpha    120.00008017757625
_cell_angle_beta     89.99997008481257
_cell_angle_gamma    90.00024357881193

_space_group_name_H-M_alt    "P 1"
_space_group_IT_number       1

loop_
  _space_group_symop_operation_xyz
  'x, y, z'

loop_
  _atom_site_type_symbol
  _atom_site_label
  _atom_site_symmetry_multiplicity
  _atom_site_fract_x
  _atom_site_fract_y
  _atom_site_fract_z
  _atom_site_occupancy
  Al  Al1       1.0  0.0008787097340885  0.5000007711557614  0.49999889428838173  1.0000
  Al  Al2       1.0  0.0008699656273805  0.16666770578817125  0.8333317982258706  1.0000
  C   C1        1.0  0.5009603724067516  0.4409910356215433  0.3825486333650119  1.0000
  C   C2        1.0  0.5009501078500094  0.44156168047282296  0.5590092382358236  1.0000
  C   C3        1.0  0.5009669882827693  0.6174512166963592  0.5584393485010962  1.0000
  C   C4        1.0  0.5009603002106218  0.22510743092543323  0.7743206032730966  1.0000
  C   C5        1.0  0.5009459391992692  0.049217301086620736  0.7748950568495372  1.0000
  C   C6        1.0  0.5009424773688878  0.22567935485158558  0.950781914171479  1.0000
  C   C7        1.0  0.49009109487240465  0.42880660621916156  0.6797137067664706  1.0000
  C   C8        1.0  0.490079131461961  0.2378597251467195  0.6536139351352118  1.0000
  C   C9        1.0  0.4991734339557681  0.3988532468307893  0.601127206316832  1.0000
  C   C10       1.0  0.4991719773132459  0.26781330442148027  0.7322012223554353  1.0000
  C   C11       1.0  0.5039089051014756  0.29656033097041473  0.6343206346508338  1.0000
  C   C12       1.0  0.5039196495091504  0.3701059390445848  0.6990080826171976  1.0000
  C   C13       1.0  0.49009444223337795  0.7509099736815299  0.5711936379611657  1.0000
  C   C14       1.0  0.4900782503886846  0.9157588520193441  0.7621428308906247  1.0000
  C   C15       1.0  0.49917899505130237  0.7022762943912892  0.601147546333486  1.0000
  C   C16       1.0  0.4991688824965408  0.9643917586418664  0.7321887167339725  1.0000
  C   C17       1.0  0.5039066967160082  0.8377640782646832  0.7034420392938117  1.0000
  C   C18       1.0  0.5039117270250273  0.828905182355328  0.6298960011990432  1.0000
  C   C19       1.0  0.4900955157418635  0.32028548258548983  0.24908973528106063  1.0000
  C   C20       1.0  0.4900783212192295  0.34638398157188277  0.08424081025042802  1.0000
  C   C21       1.0  0.49917628465104247  0.39887303273420827  0.2977228295836767  1.0000
  C   C22       1.0  0.49916517894641993  0.2677964415532728  0.03560771991358546  1.0000
  C   C23       1.0  0.5039101130956636  0.3656775995873359  0.16223548443979752  1.0000
  C   C24       1.0  0.50391449384216  0.30099138371081574  0.17109457085005889  1.0000
  S   S1        1.0  0.5185872367764263  0.2992849566811625  0.5504446553515833  1.0000
  S   S2        1.0  0.5186078212464125  0.36738182598539015  0.7828845646042736  1.0000
  S   S3        1.0  0.5185916026860796  0.7511628378950019  0.7007164670859893  1.0000
  S   S4        1.0  0.5186008827432856  0.9155046637475902  0.6326203775121897  1.0000
  S   S5        1.0  0.5185890722716522  0.44955481185378676  0.24883647250935328  1.0000
  S   S6        1.0  0.5185995186504756  0.21711518037156452  0.0844945817452398  1.0000
  Cl  Cl1       1.0  0.4841713133026104  0.5242974573103607  0.7464449323367077  1.0000
  Cl  Cl2       1.0  0.4841374255569164  0.14236915396664768  0.5868824204500456  1.0000
  Cl  Cl3       1.0  0.4841685532710329  0.7221523402835927  0.47570420213902054  1.0000
  Cl  Cl4       1.0  0.4841426518926751  0.944518540684541  0.857633179904525  1.0000
  Cl  Cl5       1.0  0.4841741494013334  0.25355452661867867  0.2778496402387773  1.0000
  Cl  Cl6       1.0  0.4841482778047492  0.413114357880481  0.05548147575709094  1.0000
  O   O1        1.0  0.7359918841889055  0.5841987901415917  0.5740285181779186  1.0000
  O   O2        1.0  0.7359885914191225  0.48983158819277844  0.415800442403956  1.0000
  O   O3        1.0  0.7359777705491551  0.42597138944502405  0.5101670013724373  1.0000
  O   O4        1.0  0.2668988425242347  0.5838369262140188  0.5097051607693003  1.0000
  O   O5        1.0  0.2668852373573642  0.49029602044085846  0.5741296768176767  1.0000
  O   O6        1.0  0.2668923221796078  0.42587002154471776  0.41616280228413427  1.0000
  O   O7        1.0  0.7359748285918924  0.17683778530290775  0.9175295017119964  1.0000
  O   O8        1.0  0.7359856494510523  0.240696914723635  0.8231630195174588  1.0000
  O   O9        1.0  0.7359740552378398  0.08246928370969864  0.7593047106991262  1.0000
  O   O10       1.0  0.26687732308330675  0.24079911534735  0.9171666505094648  1.0000
  O   O11       1.0  0.2668783610355874  0.08283268639259911  0.8236287790931767  1.0000
  O   O12       1.0  0.2668894467651199  0.17637275315610154  0.7592011318315882  1.0000
