data_image0
_chemical_formula_structural       Zn8H36C78O36
_chemical_formula_sum              "Zn8 H36 C78 O36"
_cell_length_a       18.12334812057555
_cell_length_b       18.29819208080459
_cell_length_c       22.191938584797995
_cell_angle_alpha    65.9943512117001
_cell_angle_beta     66.05674038500355
_cell_angle_gamma    90.01697869484161

_space_group_name_H-M_alt    "P 1"
_space_group_IT_number       1

loop_
  _space_group_symop_operation_xyz
  'x, y, z'

loop_
  _atom_site_type_symbol
  _atom_site_label
  _atom_site_symmetry_multiplicity
  _atom_site_fract_x
  _atom_site_fract_y
  _atom_site_fract_z
  _atom_site_occupancy
  Zn  Zn1       1.0  0.6953310592788285  0.7810623399518235  0.4358628719674158  1.0000
  Zn  Zn2       1.0  0.3046704828245838  0.218938557820934  0.5641363176398072  1.0000
  Zn  Zn3       1.0  0.7165129811210491  0.8054346535481262  0.5632281021198364  1.0000
  Zn  Zn4       1.0  0.2834869663852827  0.19456502588943894  0.43677292675261725  1.0000
  Zn  Zn5       1.0  0.8701424012009584  0.78254140644588  0.4369884213850738  1.0000
  Zn  Zn6       1.0  0.12985816616366466  0.21745888140885944  0.5630112608025256  1.0000
  Zn  Zn7       1.0  0.7205183129212572  0.6310370312870219  0.561617071555922  1.0000
  Zn  Zn8       1.0  0.279480230140841  0.368961425245729  0.43838319002905013  1.0000
  H   H1        1.0  0.40886949463571626  0.5742531260118681  0.9526631782758131  1.0000
  H   H2        1.0  0.5141786806694739  0.3122830068617901  0.004106973290305462  1.0000
  H   H3        1.0  0.9062509959263849  0.162335963441727  0.4471744900165716  1.0000
  H   H4        1.0  0.09374826910566005  0.837664325622498  0.5528258880484672  1.0000
  H   H5        1.0  0.8597109481554244  0.9957550512801918  0.5856748961651731  1.0000
  H   H6        1.0  0.140288316876621  0.004245237784033401  0.41432548189987267  1.0000
  H   H7        1.0  0.9907833152990191  0.952586270203952  0.6234128906906092  1.0000
  H   H8        1.0  0.009215827369878617  0.047413408516725014  0.37658773324923794  1.0000
  H   H9        1.0  0.38189257157993245  0.8646099126083089  0.6824473408033356  1.0000
  H   H10       1.0  0.6181048268420144  0.13538732480528637  0.3175543108749963  1.0000
  H   H11       1.0  0.48418537428764813  0.04151412647288311  0.5962720582769377  1.0000
  H   H12       1.0  0.591130902827544  0.42574655264172634  0.04733740142476246  1.0000
  H   H13       1.0  0.5158123639370231  0.9584843293429869  0.40372779837542794  1.0000
  H   H14       1.0  0.660854664926276  0.40352512521922523  0.44841277645788585  1.0000
  H   H15       1.0  0.33914653737441836  0.5964745541512572  0.5515882081753033  1.0000
  H   H16       1.0  0.4942565970669008  0.3606697603768012  0.5861828879320043  1.0000
  H   H17       1.0  0.5057440531652091  0.6393286956633519  0.4138170827081282  1.0000
  H   H18       1.0  0.0372165779192954  0.866751521972603  0.04828646673213646  1.0000
  H   H19       1.0  0.9627837447190333  0.13324754519505427  0.9517137072050659  1.0000
  H   H20       1.0  0.9586535103871794  0.9136016885960888  0.9543561651232793  1.0000
  H   H21       1.0  0.04134653219558259  0.08639798855666919  0.04564356047281851  1.0000
  H   H22       1.0  0.14972078872300898  0.019007320427832  0.9574002385297717  1.0000
  H   H23       1.0  0.3654937907384268  0.9339695702530405  0.5273079533223424  1.0000
  H   H24       1.0  0.8502819333498266  0.9809929657918985  0.042598501074806436  1.0000
  H   H25       1.0  0.10305434034138024  0.5317431621632596  0.5354378379725944  1.0000
  H   H26       1.0  0.8969450823830839  0.4682559065723241  0.46456323430835766  1.0000
  H   H27       1.0  0.9287593967617057  0.49600478624418554  0.6219480873368964  1.0000
  H   H28       1.0  0.07124059828284145  0.5039948920509759  0.3780522898973757  1.0000
  H   H29       1.0  0.9183788726601777  0.36186305848841027  0.5896432093514505  1.0000
  H   H30       1.0  0.08162107484615429  0.6381366209491546  0.41035781952101047  1.0000
  H   H31       1.0  0.634504377191682  0.06602949854961793  0.4726931631978814  1.0000
  H   H32       1.0  0.545966568343623  0.5082372104551143  0.3771134465098598  1.0000
  H   H33       1.0  0.4540327442266375  0.4917630774667003  0.6228862799170044  1.0000
  H   H34       1.0  0.3492967278395442  0.3898647324233196  0.998523246092823  1.0000
  H   H35       1.0  0.6507025371925012  0.6101355566409056  0.0014771319722158586  1.0000
  H   H36       1.0  0.4858195347988499  0.6877160607984649  0.9958934915917368  1.0000
  C   C1        1.0  0.646387956630882  0.6523134610701788  0.6985653273744815  1.0000
  C   C2        1.0  0.11116345377958936  0.10642754714839953  0.7793752272552082  1.0000
  C   C3        1.0  0.9170422402657792  0.9897787709263568  0.02302533265729786  1.0000
  C   C4        1.0  0.08295950706826728  0.010220905375355503  0.9769738995276568  1.0000
  C   C5        1.0  0.9604914990421562  0.9634952168163693  0.0756815976747163  1.0000
  C   C6        1.0  0.03950996823632376  0.0365050694704507  0.9243171861691337  1.0000
  C   C7        1.0  0.9216413131373713  0.9260296909379164  0.15349973492718047  1.0000
  C   C8        1.0  0.07835870919389278  0.0739705999855929  0.8465016997086535  1.0000
  C   C9        1.0  0.9610527883398918  0.49684356783606626  0.5679200313918145  1.0000
  C   C10       1.0  0.03894813390523669  0.503156721519524  0.43208050490026295  1.0000
  C   C11       1.0  0.056661539209350985  0.5186560149706025  0.5195825504871009  1.0000
  C   C12       1.0  0.35361171081988374  0.3476868283524865  0.30143525315686753  1.0000
  C   C13       1.0  0.9433384558351889  0.48134366332455875  0.4804178267471783  1.0000
  C   C14       1.0  0.049317227286906094  0.44411112760983673  0.5022297181337052  1.0000
  C   C15       1.0  0.9506821601082863  0.5558897717979365  0.49777041405653216  1.0000
  C   C16       1.0  0.8496022401472275  0.8539059468063288  0.2998149609410703  1.0000
  C   C17       1.0  0.1503990572298974  0.14609373027934683  0.7001847204157627  1.0000
  C   C18       1.0  0.9540380517198269  0.4234873934281965  0.5499530768170685  1.0000
  C   C19       1.0  0.04596274816215379  0.5765122855838456  0.4500477053498173  1.0000
  C   C20       1.0  0.42954454500289796  0.4469518344053683  0.025721897179401824  1.0000
  C   C21       1.0  0.5704576795747942  0.553048453740729  0.9742779432352292  1.0000
  C   C22       1.0  0.4502801597824867  0.5411834604113182  0.973399691509499  1.0000
  C   C23       1.0  0.4968375431957456  0.4226964458092866  0.5479585355253107  1.0000
  C   C24       1.0  0.5497212124195627  0.4588168281603018  0.02660039561070703  1.0000
  C   C25       1.0  0.606926749461408  0.6120950196820943  0.7780374307461101  1.0000
  C   C26       1.0  0.3930719907887763  0.38790465868014934  0.22196299072743383  1.0000
  C   C27       1.0  0.5200458714174658  0.4424788330152439  0.9748480039820108  1.0000
  C   C28       1.0  0.47995428131949336  0.5575196249512755  0.025153067468181807  1.0000
  C   C29       1.0  0.5396344805310208  0.536995355261105  0.9228053523764782  1.0000
  C   C30       1.0  0.46036729408974963  0.46300493366896234  0.07719493721003089  1.0000
  C   C31       1.0  0.5771382145128214  0.5767547012622245  0.8448533914598925  1.0000
  C   C32       1.0  0.4228631576892282  0.4232455873093955  0.15514669566031358  1.0000
  C   C33       1.0  0.9221341842295485  0.9976458175039158  0.5476559035873122  1.0000
  C   C34       1.0  0.5031629766306622  0.5773038431878561  0.45204179830047053  1.0000
  C   C35       1.0  0.07786508080250347  0.0023544715603094  0.45234447447773357  1.0000
  C   C36       1.0  0.9835298764319235  0.07656148062956451  0.4782269398299022  1.0000
  C   C37       1.0  0.016469143873827436  0.9234375877475715  0.5217739299847466  1.0000
  C   C38       1.0  0.05623285262069538  0.051009327887428  0.49877400790254706  1.0000
  C   C39       1.0  0.943766609599436  0.9489921830062826  0.5012265300510634  1.0000
  C   C40       1.0  0.6109900655059942  0.8896605749624628  0.49664435721707173  1.0000
  C   C41       1.0  0.38900940475668483  0.1103384926307172  0.5033560634257057  1.0000
  C   C42       1.0  0.9943276509800469  0.9739994519860744  0.5684069524116849  1.0000
  C   C43       1.0  0.005672016470718737  0.026000837436591002  0.4315936281196641  1.0000
  C   C44       1.0  0.4708688088784643  0.932660120209519  0.5661873366131615  1.0000
  C   C45       1.0  0.9764921214141892  0.9515252452172049  0.9755187397652278  1.0000
  C   C46       1.0  0.5291305865592835  0.06733833589770911  0.43381267826624276  1.0000
  C   C47       1.0  0.42595496048014087  0.9635956122137089  0.5143972594336573  1.0000
  C   C48       1.0  0.5740440325388932  0.036402843535078895  0.48560255297943655  1.0000
  C   C49       1.0  0.44672357386853895  0.05254520558593612  0.503402901980543  1.0000
  C   C50       1.0  0.5532733514761503  0.9474556928135912  0.4965966670500491  1.0000
  C   C51       1.0  0.49144860984833383  0.023038329860988  0.5534619691053919  1.0000
  C   C52       1.0  0.5085507855894137  0.9769601262462403  0.4465380457740055  1.0000
  C   C53       1.0  0.8931032991893417  0.6132754774323032  0.4983080842930436  1.0000
  C   C54       1.0  0.10689686575656042  0.3867248100639955  0.5016913954282458  1.0000
  C   C55       1.0  0.8858139254004556  0.8916004675845316  0.500947874570663  1.0000
  C   C56       1.0  0.02350837112550149  0.0484744311515897  0.024480536658991508  1.0000
  C   C57       1.0  0.11418660663489544  0.10840165094239751  0.49905086752622196  1.0000
  C   C58       1.0  0.6114881167656492  0.6124206212180782  0.4976920479138371  1.0000
  C   C59       1.0  0.3885130107101062  0.3875784466664527  0.5023085309559789  1.0000
  C   C60       1.0  0.5767889292997948  0.48241650117942925  0.4781701446670893  1.0000
  C   C61       1.0  0.42321159052661284  0.5175837878177135  0.5218301891586847  1.0000
  C   C62       1.0  0.5252229474254763  0.5051698681878136  0.43186994175069054  1.0000
  C   C63       1.0  0.4747781447210073  0.4948310303689141  0.5681296970284108  1.0000
  C   C64       1.0  0.447228685909181  0.4448712919874467  0.5019299082817668  1.0000
  C   C65       1.0  0.5527696872515621  0.5551265553441597  0.4980712508161885  1.0000
  C   C66       1.0  0.35397236800794474  0.3920561802368994  0.04667434121832772  1.0000
  C   C67       1.0  0.021288012950897373  0.9263566651785596  0.025922718788969165  1.0000
  C   C68       1.0  0.6460271770796736  0.6079434988422251  0.95332648518783  1.0000
  C   C69       1.0  0.4613872210618127  0.6261438063490915  0.044795864877784225  1.0000
  C   C70       1.0  0.5386137011833084  0.37385648300649177  0.9552046714143003  1.0000
  C   C71       1.0  0.9662052425072075  0.15955902801997718  0.45086337534086596  1.0000
  C   C72       1.0  0.033793620106123946  0.8404412606858076  0.5491368002578696  1.0000
  C   C73       1.0  0.4347364213778489  0.8582490179517706  0.6370988464665713  1.0000
  C   C74       1.0  0.5652618689153996  0.14175066119442903  0.36290202417885103  1.0000
  C   C75       1.0  0.6598052756774705  0.46371149140303203  0.4505719766397009  1.0000
  C   C76       1.0  0.34019602169964713  0.5362881856826435  0.5494277047171322  1.0000
  C   C77       1.0  0.97871275964436  0.0736424012051344  0.9740770059763622  1.0000
  C   C78       1.0  0.8888375960023893  0.8935739556814042  0.22062070499188743  1.0000
  O   O1        1.0  0.7502546648711785  0.7500696279258321  0.4999045059917648  1.0000
  O   O2        1.0  0.10342967844655254  0.16850869508667904  0.6688190501230551  1.0000
  O   O3        1.0  0.6685278938402703  0.6059711308407928  0.6671869856572242  1.0000
  O   O4        1.0  0.33147307594307324  0.39402915737238703  0.3328128989966784  1.0000
  O   O5        1.0  0.7710940418815042  0.8449968887353875  0.3310074496749564  1.0000
  O   O6        1.0  0.22890648598745875  0.1550009569612172  0.6689927668399845  1.0000
  O   O7        1.0  0.6509886591449642  0.8865532547938457  0.533190864311301  1.0000
  O   O8        1.0  0.34901003356700505  0.11344642471080138  0.4668102088004175  1.0000
  O   O9        1.0  0.9238531373267448  0.6890907957217466  0.45565907879212386  1.0000
  O   O10       1.0  0.07614861000730141  0.31090888057996585  0.5443401533928309  1.0000
  O   O11       1.0  0.8123200939086389  0.8697906185849008  0.551951591795678  1.0000
  O   O12       1.0  0.24974516027200624  0.24992944116819166  0.5000967687554975  1.0000
  O   O13       1.0  0.18767951092613092  0.13021088888159937  0.4480469912434017  1.0000
  O   O14       1.0  0.6334228385936456  0.5829441855165598  0.5491967148189829  1.0000
  O   O15       1.0  0.3665777721427972  0.4170518283654588  0.45080379014849825  1.0000
  O   O16       1.0  0.9157327447267251  0.8710371476698813  0.4486841032255242  1.0000
  O   O17       1.0  0.08426868722248335  0.1289649692891146  0.551313740527604  1.0000
  O   O18       1.0  0.6328222234407478  0.6853292172199447  0.4467009002175287  1.0000
  O   O19       1.0  0.3671794288168684  0.3146704613665746  0.553299635243782  1.0000
  O   O20       1.0  0.30027440072916534  0.3526998226610162  0.10931002193063212  1.0000
  O   O21       1.0  0.6997269319772241  0.6472980237524766  0.8906905995169154  1.0000
  O   O22       1.0  0.4230650152122947  0.6189228888466333  0.10711918293945627  1.0000
  O   O23       1.0  0.6156300261251958  0.8502627336223016  0.45977249958059463  1.0000
  O   O24       1.0  0.576937844301469  0.38107679081520734  0.8928819599207785  1.0000
  O   O25       1.0  0.012253977669331634  0.22172957772816204  0.4320214633341378  1.0000
  O   O26       1.0  0.9877452398245053  0.7782707124784667  0.5679795663690824  1.0000
  O   O27       1.0  0.4575501106728483  0.7931867208834122  0.6473026107173607  1.0000
  O   O28       1.0  0.5424487519404835  0.20681356782237265  0.35269756488138165  1.0000
  O   O29       1.0  0.7236916314662878  0.5089500550681976  0.4299396163306922  1.0000
  O   O30       1.0  0.2763094333934789  0.4910502308601749  0.5700589650468544  1.0000
  O   O31       1.0  0.3843692469494046  0.1497351121413857  0.5402277611736181  1.0000
  O   O32       1.0  0.8169820428504766  0.581114724977823  0.5419415308212905  1.0000
  O   O33       1.0  0.1830188643168711  0.41888678127919127  0.458056356340343  1.0000
  O   O34       1.0  0.6551153637395611  0.7299302536052963  0.6683834026237819  1.0000
  O   O35       1.0  0.3448856535819901  0.2700700334654798  0.33161583039193937  1.0000
  O   O36       1.0  0.8965711689736366  0.8314909827829594  0.33118108040564925  1.0000
