data_image0
_chemical_formula_structural       Zn12H96C144I24N48
_chemical_formula_sum              "Zn12 H96 C144 I24 N48"
_cell_length_a       14.980457445072332
_cell_length_b       19.16858995008513
_cell_length_c       31.122441828315367
_cell_angle_alpha    102.30287811323761
_cell_angle_beta     89.98666223629827
_cell_angle_gamma    113.0075276035425

_space_group_name_H-M_alt    "P 1"
_space_group_IT_number       1

loop_
  _space_group_symop_operation_xyz
  'x, y, z'

loop_
  _atom_site_type_symbol
  _atom_site_label
  _atom_site_symmetry_multiplicity
  _atom_site_fract_x
  _atom_site_fract_y
  _atom_site_fract_z
  _atom_site_occupancy
  Zn  Zn1       1.0  0.7994431009817545  0.8402865628675473  0.90667077163031  1.0000
  Zn  Zn2       1.0  0.4718880581830619  0.6486116290933952  0.7215954702098556  1.0000
  Zn  Zn3       1.0  0.5233636102128046  0.248818711602624  0.5569028460005825  1.0000
  Zn  Zn4       1.0  0.04093546683333227  0.8401332796088784  0.4066083987978573  1.0000
  Zn  Zn5       1.0  0.17658600528752538  0.6485626840835366  0.22157849422402615  1.0000
  Zn  Zn6       1.0  0.7256562608086342  0.24884533865456157  0.0568567910066875  1.0000
  Zn  Zn7       1.0  0.9590660660977548  0.15986643723441324  0.593391276487253  1.0000
  Zn  Zn8       1.0  0.8234137318284528  0.351438781160006  0.7784210904389468  1.0000
  Zn  Zn9       1.0  0.2743435577523456  0.7511549557232869  0.943145209725415  1.0000
  Zn  Zn10      1.0  0.2005553855376689  0.1597137364812582  0.09332898064926098  1.0000
  Zn  Zn11      1.0  0.5281095535400055  0.3513869210791114  0.2784046940504865  1.0000
  Zn  Zn12      1.0  0.47663734010100706  0.7511798400758423  0.4430966756482632  1.0000
  H   H1        1.0  0.8383064425185511  0.7749196363682105  0.9797466103561019  1.0000
  H   H2        1.0  0.9820144783604761  0.7904709201074314  0.028890293432986915  1.0000
  H   H3        1.0  0.15435897139769852  0.9901215738296332  0.9789754244407545  1.0000
  H   H4        1.0  0.003377784064809759  0.967169398018548  0.9318885575415405  1.0000
  H   H5        1.0  0.9775256634693221  0.8256084873692802  0.872549149583534  1.0000
  H   H6        1.0  0.025307376847806134  0.7401890570218658  0.8134178963682357  1.0000
  H   H7        1.0  0.7194010461368877  0.5992648051263673  0.7759460110412773  1.0000
  H   H8        1.0  0.6832704091046793  0.6874683151423682  0.8391674370185527  1.0000
  H   H9        1.0  0.8756404641722425  0.39824049658179217  0.6266739452959766  1.0000
  H   H10       1.0  0.738441171465112  0.2985668671690362  0.5736805496244769  1.0000
  H   H11       1.0  0.5336177143416593  0.3584491188342371  0.6442309579400103  1.0000
  H   H12       1.0  0.6641327668804846  0.464816491474437  0.6991093875511323  1.0000
  H   H13       1.0  0.17087917977129755  0.7010239403136611  0.768233085879025  1.0000
  H   H14       1.0  0.34753361745161027  0.7220821444026061  0.7671389714223408  1.0000
  H   H15       1.0  0.2822995314789268  0.5194275024963632  0.6705139461838171  1.0000
  H   H16       1.0  0.1027789288500429  0.4903249341841019  0.6674453385288643  1.0000
  H   H17       1.0  0.07654142652491197  0.6354591471968264  0.13431050270246908  1.0000
  H   H18       1.0  0.0922661222052099  0.719906255302945  0.0801840832277065  1.0000
  H   H19       1.0  0.3489487511213555  0.8929897231061406  0.1605693368491288  1.0000
  H   H20       1.0  0.3193146287351851  0.8043329769415666  0.21318704550971998  1.0000
  H   H21       1.0  0.37073571673567324  0.06395102810200373  0.0017996442116228059  1.0000
  H   H22       1.0  0.50019835418653  0.9996362969148366  0.10219564004457032  1.0000
  H   H23       1.0  0.5339696060292239  0.17312485606030495  0.0017614706187459026  1.0000
  H   H24       1.0  0.6584162828582621  0.11238394395864763  0.09869596843643079  1.0000
  H   H25       1.0  0.9368224484551748  0.7749527069659268  0.4796641472641524  1.0000
  H   H26       1.0  0.8084464963973802  0.7903719404125841  0.52874976508388  1.0000
  H   H27       1.0  0.8361075855707014  0.9902389409832183  0.47896788794810863  1.0000
  H   H28       1.0  0.9641508874420451  0.9672966960161066  0.4318635289251986  1.0000
  H   H29       1.0  0.8482258089009848  0.825636806314421  0.37251734501374045  1.0000
  H   H30       1.0  0.7149551953446364  0.7402722120430952  0.3134153671248966  1.0000
  H   H31       1.0  0.8797870561639058  0.5992299274359498  0.2758723365081508  1.0000
  H   H32       1.0  0.004225560271443312  0.6874056141418805  0.33902260392144257  1.0000
  H   H33       1.0  0.5226552850888951  0.39817559823962523  0.1266850781642717  1.0000
  H   H34       1.0  0.5603669982363113  0.29867637209475356  0.07358731165201958  1.0000
  H   H35       1.0  0.8248176867372052  0.35833323035644343  0.1441993761218257  1.0000
  H   H36       1.0  0.8007657689343758  0.4647588200717935  0.19908287329178617  1.0000
  H   H37       1.0  0.5300272461197721  0.7009018808483278  0.2682701531096825  1.0000
  H   H38       1.0  0.37443628092717773  0.7219950414848527  0.2671619388895508  1.0000
  H   H39       1.0  0.23691253578530086  0.5192627406516268  0.17064702513438593  1.0000
  H   H40       1.0  0.3873279093554772  0.4901457056434994  0.16752658786636937  1.0000
  H   H41       1.0  0.558506239360895  0.6354284645399062  0.6343232565238353  1.0000
  H   H42       1.0  0.6273581576922708  0.7198395339112411  0.5801791552321304  1.0000
  H   H43       1.0  0.5440264952556005  0.893085922355013  0.6605782230763849  1.0000
  H   H44       1.0  0.484962390582787  0.8045286904768292  0.7132155201605314  1.0000
  H   H45       1.0  0.6931418051266149  0.06385051737113662  0.5016945029219497  1.0000
  H   H46       1.0  0.4992240762977858  0.9992773473914628  0.6020288548989327  1.0000
  H   H47       1.0  0.6390915553013627  0.1730756814069353  0.5017507474941212  1.0000
  H   H48       1.0  0.453690766957493  0.11202013315916305  0.5986151124396598  1.0000
  H   H49       1.0  0.06318183696761541  0.22504584050224716  0.5203373015138552  1.0000
  H   H50       1.0  0.19155920860509923  0.20962544122237867  0.4712518511696473  1.0000
  H   H51       1.0  0.16388932164480957  0.009755530428641603  0.5210320597323843  1.0000
  H   H52       1.0  0.03584639731455751  0.032697194972314506  0.5681353782491527  1.0000
  H   H53       1.0  0.15177526112700693  0.17436465538722262  0.6274838456666102  1.0000
  H   H54       1.0  0.28504474597707485  0.2597309973596397  0.6865860541156363  1.0000
  H   H55       1.0  0.12021230341097322  0.400772118231025  0.7241282886609637  1.0000
  H   H56       1.0  0.9957732171213892  0.31259526707480495  0.6609775463938374  1.0000
  H   H57       1.0  0.4773454940656735  0.6018252815941383  0.8733157144803696  1.0000
  H   H58       1.0  0.4396331133741994  0.7013245077236265  0.9264134810278859  1.0000
  H   H59       1.0  0.1751827161819436  0.6416682320443459  0.8558014933762121  1.0000
  H   H60       1.0  0.1992346339847728  0.5352426423289957  0.8009179962062445  1.0000
  H   H61       1.0  0.46997190750848716  0.29909841780132507  0.731729920352201  1.0000
  H   H62       1.0  0.6255624964656546  0.2780058397318328  0.7328382114257292  1.0000
  H   H63       1.0  0.7630876616224426  0.4807369754463694  0.8293529714388297  1.0000
  H   H64       1.0  0.612671911381625  0.5098545923070006  0.8324738067778268  1.0000
  H   H65       1.0  0.4414956689351753  0.3645706683072946  0.3656769843430396  1.0000
  H   H66       1.0  0.3726438355305817  0.2801584337865109  0.41982093196321557  1.0000
  H   H67       1.0  0.45597233053575087  0.10690971568148913  0.33942123573466887  1.0000
  H   H68       1.0  0.5150354754854192  0.195466363532816  0.2867845043028154  1.0000
  H   H69       1.0  0.30685856256992855  0.9361468691425047  0.4983048650906382  1.0000
  H   H70       1.0  0.5007770438696113  0.0007188739881130001  0.3979703594068694  1.0000
  H   H71       1.0  0.3609101474833025  0.8269217051374657  0.49824862044793855  1.0000
  H   H72       1.0  0.5463096843601748  0.8879760860614428  0.40138506555415177  1.0000
  H   H73       1.0  0.16169576013271578  0.2250800840631086  0.020251458805830704  1.0000
  H   H74       1.0  0.0179894369200042  0.20952821993120813  0.9711067351522757  1.0000
  H   H75       1.0  0.8456389703383778  0.009881640528682603  0.021023748382511098  1.0000
  H   H76       1.0  0.9966193678017062  0.032830902014033804  0.0681108735909746  1.0000
  H   H77       1.0  0.02247290754166189  0.17439064611554764  0.1274507702420919  1.0000
  H   H78       1.0  0.9746898595102778  0.25981007714673154  0.1865817023103418  1.0000
  H   H79       1.0  0.28059648065938353  0.4007349101955812  0.22405430689059355  1.0000
  H   H80       1.0  0.3167293271408483  0.31253314867210247  0.1608327900795814  1.0000
  H   H81       1.0  0.12435898119987591  0.6017603853647984  0.37332588376645487  1.0000
  H   H82       1.0  0.2615586505776477  0.7014334329250576  0.42631888136698126  1.0000
  H   H83       1.0  0.466381233775195  0.6415494335126227  0.3557682425970583  1.0000
  H   H84       1.0  0.3358647607862295  0.5351832252765761  0.30089028794557743  1.0000
  H   H85       1.0  0.8291196821130954  0.2989757750390467  0.23176723198231028  1.0000
  H   H86       1.0  0.6524667889493118  0.2779193237144355  0.23285932833504566  1.0000
  H   H87       1.0  0.7176982874964253  0.48057279683706616  0.32948580613101797  1.0000
  H   H88       1.0  0.8972176373526396  0.5096741956819388  0.33255618749046784  1.0000
  H   H89       1.0  0.9234592694437611  0.36454290064450146  0.8656891587433648  1.0000
  H   H90       1.0  0.9077339053489549  0.2800957910939417  0.9198162206885596  1.0000
  H   H91       1.0  0.6510530731183691  0.10701057631955992  0.8394304152541066  1.0000
  H   H92       1.0  0.680686237087059  0.1956667406008777  0.7868123085930705  1.0000
  H   H93       1.0  0.6292663979422456  0.9360498524770479  0.9982008271449061  1.0000
  H   H94       1.0  0.49980280207391564  0.0003640017809587004  0.8978044333115135  1.0000
  H   H95       1.0  0.4660321319780465  0.8268766063712507  0.9982393988087565  1.0000
  H   H96       1.0  0.34158487340217647  0.8876163547371477  0.901304104919646  1.0000
  C   C1        1.0  0.9100541671009807  0.8215261932020187  0.9806439344258208  1.0000
  C   C2        1.0  0.9890825304246108  0.8305322955345604  0.007798229128141514  1.0000
  C   C3        1.0  0.07930936637383476  0.890751067481148  0.00677634007720942  1.0000
  C   C4        1.0  0.08541215680084252  0.9420059427757654  0.9798331366064799  1.0000
  C   C5        1.0  0.002824579461353867  0.9294559210827346  0.9538281098217708  1.0000
  C   C6        1.0  0.9223441903553892  0.7743970934370881  0.8508523538295165  1.0000
  C   C7        1.0  0.9488824175879883  0.7274515955417087  0.8175988641771708  1.0000
  C   C8        1.0  0.8757555627138418  0.6627614996524117  0.7901135212644517  1.0000
  C   C9        1.0  0.7782988388207671  0.6479413656189054  0.7973677330694426  1.0000
  C   C10       1.0  0.7579459365927407  0.6968778084332855  0.832129823157153  1.0000
  C   C11       1.0  0.9023816116521673  0.6113651225549077  0.7547024464656784  1.0000
  C   C12       1.0  0.018272119368013737  0.5790401026437166  0.7196860712541377  1.0000
  C   C13       1.0  0.8587420042287092  0.5047570328337515  0.697856653480869  1.0000
  C   C14       1.0  0.7805293069839291  0.4404859793764899  0.6668917881469836  1.0000
  C   C15       1.0  0.801286303390853  0.3922531894153424  0.6314850668054887  1.0000
  C   C16       1.0  0.7246926700658636  0.3361517599677201  0.602064113929451  1.0000
  C   C17       1.0  0.6105777851162982  0.3699063393195132  0.6416904607315882  1.0000
  C   C18       1.0  0.6829993337499971  0.42820420097693573  0.672089253677555  1.0000
  C   C19       1.0  0.12313769830398505  0.5939826802068141  0.7177177501309442  1.0000
  C   C20       1.0  0.1932229219317848  0.6602729159558794  0.7457327188431719  1.0000
  C   C21       1.0  0.2906326002554209  0.6722923001151102  0.7450587830305222  1.0000
  C   C22       1.0  0.2541340371398563  0.5585620266656054  0.6911029907581536  1.0000
  C   C23       1.0  0.15499690982751707  0.5425064760833467  0.6896918097566669  1.0000
  C   C24       1.0  0.13514048338183224  0.6932816136666917  0.1388363936331771  1.0000
  C   C25       1.0  0.14391814361606947  0.7398893393353135  0.10921791055753968  1.0000
  C   C26       1.0  0.2219832416570142  0.8127255911434264  0.11660835579122872  1.0000
  C   C27       1.0  0.2878176886407858  0.8364503524565807  0.15397198117627647  1.0000
  C   C28       1.0  0.27250375791450665  0.7872222331393389  0.18263924241685459  1.0000
  C   C29       1.0  0.233450618046092  0.8635232662843608  0.08544511561484572  1.0000
  C   C30       1.0  0.16648977812618446  0.8987789473137515  0.03310333394768616  1.0000
  C   C31       1.0  0.32767958680044257  0.9616299133860053  0.05493834380867919  1.0000
  C   C32       1.0  0.42340647137165627  0.023929903493197506  0.05230623972895639  1.0000
  C   C33       1.0  0.4331164540797019  0.07247042126977023  0.023301517859088995  1.0000
  C   C34       1.0  0.5054537290690178  0.03719822263775541  0.0797185886790359  1.0000
  C   C35       1.0  0.522683413490519  0.13314125115868342  0.0234767690106921  1.0000
  C   C36       1.0  0.5922409546683554  0.09913877436434862  0.0780686777933255  1.0000
  C   C37       1.0  0.9116950033197995  0.8215773842422678  0.48058630298248056  1.0000
  C   C38       1.0  0.8415770966740654  0.8305159587023073  0.5077124490884231  1.0000
  C   C39       1.0  0.8116051369384039  0.8907606897542595  0.5067058795415633  1.0000
  C   C40       1.0  0.8568988514492304  0.942096267847511  0.47980834467355743  1.0000
  C   C41       1.0  0.926954845779413  0.9295596615852235  0.4537988083749268  1.0000
  C   C42       1.0  0.8521719412107276  0.7744332214974324  0.3508009249507964  1.0000
  C   C43       1.0  0.7786334097592659  0.7275203553990794  0.3175650416167741  1.0000
  C   C44       1.0  0.7869966259253188  0.6627726670211588  0.2900887568985553  1.0000
  C   C45       1.0  0.8696264560099963  0.6479363531715523  0.2973031407926072  1.0000
  C   C46       1.0  0.9389515265975632  0.6968416873507909  0.332041658864881  1.0000
  C   C47       1.0  0.7088738369815317  0.6113155083697849  0.25472532138257975  1.0000
  C   C48       1.0  0.5606799607350369  0.5789334069879787  0.21968215246069178  1.0000
  C   C49       1.0  0.645978673240343  0.5046784416857761  0.19787099891625806  1.0000
  C   C50       1.0  0.660042961665347  0.4404876607308098  0.16687493545085624  1.0000
  C   C51       1.0  0.5910694033254771  0.3922569044264961  0.13146321347483078  1.0000
  C   C52       1.0  0.6116302904136434  0.33622074789449397  0.1019930674537974  1.0000
  C   C53       1.0  0.7593965209012127  0.3698897603931501  0.1416545474699618  1.0000
  C   C54       1.0  0.7452838219768338  0.4281926172151033  0.17205979770162827  1.0000
  C   C55       1.0  0.4707003623418657  0.5938306353278194  0.21775472308807756  1.0000
  C   C56       1.0  0.4669139739993399  0.6601168046021403  0.24578870556889848  1.0000
  C   C57       1.0  0.38156218042549034  0.6721908612681917  0.2451129122326989  1.0000
  C   C58       1.0  0.3042167096530902  0.5584065023446813  0.1912107476603211  1.0000
  C   C59       1.0  0.38730187627219687  0.5423353629981092  0.18977801215041268  1.0000
  C   C60       1.0  0.5578346012167047  0.6932786864401238  0.6388596538125881  1.0000
  C   C61       1.0  0.5957158181482072  0.7398603169904094  0.6092213228376123  1.0000
  C   C62       1.0  0.5906344560070735  0.8127390068829785  0.6165869873578628  1.0000
  C   C63       1.0  0.5485455175452572  0.8365236217138874  0.6539626082495714  1.0000
  C   C64       1.0  0.5146276456257012  0.7873561849371101  0.6826655809188295  1.0000
  C   C65       1.0  0.6300283857003777  0.8634715858082347  0.5853724737780936  1.0000
  C   C66       1.0  0.7323143346365198  0.8987131433010663  0.5330026655991487  1.0000
  C   C67       1.0  0.6338323182921928  0.961470280233201  0.5547848639384796  1.0000
  C   C68       1.0  0.6003412106678494  0.023718929593599104  0.5521577063486305  1.0000
  C   C69       1.0  0.639192708693308  0.07230260603900972  0.5231753631712408  1.0000
  C   C70       1.0  0.5315000483003446  0.036888795540740205  0.5795732121380012  1.0000
  C   C71       1.0  0.6103366537210989  0.13299737539016127  0.5234191878019202  1.0000
  C   C72       1.0  0.5066500989613231  0.09883658766698032  0.5779716210956635  1.0000
  C   C73       1.0  0.08830974326519941  0.17841941550943125  0.5194149152706016  1.0000
  C   C74       1.0  0.15842527104332763  0.1694814235702893  0.4922888461238556  1.0000
  C   C75       1.0  0.18839664816172072  0.10923552735351195  0.4932952620344578  1.0000
  C   C76       1.0  0.1431026423422495  0.05789936667785162  0.5201927200843315  1.0000
  C   C77       1.0  0.0730456046678043  0.07043655620632452  0.5462020120540456  1.0000
  C   C78       1.0  0.14782779416435687  0.22556824088798075  0.6491999445825059  1.0000
  C   C79       1.0  0.22136594938039167  0.2724816895533664  0.6824359047699173  1.0000
  C   C80       1.0  0.21300206697594598  0.33722938005950454  0.7099112258706625  1.0000
  C   C81       1.0  0.13037261225625232  0.3520651099130135  0.702697407558375  1.0000
  C   C82       1.0  0.061048209212742705  0.30315977574915115  0.667958889450844  1.0000
  C   C83       1.0  0.29112619057263334  0.3886865380271018  0.7452749825336866  1.0000
  C   C84       1.0  0.43931852534915816  0.4210668916462908  0.7803179210364559  1.0000
  C   C85       1.0  0.35402143924061147  0.4953224395616619  0.8021291513284863  1.0000
  C   C86       1.0  0.3399571508156072  0.5595132205166352  0.8331252147938881  1.0000
  C   C87       1.0  0.4089309991584428  0.6077445572597711  0.868537977240784  1.0000
  C   C88       1.0  0.38836952988823004  0.6637795493414772  0.8980076484079829  1.0000
  C   C89       1.0  0.24060388245315784  0.6301117027221752  0.858346000810492  1.0000
  C   C90       1.0  0.2547172484863723  0.5718088452010692  0.8279410717611382  1.0000
  C   C91       1.0  0.5292987899807216  0.40616966117823955  0.782246314026551  1.0000
  C   C92       1.0  0.5330841345437634  0.33988407445556856  0.7542124084343911  1.0000
  C   C93       1.0  0.6184365965321206  0.3278100192339651  0.754887559300158  1.0000
  C   C94       1.0  0.6957827352837996  0.4415943788873876  0.8087894026196947  1.0000
  C   C95       1.0  0.6126969847417527  0.45766435092554053  0.8102229481460836  1.0000
  C   C96       1.0  0.44216680938887976  0.30671811609281013  0.3611402797465074  1.0000
  C   C97       1.0  0.40428609058308496  0.2601388165713204  0.3907785968116855  1.0000
  C   C98       1.0  0.4093653282017584  0.18725721303678003  0.383412869453636  1.0000
  C   C99       1.0  0.45145435071991363  0.1634714316273644  0.3460377373255595  1.0000
  C   C100      1.0  0.4853734736712454  0.21264003501340775  0.31733427582213375  1.0000
  C   C101      1.0  0.3699727344670194  0.13652463557134817  0.4146267405277014  1.0000
  C   C102      1.0  0.2676868695872159  0.10128191150000991  0.4669970374702927  1.0000
  C   C103      1.0  0.36616755258430805  0.03852477739523862  0.44521355433116827  1.0000
  C   C104      1.0  0.3996569493203241  0.9762767112856428  0.4478404676273655  1.0000
  C   C105      1.0  0.36080486867759737  0.9276918696754068  0.4768226571684976  1.0000
  C   C106      1.0  0.468498777491007  0.963106842495762  0.4204262466730526  1.0000
  C   C107      1.0  0.38966237932254427  0.8670000118072567  0.4765798590636264  1.0000
  C   C108      1.0  0.49335131207948285  0.9011602155804754  0.42202799124584794  1.0000
  C   C109      1.0  0.0899473675709999  0.17847352649938844  0.019354455988960198  1.0000
  C   C110      1.0  0.010920922823210291  0.16946859079149593  0.9921996724172074  1.0000
  C   C111      1.0  0.9206910382862005  0.10925039777777104  0.9932232445505063  1.0000
  C   C112      1.0  0.9145890364230951  0.057998434665300615  0.0201671533647243  1.0000
  C   C113      1.0  0.9971744905457812  0.07054554485995373  0.0461711536588894  1.0000
  C   C114      1.0  0.07765429572880579  0.22560320519718155  0.14914771966763138  1.0000
  C   C115      1.0  0.0511151096435114  0.27254812049477556  0.18240113253711598  1.0000
  C   C116      1.0  0.12424263206172265  0.3372382163994487  0.20988647541457078  1.0000
  C   C117      1.0  0.22169868928117606  0.35205835184663675  0.20263162120968295  1.0000
  C   C118      1.0  0.24205150658241342  0.3031230741816986  0.1678696847934944  1.0000
  C   C119      1.0  0.09761562427069494  0.38863401089916055  0.24529747343048308  1.0000
  C   C120      1.0  0.9817266580248185  0.4209607785729617  0.2803140790611423  1.0000
  C   C121      1.0  0.14125714983477172  0.49524326653043743  0.30214309876343026  1.0000
  C   C122      1.0  0.21946947127934638  0.5595149032692603  0.3331077197331282  1.0000
  C   C123      1.0  0.19871285110784231  0.6077471106633753  0.3685143642212266  1.0000
  C   C124      1.0  0.27530648399761765  0.6638485393964617  0.39793563831484846  1.0000
  C   C125      1.0  0.38942011878584987  0.6300927948644671  0.3583091379117178  1.0000
  C   C126      1.0  0.31699915320464095  0.5717960990863987  0.3279101773844317  1.0000
  C   C127      1.0  0.8768617466329116  0.4060182010252475  0.2822824001490715  1.0000
  C   C128      1.0  0.8067772767816308  0.3397268022857105  0.25426631407730577  1.0000
  C   C129      1.0  0.7093652204608246  0.3277080020764346  0.25493968441399056  1.0000
  C   C130      1.0  0.7458624476178244  0.4414382740661225  0.30889611919204896  1.0000
  C   C131      1.0  0.8450021593091749  0.457494988430284  0.3103080961591615  1.0000
  C   C132      1.0  0.8648605883870459  0.30671985089307446  0.8611635121768444  1.0000
  C   C133      1.0  0.856082175681955  0.26011329035851827  0.8907821489592749  1.0000
  C   C134      1.0  0.7780167863323799  0.18727645596798942  0.8833916269074605  1.0000
  C   C135      1.0  0.712182715584028  0.16355111208780224  0.8460279246690161  1.0000
  C   C136      1.0  0.7274983585042989  0.21277865029782828  0.8173599440693449  1.0000
  C   C137      1.0  0.7665497016871541  0.136479364124  0.9145546226843918  1.0000
  C   C138      1.0  0.8335108333509211  0.10122426639155442  0.9668961599520995  1.0000
  C   C139      1.0  0.6723211087330087  0.03837213374079341  0.9450616388547386  1.0000
  C   C140      1.0  0.5765952683765008  0.976071561796474  0.9476933448282167  1.0000
  C   C141      1.0  0.566885661033439  0.9275304600238106  0.9766986322798558  1.0000
  C   C142      1.0  0.49454742719142103  0.9628020760580333  0.9202814846770478  1.0000
  C   C143      1.0  0.4773189924960306  0.8668602120027773  0.9765237791639618  1.0000
  C   C144      1.0  0.40776086826570435  0.900861522917758  0.9219320379626552  1.0000
  I   I1        1.0  0.8314556018957762  0.9534973646925454  0.8703079257946624  1.0000
  I   I2        1.0  0.6503931981946638  0.7641268538721991  0.9428470546664441  1.0000
  I   I3        1.0  0.5446395060049126  0.7432753909574575  0.7961906100929141  1.0000
  I   I4        1.0  0.4945959875700582  0.5225072417985432  0.690550370854126  1.0000
  I   I5        1.0  0.3623361125701051  0.22735726039058335  0.5911610818974751  1.0000
  I   I6        1.0  0.575030805223335  0.2987757661022315  0.4875160234364699  1.0000
  I   I7        1.0  0.12228790031971928  0.9533433961038471  0.3702761224439186  1.0000
  I   I8        1.0  0.11355691923906623  0.7639854069343103  0.44289145849680966  1.0000
  I   I9        1.0  0.19859115909105193  0.7433208628407901  0.2961693214753822  1.0000
  I   I10       1.0  0.0278279134939653  0.5224129886332565  0.1905347497679912  1.0000
  I   I11       1.0  0.8649048774211252  0.22736045800385807  0.09138112834155979  1.0000
  I   I12       1.0  0.7238234987329618  0.29843654191694924  0.9873601807073908  1.0000
  I   I13       1.0  0.8777116291087382  0.046656319264244  0.6297241953821455  1.0000
  I   I14       1.0  0.8864440306395308  0.2360131440296272  0.5571083843696201  1.0000
  I   I15       1.0  0.8014085739886809  0.256689936475226  0.7038257106080648  1.0000
  I   I16       1.0  0.9721716168049356  0.47758672816389236  0.8094649256229117  1.0000
  I   I17       1.0  0.13509665463951853  0.7726392574103687  0.9086191893787114  1.0000
  I   I18       1.0  0.27618190309063106  0.7015695783465292  0.012642588064927922  1.0000
  I   I19       1.0  0.16854355173247632  0.0465029339571075  0.12969214766722098  1.0000
  I   I20       1.0  0.34960670703399893  0.2358722782143233  0.057153507523807406  1.0000
  I   I21       1.0  0.45535935674993055  0.2567243258243153  0.20380906533325313  1.0000
  I   I22       1.0  0.505400660512862  0.4774907179163392  0.3094532500167445  1.0000
  I   I23       1.0  0.6376640373095626  0.772647700316661  0.4088389637448059  1.0000
  I   I24       1.0  0.424971892507081  0.7012262803561672  0.5124842803387324  1.0000
  N   N1        1.0  0.9170077183768156  0.8693945099552849  0.9535769048867522  1.0000
  N   N2        1.0  0.828877083815492  0.7592028371790751  0.8584091590197857  1.0000
  N   N3        1.0  0.9974612916122966  0.6303928741347138  0.7499594390731232  1.0000
  N   N4        1.0  0.9520243068082266  0.5161678493915717  0.691981619417156  1.0000
  N   N5        1.0  0.830403250723073  0.5487594375559796  0.7298818609047756  1.0000
  N   N6        1.0  0.320991576040818  0.6224100166612063  0.7182784087268672  1.0000
  N   N7        1.0  0.6311783210538452  0.3251627904994906  0.6069164742614033  1.0000
  N   N8        1.0  0.1980782234829448  0.7166061542271934  0.17506554057330698  1.0000
  N   N9        1.0  0.1533726572962379  0.8509837918800259  0.0604878521697998  1.0000
  N   N10       1.0  0.25268794068264794  0.9529666499532539  0.027774358611964093  1.0000
  N   N11       1.0  0.3219084016712727  0.919396651188464  0.08494658549084018  1.0000
  N   N12       1.0  0.6004004238775451  0.14690220501610446  0.05074837059773069  1.0000
  N   N13       1.0  0.9526591987424808  0.8694744110208322  0.45353786797257095  1.0000
  N   N14       1.0  0.9303955839724266  0.7591730058989584  0.3583420093844153  1.0000
  N   N15       1.0  0.6328280862101605  0.6303195892518404  0.2499530871103914  1.0000
  N   N16       1.0  0.5641064745151496  0.5160806324024279  0.191973124329671  1.0000
  N   N17       1.0  0.7182410677387165  0.5486743468527422  0.22992507297928458  1.0000
  N   N18       1.0  0.3012846288614314  0.622321162331197  0.21834648369576118  1.0000
  N   N19       1.0  0.6941348750169071  0.32522298621010753  0.1068482506691524  1.0000
  N   N20       1.0  0.5183418192012895  0.7167092205415246  0.6751110729635029  1.0000
  N   N21       1.0  0.6976190266764277  0.8509512265445522  0.560416871464426  1.0000
  N   N22       1.0  0.7002319362234742  0.9528451780231464  0.5276408254557052  1.0000
  N   N23       1.0  0.5973950130970138  0.9192927663657856  0.5848269123244236  1.0000
  N   N24       1.0  0.5463577901922322  0.14671308507083583  0.5507081616548106  1.0000
  N   N25       1.0  0.04734183475724051  0.13052297265006985  0.5464627848750823  1.0000
  N   N26       1.0  0.0696044431465168  0.24082903978339235  0.6416586157494348  1.0000
  N   N27       1.0  0.367171359161958  0.36968129269475736  0.7500467419520402  1.0000
  N   N28       1.0  0.4358936379658047  0.48392024884501705  0.8080270259150736  1.0000
  N   N29       1.0  0.2817596273595129  0.45132769955952073  0.7700752309017176  1.0000
  N   N30       1.0  0.6987145252020425  0.3776791370329917  0.7816532685485384  1.0000
  N   N31       1.0  0.30586523572315377  0.6747778921792077  0.8931531844459142  1.0000
  N   N32       1.0  0.4816588384982197  0.28328874641093205  0.32488933551995547  1.0000
  N   N33       1.0  0.3023800041911003  0.14904615708020696  0.439583781489027  1.0000
  N   N34       1.0  0.29976671971429875  0.04715279031223932  0.47235894069839884  1.0000
  N   N35       1.0  0.4026043112552671  0.0807052034140412  0.41517221135924837  1.0000
  N   N36       1.0  0.45364286794250575  0.8532848825961569  0.449291925611071  1.0000
  N   N37       1.0  0.08299297802707879  0.13060753860057162  0.04642243534151191  1.0000
  N   N38       1.0  0.17112236155662694  0.24079804476751587  0.141590670042639  1.0000
  N   N39       1.0  0.0025369027280390814  0.369606841202618  0.2500408788234764  1.0000
  N   N40       1.0  0.04797551392886843  0.4838324485589283  0.30801877522704046  1.0000
  N   N41       1.0  0.16959561159654876  0.45124027851125714  0.27011813573898275  1.0000
  N   N42       1.0  0.6790072875844686  0.3775897015496242  0.28172062426414607  1.0000
  N   N43       1.0  0.3688215854804895  0.6748363437306255  0.39308312427611003  1.0000
  N   N44       1.0  0.8019241842444983  0.28339531179238975  0.8249337227310247  1.0000
  N   N45       1.0  0.8466276624370083  0.14901883852833467  0.9395118861294377  1.0000
  N   N46       1.0  0.7473130465946553  0.0470359804704827  0.9722253796520091  1.0000
  N   N47       1.0  0.6780922947326217  0.08060539736739263  0.9150527547374235  1.0000
  N   N48       1.0  0.39960035527702337  0.8530986748176518  0.9492524220469106  1.0000
