data_image0
_chemical_formula_structural       Zn12H24C36N48O12
_chemical_formula_sum              "Zn12 H24 C36 N48 O12"
_cell_length_a       10.99220109921613
_cell_length_b       11.011609585947987
_cell_length_c       13.4044
_cell_angle_alpha    99.89330198196637
_cell_angle_beta     105.63033110009286
_cell_angle_gamma    118.56314811277238

_space_group_name_H-M_alt    "P 1"
_space_group_IT_number       1

loop_
  _space_group_symop_operation_xyz
  'x, y, z'

loop_
  _atom_site_type_symbol
  _atom_site_label
  _atom_site_symmetry_multiplicity
  _atom_site_fract_x
  _atom_site_fract_y
  _atom_site_fract_z
  _atom_site_occupancy
  Zn  Zn1       1.0  0.32212319881445234  0.4008831082567497  0.49802065840984977  1.0000
  Zn  Zn2       1.0  0.4027240537410819  0.8224258694026503  0.9996392680332988  1.0000
  Zn  Zn3       1.0  0.6778779059455999  0.5991166592170671  0.501979030644307  1.0000
  Zn  Zn4       1.0  0.5972770510189704  0.17757389807116644  0.0003611670445521542  1.0000
  Zn  Zn5       1.0  0.6110105440859144  0.5436190084462637  0.7127236577855243  1.0000
  Zn  Zn6       1.0  0.3329535659337779  0.8987977785809349  0.7867119948896857  1.0000
  Zn  Zn7       1.0  0.3889921319763303  0.45638186524156765  0.2872765345740547  1.0000
  Zn  Zn8       1.0  0.6670475388262744  0.1012019888928819  0.21328844018816537  1.0000
  Zn  Zn9       1.0  0.02857942439010231  0.3769556991759941  0.253810101079047  1.0000
  Zn  Zn10      1.0  0.6222740728391898  0.7748498171721749  0.24568410468738486  1.0000
  Zn  Zn11      1.0  0.9714207357002351  0.6230440682978227  0.7461908713031634  1.0000
  Zn  Zn12      1.0  0.37772608725114754  0.22514995030164187  0.7543168676948183  1.0000
  H   H1        1.0  0.7186019907821689  0.9077901922849348  0.6147452672005684  1.0000
  H   H2        1.0  0.7945917621488974  0.10553392296409209  0.8870003522767362  1.0000
  H   H3        1.0  0.2813972246384395  0.0922095751888818  0.3852569885096884  1.0000
  H   H4        1.0  0.20540807990417415  0.8944669507237392  0.11299995994853163  1.0000
  H   H5        1.0  0.14230331209071778  0.22782698821081476  0.6116466131540507  1.0000
  H   H6        1.0  0.11599209662029607  0.529625401193762  0.8862312980581635  1.0000
  H   H7        1.0  0.8576940234325148  0.7721694606209581  0.388352520726869  1.0000
  H   H8        1.0  0.8840042942332076  0.4703710476380181  0.11376315096125475  1.0000
  H   H9        1.0  0.8055843700334009  0.3261804760226568  0.5974005035025982  1.0000
  H   H10       1.0  0.2309316900628033  0.20975366368185888  0.9024668087402503  1.0000
  H   H11       1.0  0.19441359212228798  0.6738170790231379  0.40260041701179006  1.0000
  H   H12       1.0  0.7690684700275341  0.7902461037919578  0.09753267159457125  1.0000
  H   H13       1.0  0.431784660718776  0.2678133061045784  0.5839719118094989  1.0000
  H   H14       1.0  0.18654125556358986  0.8491586372179754  0.9156977732219148  1.0000
  H   H15       1.0  0.5682186419759178  0.7321886737972605  0.4160285751361741  1.0000
  H   H16       1.0  0.8134595311592037  0.150842236469849  0.08430274772268834  1.0000
  H   H17       1.0  0.3072934573400516  0.5848265866093314  0.40729681869215273  1.0000
  H   H18       1.0  0.6785693161267758  0.901292291178116  0.09503192970844046  1.0000
  H   H19       1.0  0.692709218722193  0.4151742870784929  0.5927041196911205  1.0000
  H   H20       1.0  0.3214314705960177  0.0987085825097083  0.9049678452124681  1.0000
  H   H21       1.0  0.5226684350880787  0.6875186457764499  0.6159378585320638  1.0000
  H   H22       1.0  0.5741524028550984  0.9085037003227043  0.8857043857930121  1.0000
  H   H23       1.0  0.4773332963044368  0.3124822279113744  0.3840628711318744  1.0000
  H   H24       1.0  0.42584901050015844  0.0914982795791346  0.1142964297376778  1.0000
  C   C1        1.0  0.7897710573763917  0.011921668407922  0.6056213545181707  1.0000
  C   C2        1.0  0.9079281169042799  0.18558067509042078  0.8952576464670301  1.0000
  C   C3        1.0  0.21022815804421674  0.9880780990658948  0.39438090119208624  1.0000
  C   C4        1.0  0.0920701538466062  0.8144190923833889  0.104739178358038  1.0000
  C   C5        1.0  0.9889214909943431  0.960673859345249  0.6251984122830265  1.0000
  C   C6        1.0  0.8363911296365174  0.3644267192754569  0.8749905465361748  1.0000
  C   C7        1.0  0.011078042463530799  0.0393248019145531  0.3748037575604783  1.0000
  C   C8        1.0  0.16360714111436878  0.6355730481983597  0.1250055322651988  1.0000
  C   C9        1.0  0.9315229158233438  0.0529566771851151  0.6065793944572136  1.0000
  C   C10       1.0  0.9474489544759666  0.3256030323083649  0.8932710539501657  1.0000
  C   C11       1.0  0.0684766176345305  0.947041984074687  0.3934235214099857  1.0000
  C   C12       1.0  0.05254963431218579  0.6743956289514372  0.10672493898445622  1.0000
  C   C13       1.0  0.9827273725006763  0.2903933465186554  0.6016471506178291  1.0000
  C   C14       1.0  0.18978033758279622  0.3813993608624173  0.8969671115662479  1.0000
  C   C15       1.0  0.017273105626912876  0.7096053147411467  0.3983529898739349  1.0000
  C   C16       1.0  0.8102173065356267  0.6185993003973849  0.10302941867273321  1.0000
  C   C17       1.0  0.09301791174200959  0.44179532727860493  0.6169539821787637  1.0000
  C   C18       1.0  0.3252477800269773  0.4760569876599803  0.8813611218862221  1.0000
  C   C19       1.0  0.9069825663855867  0.5582033339811971  0.38304690433669464  1.0000
  C   C20       1.0  0.674750490723916  0.5239427798138294  0.11863570293884612  1.0000
  C   C21       1.0  0.028791421655981305  0.1926538074835094  0.605450477449395  1.0000
  C   C22       1.0  0.08775402856974777  0.42315562117547495  0.8930793587206124  1.0000
  C   C23       1.0  0.9712074851694298  0.8073437475622851  0.39455065178432863  1.0000
  C   C24       1.0  0.9122436155486825  0.5768430400843272  0.1069156794709798  1.0000
  C   C25       1.0  0.744977496058212  0.11136367080762  0.6036479253842444  1.0000
  C   C26       1.0  0.009679191336267903  0.14306665817911576  0.8970995205193759  1.0000
  C   C27       1.0  0.2550242353343037  0.8886372028802043  0.39635355030338815  1.0000
  C   C28       1.0  0.9903190794146255  0.856933109294701  0.1028980503293866  1.0000
  C   C29       1.0  0.8397643173467628  0.2486293427075168  0.598432662710671  1.0000
  C   C30       1.0  0.152060089566092  0.2426878672487689  0.90127702753027  1.0000
  C   C31       1.0  0.16023584274356753  0.7513704247663  0.4015683096715393  1.0000
  C   C32       1.0  0.8479381811847945  0.7573119002250479  0.09871979729479828  1.0000
  C   C33       1.0  0.6122566935980842  0.0799527239353068  0.6254089050103956  1.0000
  C   C34       1.0  0.9565329331917666  0.9884276626937023  0.8755920136553713  1.0000
  C   C35       1.0  0.3877434570501919  0.9200503621805396  0.3745917876677042  1.0000
  C   C36       1.0  0.04346879820074889  0.011573210994122  0.12440871600856698  1.0000
  N   N1        1.0  0.9061865671944102  0.8140706349695959  0.6058297351434305  1.0000
  N   N2        1.0  0.7095401561191963  0.3020384614235567  0.8943334224493356  1.0000
  N   N3        1.0  0.0938139109331857  0.1859280262902132  0.3941711513720279  1.0000
  N   N4        1.0  0.29046032200839983  0.6979601998362455  0.10566522599503972  1.0000
  N   N5        1.0  0.1443929885098854  0.9002690432169657  0.6852302303998599  1.0000
  N   N6        1.0  0.7152900572000505  0.4589726184577998  0.8151676496673518  1.0000
  N   N7        1.0  0.8556081162501741  0.0997307242568439  0.31477020467799116  1.0000
  N   N8        1.0  0.2847088401832991  0.5410282552300245  0.18483319986226832  1.0000
  N   N9        1.0  0.1385221489746584  0.0160920952333683  0.6747035351712612  1.0000
  N   N10       1.0  0.8418223946264123  0.4634660597747668  0.8258240528739976  1.0000
  N   N11       1.0  0.8614780111156791  0.9839076722404485  0.32529743721094934  1.0000
  N   N12       1.0  0.1581768207941963  0.5365337076990428  0.1741752187414889  1.0000
  N   N13       1.0  0.21521198486145465  0.48625185599508564  0.5918967220548126  1.0000
  N   N14       1.0  0.39428766129034903  0.6236038125879233  0.906118004602007  1.0000
  N   N15       1.0  0.7847875485964195  0.5137468052647165  0.4081039557413106  1.0000
  N   N16       1.0  0.6057124987999813  0.3763959548858935  0.09388147573281459  1.0000
  N   N17       1.0  0.008140472340919407  0.7810601026358482  0.6450847576510981  1.0000
  N   N18       1.0  0.6366664113353124  0.3640284822311131  0.8551408581787427  1.0000
  N   N19       1.0  0.9918606324191402  0.2189396648379613  0.354915677426753  1.0000
  N   N20       1.0  0.3633328040853029  0.6359712852426964  0.144859159460438  1.0000
  N   N21       1.0  0.22571167087505725  0.6779432572880992  0.6767074033149569  1.0000
  N   N22       1.0  0.5009241581515481  0.5489067114238821  0.8221809603376896  1.0000
  N   N23       1.0  0.7742869179130949  0.3220554039717029  0.323293065761824  1.0000
  N   N24       1.0  0.4990791445431526  0.4510952684779568  0.1778202726316707  1.0000
  N   N25       1.0  0.2952060807443218  0.634413735913725  0.6298198731550002  1.0000
  N   N26       1.0  0.504117232432904  0.665637732617995  0.8685848061424082  1.0000
  N   N27       1.0  0.7047934527135524  0.3655849253460772  0.3701800586174286  1.0000
  N   N28       1.0  0.4958844989596187  0.3343631410698293  0.13141592352153716  1.0000
  N   N29       1.0  0.09738713392774659  0.5603958501530926  0.670175015548942  1.0000
  N   N30       1.0  0.3904171187803129  0.4269034742483129  0.8286039116786199  1.0000
  N   N31       1.0  0.9026123995301205  0.4396028111067096  0.3298264082708755  1.0000
  N   N32       1.0  0.6095836679424808  0.5730973994395114  0.17139511721859446  1.0000
  N   N33       1.0  0.5530212597749441  0.1628203217923883  0.6246373706137831  1.0000
  N   N34       1.0  0.040924225614510513  0.9308270990859809  0.8757407029144987  1.0000
  N   N35       1.0  0.44697983554304693  0.8371827643234653  0.37536353078365886  1.0000
  N   N36       1.0  0.959076561108283  0.06917377460184328  0.1242598180301044  1.0000
  N   N37       1.0  0.5465264880480376  0.9718079033765861  0.6649627383055403  1.0000
  N   N38       1.0  0.8076435370963964  0.881626018471799  0.8362812116132617  1.0000
  N   N39       1.0  0.4534746072699535  0.0281951827392675  0.3350374170682073  1.0000
  N   N40       1.0  0.1923581942961192  0.1183748552160253  0.1637187720269822  1.0000
  N   N41       1.0  0.4460904566085588  0.9899608753144093  0.689206316335131  1.0000
  N   N42       1.0  0.8015547711575408  0.7568030417794986  0.8116347356403965  1.0000
  N   N43       1.0  0.5539093854445127  0.010039998373415  0.3107932498664354  1.0000
  N   N44       1.0  0.1984469602349748  0.2431978319083257  0.18836599402354182  1.0000
  N   N45       1.0  0.448908663592988  0.1032473786011678  0.6656514123917034  1.0000
  N   N46       1.0  0.9394567450237404  0.7845712259101134  0.8346249398853447  1.0000
  N   N47       1.0  0.5510911784600836  0.8967534950866565  0.3343488998335644  1.0000
  N   N48       1.0  0.06054498636877531  0.2154296477777109  0.1653757897785937  1.0000
  O   O1        1.0  0.5345739332473727  0.6077827397875026  0.5872415672487534  1.0000
  O   O2        1.0  0.5222291627573412  0.9483816092432916  0.9136444475691406  1.0000
  O   O3        1.0  0.4654268534754209  0.3922181339003217  0.4127582076721552  1.0000
  O   O4        1.0  0.47777162396545947  0.0516192644445397  0.08635607337546249  1.0000
  O   O5        1.0  0.2515405315611261  0.4775039155877536  0.37349536755640866  1.0000
  O   O6        1.0  0.6024879353259749  0.8772354550579491  0.12587711469262083  1.0000
  O   O7        1.0  0.7484596285292042  0.5224958518860632  0.6265056048258018  1.0000
  O   O8        1.0  0.3975112800946334  0.1227643124158604  0.8741221569228655  1.0000
  O   O9        1.0  0.4009595575967709  0.3256616616510044  0.6212151815228425  1.0000
  O   O10       1.0  0.2042229439643677  0.77910431626254  0.8773527072724434  1.0000
  O   O11       1.0  0.5990462516277688  0.6743447431068859  0.3787857377434776  1.0000
  O   O12       1.0  0.7957772161259697  0.2208954512112768  0.12264751908607252  1.0000
