data_image0
_chemical_formula_structural       Ag2H20C20S2N4O6
_chemical_formula_sum              "Ag2 H20 C20 S2 N4 O6"
_cell_length_a       5.240772723629535
_cell_length_b       10.379484767720676
_cell_length_c       12.385666257981999
_cell_angle_alpha    83.25247011499047
_cell_angle_beta     80.5679660966612
_cell_angle_gamma    80.54058904264481

_space_group_name_H-M_alt    "P 1"
_space_group_IT_number       1

loop_
  _space_group_symop_operation_xyz
  'x, y, z'

loop_
  _atom_site_type_symbol
  _atom_site_label
  _atom_site_symmetry_multiplicity
  _atom_site_fract_x
  _atom_site_fract_y
  _atom_site_fract_z
  _atom_site_occupancy
  Ag  Ag1       1.0  0.21583766882715583  0.4091926952841901  0.8517550988007937  1.0000
  Ag  Ag2       1.0  0.7841667356116132  0.5908089857624288  0.148243210442395  1.0000
  H   H1        1.0  0.6644996635997346  0.5116178220011702  0.4010715583086934  1.0000
  H   H2        1.0  0.33550440883552574  0.4883789766090629  0.5989305231041582  1.0000
  H   H3        1.0  0.8346857664839862  0.3485796229757482  0.5502203660025271  1.0000
  H   H4        1.0  0.16533369363806827  0.6514172001157303  0.4497781375158708  1.0000
  H   H5        1.0  0.24103359254419843  0.19167000247053068  0.5000313434839538  1.0000
  H   H6        1.0  0.7589799514742166  0.8083267686811694  0.4999635713940618  1.0000
  H   H7        1.0  0.44677740515983533  0.19285334389345363  0.30078050506882886  1.0000
  H   H8        1.0  0.5532219387214498  0.807145328441507  0.6992128498055903  1.0000
  H   H9        1.0  0.3354888922060866  0.4506205279837018  0.10054947925513595  1.0000
  H   H10       1.0  0.6645183239525778  0.549378208950223  0.8994481238363078  1.0000
  H   H11       1.0  0.43905138940966987  0.2777385311348438  0.11226601164495516  1.0000
  H   H12       1.0  0.5609519857750983  0.7222602014240491  0.8877326871589158  1.0000
  H   H13       1.0  0.8603566230316062  0.1588611295774172  0.010895423215110568  1.0000
  H   H14       1.0  0.13962737236627734  0.8411444533402415  0.989108039014077  1.0000
  H   H15       1.0  0.9270337552210675  0.14309019468780088  0.14906941861354986  1.0000
  H   H16       1.0  0.0729532018133625  0.8569183423956515  0.8509335086763767  1.0000
  H   H17       1.0  0.31727385049573087  0.010957697428686696  0.19738614158760726  1.0000
  H   H18       1.0  0.6827094166909973  0.989043956064698  0.8026177915962831  1.0000
  H   H19       1.0  0.2581663703737647  0.12852934158505033  0.8556529552925409  1.0000
  H   H20       1.0  0.7418135865511671  0.8714703247168671  0.14434982152612005  1.0000
  C   C1        1.0  0.8358652505001343  0.43779870189064246  0.38334784528952776  1.0000
  C   C2        1.0  0.16414678113457626  0.5621971175519958  0.6166513211372757  1.0000
  C   C3        1.0  0.9334185082801767  0.3491885306197203  0.4656372740495056  1.0000
  C   C4        1.0  0.06658596753218397  0.6508131713702311  0.5343634500593877  1.0000
  C   C5        1.0  0.15771361493808908  0.26037886677701033  0.436864681171535  1.0000
  C   C6        1.0  0.8423047207651705  0.7396149799022921  0.5631309920866128  1.0000
  C   C7        1.0  0.271845059480313  0.26113180679706005  0.32674942258130096  1.0000
  C   C8        1.0  0.7281486300005182  0.738866890390362  0.6732491981602988  1.0000
  C   C9        1.0  0.1593909428834124  0.3510303824759759  0.24840572194668906  1.0000
  C   C10       1.0  0.8406126857618121  0.6489673551841405  0.7515914483407399  1.0000
  C   C11       1.0  0.2713923702417276  0.35485998318615225  0.1286030505192031  1.0000
  C   C12       1.0  0.7286084704747893  0.645140705567769  0.8713956308752056  1.0000
  C   C13       1.0  0.007628112657684489  0.1662865497724653  0.06263258381794397  1.0000
  C   C14       1.0  0.9923600009657464  0.8337180496025594  0.9373690591376157  1.0000
  C   C15       1.0  0.26053791925805575  0.08021454828501358  0.0302563465114005  1.0000
  C   C16       1.0  0.7394456727627202  0.9197861312529337  0.969748473021745  1.0000
  C   C17       1.0  0.3985927868107808  0.0070073161707000986  0.11062291479506567  1.0000
  C   C18       1.0  0.601396578566444  0.9929933734203471  0.8893806636470669  1.0000
  C   C19       1.0  0.3645096613981806  0.0725397179576106  0.9190550712326481  1.0000
  C   C20       1.0  0.635471673406009  0.9274619298576992  0.08094900732983495  1.0000
  S   S1        1.0  0.029255259221791608  0.3418879691078941  0.04240802616538281  1.0000
  S   S2        1.0  0.9707462383322819  0.6581166281269686  0.9575877694086257  1.0000
  N   N1        1.0  0.9455998551897054  0.4390507898406851  0.27735754791856937  1.0000
  N   N2        1.0  0.05439171982172299  0.560948917510771  0.722645161583763  1.0000
  N   N3        1.0  0.7487531080477152  0.28728160009394793  0.7686257660800988  1.0000
  N   N4        1.0  0.2512536011900437  0.7127191266375303  0.23137489404422953  1.0000
  O   O1        1.0  0.6891620810140607  0.32639930316100413  0.8654556753170578  1.0000
  O   O2        1.0  0.31083883107605476  0.6736014065362493  0.13454542094304142  1.0000
  O   O3        1.0  0.5720704254131519  0.30553345397160564  0.7066931773177456  1.0000
  O   O4        1.0  0.427941106470108  0.6944702116604019  0.2933043876230171  1.0000
  O   O5        1.0  0.9762754791195005  0.23313811871967258  0.7362216271754674  1.0000
  O   O6        1.0  0.023733558708450297  0.7668616606777687  0.2637821887852211  1.0000
