data_image0
_chemical_formula_structural       Ag2H22C22N10O4
_chemical_formula_sum              "Ag2 H22 C22 N10 O4"
_cell_length_a       8.888794937719975
_cell_length_b       9.22944620575903
_cell_length_c       9.885592905559196
_cell_angle_alpha    69.68731064029788
_cell_angle_beta     69.20976439329867
_cell_angle_gamma    69.64733467835306

_space_group_name_H-M_alt    "P 1"
_space_group_IT_number       1

loop_
  _space_group_symop_operation_xyz
  'x, y, z'

loop_
  _atom_site_type_symbol
  _atom_site_label
  _atom_site_symmetry_multiplicity
  _atom_site_fract_x
  _atom_site_fract_y
  _atom_site_fract_z
  _atom_site_occupancy
  Ag  Ag1       1.0  0.823920317692654  0.022829468171792683  0.5513666091800572  1.0000
  Ag  Ag2       1.0  0.1760779786391354  0.9771630018500443  0.4486449960092642  1.0000
  H   H1        1.0  0.5971685147507629  0.30851168485003905  0.5999839165998253  1.0000
  H   H2        1.0  0.4028352700867117  0.6914830901120085  0.40001611069019566  1.0000
  H   H3        1.0  0.38651880225334173  0.41299662136925974  0.6593601419458679  1.0000
  H   H4        1.0  0.6134842850612614  0.5869958715929826  0.34063778329288397  1.0000
  H   H5        1.0  0.5096006632351193  0.6937267307973869  0.6749907300626319  1.0000
  H   H6        1.0  0.49039598890472286  0.30627301507994537  0.32501306735892405  1.0000
  H   H7        1.0  0.6908048592448709  0.7591526457644875  0.6252759875572027  1.0000
  H   H8        1.0  0.30919689880556694  0.24083507829500667  0.37472890494274214  1.0000
  H   H9        1.0  0.03961818767894707  0.8509737811883722  0.7984442532399569  1.0000
  H   H10       1.0  0.9603759503765235  0.14903185451876055  0.20156559790279976  1.0000
  H   H11       1.0  0.7337567426421218  0.8754251727594634  0.8937944988700792  1.0000
  H   H12       1.0  0.2662371154012177  0.12458169421780947  0.1062130353995272  1.0000
  H   H13       1.0  0.54026308769663  0.12518860072578514  0.9619280350422487  1.0000
  H   H14       1.0  0.45973289277133494  0.8748301920870319  0.03806499327276916  1.0000
  H   H15       1.0  0.6530813527660301  0.34694362314797184  0.9381681462253298  1.0000
  H   H16       1.0  0.34692326902333565  0.6530795817994884  0.06181872205156945  1.0000
  H   H17       1.0  0.9595401664393036  0.3204320701563574  0.8421954078470792  1.0000
  H   H18       1.0  0.040479833848522204  0.6795655847847755  0.15779853676549752  1.0000
  H   H19       1.0  0.8233042041876361  0.49561734477091324  0.6019997620333726  1.0000
  H   H20       1.0  0.17668641133782614  0.5043876944252828  0.39798712069723763  1.0000
  H   H21       1.0  0.8713099761194488  0.5770403539657848  0.40706565950362245  1.0000
  H   H22       1.0  0.12869131156417524  0.4229547261945327  0.5929239429268307  1.0000
  C   C1        1.0  0.017393684074896512  0.08593547203105349  0.8114011432750132  1.0000
  C   C2        1.0  0.9826047327802743  0.9140725001363066  0.18859851879904  1.0000
  C   C3        1.0  0.9533406401821981  0.9600519439505463  0.8267710388807856  1.0000
  C   C4        1.0  0.04665597607677801  0.03994791369212441  0.1732266650696488  1.0000
  C   C5        1.0  0.7821765186155717  0.97439159606489  0.8807527554253485  1.0000
  C   C6        1.0  0.2178178824768153  0.025623565977532802  0.1192500011703146  1.0000
  C   C7        1.0  0.6738570284846335  0.11393290895877332  0.919987579997695  1.0000
  C   C8        1.0  0.32614274155527323  0.8860797576011024  0.08000917712925572  1.0000
  C   C9        1.0  0.7372198479665927  0.2389220634952096  0.9057191575875477  1.0000
  C   C10       1.0  0.26277887378650183  0.7610953046145356  0.09428051898905919  1.0000
  C   C11       1.0  0.9078979282060619  0.22507454763105977  0.8518652552700702  1.0000
  C   C12       1.0  0.09210760938645275  0.7749284908761213  0.148128605515403  1.0000
  C   C13       1.0  0.41812705194269034  0.1791269073875199  0.6812420062225755  1.0000
  C   C14       1.0  0.5818694447581194  0.8208681498323998  0.3187612761584546  1.0000
  C   C15       1.0  0.19876720925806526  0.07067334413127918  0.755534441540874  1.0000
  C   C16       1.0  0.8012350499804199  0.9293228053862636  0.2444585642354794  1.0000
  C   C17       1.0  0.4622975885921294  0.9191834593250973  0.6851049358614887  1.0000
  C   C18       1.0  0.5377117505326083  0.08081341567402937  0.3148946848929555  1.0000
  C   C19       1.0  0.9465446010272274  0.3225668660338599  0.47849794534302964  1.0000
  C   C20       1.0  0.05346227084437775  0.6774302210257587  0.5214963284444566  1.0000
  C   C21       1.0  0.9218545360248529  0.48546573226869333  0.49784914167798194  1.0000
  C   C22       1.0  0.07813627487022506  0.5145224617464946  0.5021580945121613  1.0000
  N   N1        1.0  0.29701207516950506  0.931255901678696  0.726554325449314  1.0000
  N   N2        1.0  0.7029807924133281  0.0687392501012596  0.2734531234235148  1.0000
  N   N3        1.0  0.2520153115075203  0.1973342894646706  0.7369803121221139  1.0000
  N   N4        1.0  0.7479928119310915  0.8026626356820329  0.26301968188441543  1.0000
  N   N5        1.0  0.530349244118689  0.0403193787864922  0.6587163968063763  1.0000
  N   N6        1.0  0.4696540275704565  0.9596670079726195  0.3412934860501907  1.0000
  N   N7        1.0  0.47335620006762713  0.30998357490155837  0.6450646035423802  1.0000
  N   N8        1.0  0.5266474592315333  0.690006418265284  0.3549399865997032  1.0000
  N   N9        1.0  0.5645284445327549  0.7751835645651396  0.6705621882134025  1.0000
  N   N10       1.0  0.43546550721775645  0.22480677389960144  0.32944843468089163  1.0000
  O   O1        1.0  0.8154876787651304  0.2817718517292818  0.4982514521455954  1.0000
  O   O2        1.0  0.1845165644341691  0.718220777360962  0.5017359440558735  1.0000
  O   O3        1.0  0.09433661529163831  0.23630586772151224  0.44408375121141563  1.0000
  O   O4        1.0  0.9056574739574759  0.763689215283314  0.555924339987854  1.0000
