data_image0
_chemical_formula_structural       Zn6H42C30N18O12
_chemical_formula_sum              "Zn6 H42 C30 N18 O12"
_cell_length_a       11.24289141936703
_cell_length_b       12.251552311209087
_cell_length_c       12.250784175561625
_cell_angle_alpha    111.08163458644397
_cell_angle_beta     107.79831060453786
_cell_angle_gamma    107.82900886520443

_space_group_name_H-M_alt    "P 1"
_space_group_IT_number       1

loop_
  _space_group_symop_operation_xyz
  'x, y, z'

loop_
  _atom_site_type_symbol
  _atom_site_label
  _atom_site_symmetry_multiplicity
  _atom_site_fract_x
  _atom_site_fract_y
  _atom_site_fract_z
  _atom_site_occupancy
  Zn  Zn1       1.0  0.6310860690294149  0.47752113287607767  0.9421948150870848  1.0000
  Zn  Zn2       1.0  0.15360578413525863  0.46473741173833355  0.5226651873061954  1.0000
  Zn  Zn3       1.0  0.6888179094866729  0.05783848987427121  0.5352802162025514  1.0000
  Zn  Zn4       1.0  0.36891560201258494  0.5224792297501254  0.05780655282073614  1.0000
  Zn  Zn5       1.0  0.846392591139846  0.5352619604943669  0.4773340782815867  1.0000
  Zn  Zn6       1.0  0.3111832644048816  0.9421608826386884  0.46472147234189987  1.0000
  H   H1        1.0  0.19131233070141457  0.6003191799881265  0.9308398898800194  1.0000
  H   H2        1.0  0.18137550231185168  0.6579657044682818  0.8159898498841331  1.0000
  H   H3        1.0  0.06992084146592961  0.49240254765161506  0.7599211175643108  1.0000
  H   H4        1.0  0.5741321819581626  0.44363150719836847  0.6877693159035944  1.0000
  H   H5        1.0  0.4069486553974855  0.3672491824116833  0.5438719080971454  1.0000
  H   H6        1.0  0.5228382107866024  0.5374459336971213  0.6204193437839154  1.0000
  H   H7        1.0  0.9609162829845203  0.7883005274461112  0.06517354986008442  1.0000
  H   H8        1.0  0.5909434705045413  0.3306211526703962  0.39992985861133695  1.0000
  H   H9        1.0  0.5232236467713848  0.15808913838247213  0.34226032541528895  1.0000
  H   H10       1.0  0.5775291785797662  0.26761588769940653  0.5078572469701471  1.0000
  H   H11       1.0  0.130398129829274  0.24434693259600956  0.5564166998892334  1.0000
  H   H12       1.0  0.039609559254785195  0.1767691764916179  0.6328027727673488  1.0000
  H   H13       1.0  0.9853081391323572  0.08309934312606522  0.46262945210236256  1.0000
  H   H14       1.0  0.17246008636985977  0.27696501005225843  0.2119234273246137  1.0000
  H   H15       1.0  0.26038769360142305  0.0693417778387797  0.6694872628323054  1.0000
  H   H16       1.0  0.36521609783969927  0.1842135629057751  0.8419799389687344  1.0000
  H   H17       1.0  0.3099434299359416  0.2402647591211533  0.7324779991366982  1.0000
  H   H18       1.0  0.886237007562812  0.3120895158928363  0.7556721739255322  1.0000
  H   H19       1.0  0.8631750041324509  0.45609944099012273  0.8232831813979261  1.0000
  H   H20       1.0  0.9024679246367953  0.379557583485763  0.9169273938074058  1.0000
  H   H21       1.0  0.8957173938577512  0.9352002585210429  0.7232697097977266  1.0000
  H   H22       1.0  0.8086849941982663  0.3996762319230669  0.06915929069570839  1.0000
  H   H23       1.0  0.8186237450759464  0.3420316877295378  0.18401140037999414  1.0000
  H   H24       1.0  0.9300788530212356  0.5075938546071941  0.24007663866575527  1.0000
  H   H25       1.0  0.4258665722948435  0.5563648949147366  0.31223062358908044  1.0000
  H   H26       1.0  0.5930500968476977  0.6327472196871611  0.4561288470995707  1.0000
  H   H27       1.0  0.4771591181287249  0.4625494782425933  0.379578205383723  1.0000
  H   H28       1.0  0.03909006915006332  0.21169983576601947  0.934825058775154  1.0000
  H   H29       1.0  0.40905677519977957  0.6693782197824164  0.6000691189714547  1.0000
  H   H30       1.0  0.476771430729009  0.8419092434424654  0.6577376535565025  1.0000
  H   H31       1.0  0.42246875762726427  0.7323844745293471  0.4921422498355313  1.0000
  H   H32       1.0  0.8696003015203715  0.7556544197317194  0.4435832919838633  1.0000
  H   H33       1.0  0.960390245373631  0.8232311859429869  0.36719725173738044  1.0000
  H   H34       1.0  0.014692661804765902  0.9169029995492723  0.5373691154250724  1.0000
  H   H35       1.0  0.8275460029515429  0.723042283498053  0.7880743285682714  1.0000
  H   H36       1.0  0.7396134863135941  0.9306575947169621  0.33051197860001486  1.0000
  H   H37       1.0  0.6347836466985372  0.8157848194052807  0.15802099065876993  1.0000
  H   H38       1.0  0.690057248812991  0.7597336232928315  0.2675231943403277  1.0000
  H   H39       1.0  0.11376422641892253  0.6879118367436733  0.24432860949613677  1.0000
  H   H40       1.0  0.13682293809803533  0.5439009212814058  0.17671386829562158  1.0000
  H   H41       1.0  0.09753342350184369  0.6204477293550639  0.08307402648084415  1.0000
  H   H42       1.0  0.10428348911115386  0.0648060441304636  0.2767425458609765  1.0000
  C   C1        1.0  0.1769334199893535  0.5739759832500724  0.8307157830823897  1.0000
  C   C2        1.0  0.285326790270787  0.537486628826592  0.8103715093509865  1.0000
  C   C3        1.0  0.4179764025899998  0.48701568559116737  0.7275337960561004  1.0000
  C   C4        1.0  0.4838428712029382  0.4565034868245945  0.6401822970351462  1.0000
  C   C5        1.0  0.8537323978007618  0.7209403912717746  0.04301198517571684  1.0000
  C   C6        1.0  0.6028645101886025  0.2568138045401938  0.42621876082794335  1.0000
  C   C7        1.0  0.7477191842437705  0.2728973721656303  0.4625953508134586  1.0000
  C   C8        1.0  0.9308565035963311  0.2405854915154535  0.513022139565571  1.0000
  C   C9        1.0  0.027228215930293207  0.1837897355025362  0.5435516079574115  1.0000
  C   C10       1.0  0.13279957465325506  0.32221647739383735  0.2793966725002832  1.0000
  C   C11       1.0  0.3461373964292278  0.16946527311122137  0.7432677246611165  1.0000
  C   C12       1.0  0.47490293086273994  0.18978926921568018  0.7271511049758106  1.0000
  C   C13       1.0  0.690427726573553  0.2725094566920632  0.7594819245092311  1.0000
  C   C14       1.0  0.8436379182917335  0.3597881687716935  0.8162463058678214  1.0000
  C   C15       1.0  0.8107073801651623  0.957298095741173  0.6780422360988682  1.0000
  C   C16       1.0  0.823066326556706  0.42602239907524353  0.169284330841073  1.0000
  C   C17       1.0  0.7146734514178873  0.4625127435977062  0.18962909963989466  1.0000
  C   C18       1.0  0.5820219166105645  0.5129817065465048  0.27246474324637404  1.0000
  C   C19       1.0  0.5161535755605866  0.5434939050787049  0.3598173459763672  1.0000
  C   C20       1.0  0.14627401040836216  0.27906195203539136  0.9569873497448287  1.0000
  C   C21       1.0  0.39713392116104274  0.7431875477875353  0.5737812310451534  1.0000
  C   C22       1.0  0.2522777616780161  0.7271010098651659  0.5374031558573834  1.0000
  C   C23       1.0  0.06914330103208492  0.7594148709191515  0.48697788493915806  1.0000
  C   C24       1.0  0.9727720858485681  0.8162116170453048  0.4564480959106947  1.0000
  C   C25       1.0  0.8671979906071455  0.6777868550115472  0.7205988875843375  1.0000
  C   C26       1.0  0.6538632823197119  0.8305331093027634  0.2567334688159166  1.0000
  C   C27       1.0  0.525099672382133  0.8102110934991915  0.27285134248558773  1.0000
  C   C28       1.0  0.30957394848407926  0.7274909059626609  0.24051781199050043  1.0000
  C   C29       1.0  0.15636145128424772  0.6402131836874789  0.18375231844670756  1.0000
  C   C30       1.0  0.1892896057686073  0.04270226627057381  0.32196352248963234  1.0000
  N   N1        1.0  0.4650893311845793  0.49717499412842886  0.846698910412137  1.0000
  N   N2        1.0  0.3805180042267153  0.5289875560819227  0.8992547025523125  1.0000
  N   N3        1.0  0.3042276010187734  0.5104326068673046  0.7007701763375493  1.0000
  N   N4        1.0  0.9678147003694945  0.349574680470269  0.5028628885717908  1.0000
  N   N5        1.0  0.8514467943405677  0.37030835016582136  0.47106079677918444  1.0000
  N   N6        1.0  0.7936354918135748  0.19035771623693884  0.4896094027704765  1.0000
  N   N7        1.0  0.6183222035841639  0.15334253442956222  0.6504878186750674  1.0000
  N   N8        1.0  0.4811877681965127  0.10084849736622907  0.6297539454629231  1.0000
  N   N9        1.0  0.6034498944216082  0.2993517284144147  0.8096956296207056  1.0000
  N   N10       1.0  0.5349109084962792  0.5028243782816021  0.15330251428278538  1.0000
  N   N11       1.0  0.6194836688231005  0.4710128065585336  0.10074584965146738  1.0000
  N   N12       1.0  0.6957717064592046  0.48956676545406436  0.29923016880380265  1.0000
  N   N13       1.0  0.032182740694913954  0.6504246916595022  0.4971361131664694  1.0000
  N   N14       1.0  0.14854965643860396  0.6296890417659996  0.5289372148242466  1.0000
  N   N15       1.0  0.206363376596329  0.8096426460804766  0.5103911735887723  1.0000
  N   N16       1.0  0.38167897030739767  0.8466568380833975  0.3495138698693766  1.0000
  N   N17       1.0  0.5188147789738266  0.899149885253614  0.3702477757131533  1.0000
  N   N18       1.0  0.3965512814777695  0.7006476441128058  0.19030524321970438  1.0000
  O   O1        1.0  0.821769310502404  0.5960543674446726  0.9840285324503812  1.0000
  O   O2        1.0  0.7766945559938135  0.7655416893921158  0.07365446018010867  1.0000
  O   O3        1.0  0.22578287209076822  0.38788616816339794  0.4042304835420297  1.0000
  O   O4        1.0  0.011274254141447686  0.30854452431304946  0.23499921047708483  1.0000
  O   O5        1.0  0.8376861857398479  0.0161117847218435  0.6119946147417964  1.0000
  O   O6        1.0  0.7030549672094178  0.9267820133854625  0.6921011322672826  1.0000
  O   O7        1.0  0.1782324186219526  0.4039479752908193  0.015972746038706024  1.0000
  O   O8        1.0  0.2233115313197729  0.23446560414393502  0.9263441114168174  1.0000
  O   O9        1.0  0.7742131416281381  0.6121122137787225  0.5957669435752424  1.0000
  O   O10       1.0  0.9887255144906247  0.6914538581691262  0.7649919307019034  1.0000
  O   O11       1.0  0.1623199775820582  0.9838994687475948  0.388020092098529  1.0000
  O   O12       1.0  0.2969360410165791  0.073204487486116  0.30788980218645895  1.0000
