data_image0
_chemical_formula_structural       Cu2H24C28N8O10
_chemical_formula_sum              "Cu2 H24 C28 N8 O10"
_cell_length_a       7.830053837474717
_cell_length_b       8.093288681773508
_cell_length_c       12.072208037244861
_cell_angle_alpha    102.74710188583758
_cell_angle_beta     106.12598296214084
_cell_angle_gamma    94.00195045758589

_space_group_name_H-M_alt    "P 1"
_space_group_IT_number       1

loop_
  _space_group_symop_operation_xyz
  'x, y, z'

loop_
  _atom_site_type_symbol
  _atom_site_label
  _atom_site_symmetry_multiplicity
  _atom_site_fract_x
  _atom_site_fract_y
  _atom_site_fract_z
  _atom_site_occupancy
  Cu  Cu1       1.0  0.3664009597191296  0.3329408635949491  0.4711160507014539  1.0000
  Cu  Cu2       1.0  0.6335995826738101  0.6670582188857069  0.5288827444759575  1.0000
  H   H1        1.0  0.4109635426861119  0.7949736084449698  0.31957284397822855  1.0000
  H   H2        1.0  0.5890347508671214  0.2050280104303184  0.6804284313502363  1.0000
  H   H3        1.0  0.3822747617269045  0.5053678023543924  0.18950824337302657  1.0000
  H   H4        1.0  0.6177273018289782  0.49463255513391163  0.8104910151827835  1.0000
  H   H5        1.0  0.1120092660805128  0.6880238598737591  0.8846981520663701  1.0000
  H   H6        1.0  0.8879876907523754  0.3119777736640828  0.11530206224750114  1.0000
  H   H7        1.0  0.13006300213262992  0.9698094830502557  0.01738228332067146  1.0000
  H   H8        1.0  0.8699381333850981  0.030193416818946207  0.9826188599857626  1.0000
  H   H9        1.0  0.4329386265371654  0.2984542150341412  0.06530531862582481  1.0000
  H   H10       1.0  0.5670581378937245  0.7015461391579121  0.9346946651167226  1.0000
  H   H11       1.0  0.4014921878720514  0.022842907618098696  0.9144740368852096  1.0000
  H   H12       1.0  0.5985089396862834  0.9771600025755163  0.08552627821370608  1.0000
  H   H13       1.0  0.18171516602323834  0.974217778034202  0.7102966894575501  1.0000
  H   H14       1.0  0.8182870819752498  0.025783869124296605  0.2897019714620724  1.0000
  H   H15       1.0  0.028847057951061583  0.4534811465396018  0.7940999614439831  1.0000
  H   H16       1.0  0.9711495140778299  0.5465179283066632  0.20589979172722647  1.0000
  H   H17       1.0  0.8755757659390614  0.2752521295490808  0.6356735127792204  1.0000
  H   H18       1.0  0.12442212689138189  0.7247469512834499  0.36432564499154546  1.0000
  H   H19       1.0  0.9077125085500345  0.056324434761428704  0.6009330846319684  1.0000
  H   H20       1.0  0.09228557668240707  0.9436759254168905  0.3990663037101284  1.0000
  H   H21       1.0  0.1561665402196084  0.3457193424143767  0.27633210917007023  1.0000
  H   H22       1.0  0.8438325208073678  0.6542784134365789  0.723670363666528  1.0000
  H   H23       1.0  0.03828439589855039  0.3623422403633611  0.3637898369979877  1.0000
  H   H24       1.0  0.9617161942507625  0.637656780170822  0.636213927424542  1.0000
  C   C1        1.0  0.27795523669978917  0.07883872902730359  0.250309533497436  1.0000
  C   C2        1.0  0.7220479791338338  0.9211603241282448  0.7496913837091623  1.0000
  C   C3        1.0  0.27129335227143514  0.9013490740777429  0.17658975163759993  1.0000
  C   C4        1.0  0.7287075828849015  0.0986525567700838  0.8234103328899918  1.0000
  C   C5        1.0  0.3434404538606516  0.769442009134835  0.22431689194213786  1.0000
  C   C6        1.0  0.6565589601327417  0.23055834670534375  0.7756827292070408  1.0000
  C   C7        1.0  0.3294873968066199  0.6070454353099421  0.1502985935934474  1.0000
  C   C8        1.0  0.6705120092273662  0.3929549308546498  0.8497001993482127  1.0000
  C   C9        1.0  0.2463471651132495  0.5732902719678636  0.02659359416811213  1.0000
  C   C10       1.0  0.753650912159799  0.4267100985348691  0.9734049659664661  1.0000
  C   C11       1.0  0.174941687200544  0.7069730966704454  0.9798117869602334  1.0000
  C   C12       1.0  0.8250565983932888  0.293028532529256  0.02018866016071289  1.0000
  C   C13       1.0  0.18627062906165293  0.8672802150969545  0.053831999594287104  1.0000
  C   C14       1.0  0.8137302981352834  0.13272142607527823  0.9461672567257717  1.0000
  C   C15       1.0  0.23387995352645424  0.4036888036218258  0.9454110346395478  1.0000
  C   C16       1.0  0.7661181317059873  0.5963115565564934  0.054588353702556006  1.0000
  C   C17       1.0  0.33774953200107666  0.276636439872334  0.9766297730040205  1.0000
  C   C18       1.0  0.6622487376739631  0.7233652099761941  0.023369017701888633  1.0000
  C   C19       1.0  0.32103805205970576  0.12214816505665028  0.893206837120253  1.0000
  C   C20       1.0  0.6789642118575687  0.8778534614530287  0.1067934802144137  1.0000
  C   C21       1.0  0.2019045049298569  0.09195078389919331  0.7798105159113217  1.0000
  C   C22       1.0  0.7980964143076791  0.9080508675974529  0.22018791220122572  1.0000
  C   C23       1.0  0.11555875215106681  0.3659241152049191  0.8299647206692665  1.0000
  C   C24       1.0  0.8844380043204298  0.6340762493115406  0.17003443486575517  1.0000
  C   C25       1.0  0.9758208172196492  0.18830228497150614  0.6310861956991969  1.0000
  C   C26       1.0  0.024175738890448877  0.8116968105235784  0.3689119010569754  1.0000
  C   C27       1.0  0.06446718065938481  0.22830802977976114  0.540164319899709  1.0000
  C   C28       1.0  0.9355318485300046  0.7716897673688337  0.45983484010680786  1.0000
  N   N1        1.0  0.10114333767232613  0.21459776082971868  0.7515337505322389  1.0000
  N   N2        1.0  0.8988574050820123  0.7854025906723123  0.24846610342401476  1.0000
  N   N3        1.0  0.4403832803104279  0.5681273305672293  0.583929698142114  1.0000
  N   N4        1.0  0.5596174783626966  0.43187300028598224  0.41607181222918393  1.0000
  N   N5        1.0  0.391722018314269  0.627756211185833  0.6694007040672004  1.0000
  N   N6        1.0  0.6082815165139267  0.3722365028490843  0.33059432384471416  1.0000
  N   N7        1.0  0.34695548381225194  0.6849285697845247  0.7521164752811557  1.0000
  N   N8        1.0  0.6530432162889145  0.31506659640161416  0.2478880210353508  1.0000
  O   O1        1.0  0.3355785320809587  0.10241149783612971  0.3646952507911151  1.0000
  O   O2        1.0  0.6644216493861708  0.8975849949797094  0.6353055678661972  1.0000
  O   O3        1.0  0.22471323718212943  0.19108890990886346  0.19608890076022323  1.0000
  O   O4        1.0  0.7752917081352283  0.8089126769512943  0.8039143668111561  1.0000
  O   O5        1.0  0.23634083591214516  0.25975698295427924  0.5742340851669353  1.0000
  O   O6        1.0  0.7636578005138478  0.7402382658271449  0.4257637854894013  1.0000
  O   O7        1.0  0.9588474532424203  0.2262236687897428  0.440536987770379  1.0000
  O   O8        1.0  0.04115329747131111  0.7737766723878821  0.5594636943934004  1.0000
  O   O9        1.0  0.11595988341768054  0.43228850482753245  0.33385800468377613  1.0000
  O   O10       1.0  0.8840418510499861  0.5677092216983085  0.6661465901820235  1.0000
