data_image0
_chemical_formula_structural       Zn3Cr3H45C69N9O25
_chemical_formula_sum              "Zn3 Cr3 H45 C69 N9 O25"
_cell_length_a       14.665480874005546
_cell_length_b       16.926067129892488
_cell_length_c       16.926160338738825
_cell_angle_alpha    120.00030178207153
_cell_angle_beta     90.00005598135006
_cell_angle_gamma    90.00004281001496

_space_group_name_H-M_alt    "P 1"
_space_group_IT_number       1

loop_
  _space_group_symop_operation_xyz
  'x, y, z'

loop_
  _atom_site_type_symbol
  _atom_site_label
  _atom_site_symmetry_multiplicity
  _atom_site_fract_x
  _atom_site_fract_y
  _atom_site_fract_z
  _atom_site_occupancy
  Zn  Zn1       1.0  1.3322035527999999e-06  0.6572080421596097  0.6572083579536211  1.0000
  Zn  Zn2       1.0  1.3045615361000007e-06  0.9999962972729008  0.34278594327856393  1.0000
  Zn  Zn3       1.0  0.999999282702383  0.34278995829957665  0.9999995446328002  1.0000
  Cr  Cr1       1.0  0.500000228470725  0.8854955049752675  0.9999985969973864  1.0000
  Cr  Cr2       1.0  0.5000000835112246  0.11450690604395669  0.1145078846737348  1.0000
  Cr  Cr3       1.0  0.5000015776923661  0.9999997001994531  0.8854897547207443  1.0000
  H   H1        1.0  0.26992374319070217  0.8749727021420101  0.7278432041173915  1.0000
  H   H2        1.0  0.1187748612066883  0.8001513133971302  0.6588787523266009  1.0000
  H   H3        1.0  0.26992680654404916  0.8528707056026336  0.1250295057568137  1.0000
  H   H4        1.0  0.1187759939926565  0.8587208995056129  0.19984377971540832  1.0000
  H   H5        1.0  0.2699204315328174  0.27216127585092653  0.1471358528017461  1.0000
  H   H6        1.0  0.1187750561637841  0.341127602166253  0.1412784019029942  1.0000
  H   H7        1.0  0.7300791283373655  0.8749683053594521  0.7278388392449671  1.0000
  H   H8        1.0  0.8812244594173676  0.8001480650978009  0.658874874687278  1.0000
  H   H9        1.0  0.7300719635988173  0.8528726248951344  0.12503418572889294  1.0000
  H   H10       1.0  0.8812221828426274  0.858723559272363  0.19984581012023742  1.0000
  H   H11       1.0  0.7300778622985648  0.2721583348730192  0.14712885053874913  1.0000
  H   H12       1.0  0.8812246543768012  0.3411267170943333  0.14127688748240538  1.0000
  H   H13       1.0  0.7300771013783064  0.7278420111724841  0.8749670580243887  1.0000
  H   H14       1.0  0.881222431715891  0.6588757578144069  0.8001491710298082  1.0000
  H   H15       1.0  0.7300802383854474  0.1250281705958472  0.8528706246967134  1.0000
  H   H16       1.0  0.881224993905242  0.19985292652456385  0.8587269111739176  1.0000
  H   H17       1.0  0.7300751506634455  0.1471266518170609  0.2721615198966987  1.0000
  H   H18       1.0  0.8812260434629379  0.14127138571460318  0.34111820191894543  1.0000
  H   H19       1.0  0.26992171622777045  0.7278405667987117  0.8749689927536154  1.0000
  H   H20       1.0  0.11877078788302238  0.6588759606815132  0.8001513676446236  1.0000
  H   H21       1.0  0.2699248532396723  0.12503077047355055  0.8528779680592322  1.0000
  H   H22       1.0  0.11877539569018583  0.19984906065736402  0.8587284500611929  1.0000
  H   H23       1.0  0.2699265842438762  0.14712650494266916  0.27215861233598565  1.0000
  H   H24       1.0  0.11877712712331599  0.14127158858366334  0.34112039853590664  1.0000
  H   H25       1.0  0.49999871083041825  0.5287318675800492  0.9999939360384219  1.0000
  H   H26       1.0  0.5000004365378174  0.4712686690814962  0.4712669734311916  1.0000
  H   H27       1.0  0.4999986510629241  0.9999963242047226  0.5287334875805171  1.0000
  H   H28       1.0  4.375575458000002e-07  0.5394917405917853  0.36698840629164664  1.0000
  H   H29       1.0  6.139934285000002e-07  0.8274976979382345  0.46051288669312385  1.0000
  H   H30       1.0  0.9999996278730592  0.6330165874511022  0.17250384986853354  1.0000
  H   H31       1.0  0.9999983542171905  0.36698449525722765  0.5394893460465937  1.0000
  H   H32       1.0  0.9999985553199621  0.4605116506408251  0.8274952131448003  1.0000
  H   H33       1.0  0.9999990044037544  0.17250331444170547  0.633013233106908  1.0000
  H   H34       1.0  0.499996652891916  0.6825819537794756  0.8590321285434256  1.0000
  H   H35       1.0  0.49999590212070183  0.5313436738343994  0.8524736626423888  1.0000
  H   H36       1.0  0.5000015872397512  0.17645374113700293  0.3174184989430202  1.0000
  H   H37       1.0  0.49999968844728937  0.3211358993732746  0.4686567341752479  1.0000
  H   H38       1.0  0.5000004906986959  0.14096955523140775  0.8235473930452102  1.0000
  H   H39       1.0  0.500001094634932  0.14751731424633638  0.6788606254473635  1.0000
  H   H40       1.0  0.5000014036276922  0.8590340986762754  0.6825831084275792  1.0000
  H   H41       1.0  0.4999999526331251  0.8524763225278419  0.5313433688042579  1.0000
  H   H42       1.0  0.5000022512349672  0.31741819191783793  0.17645441892081956  1.0000
  H   H43       1.0  0.5000023972297426  0.46865582489080276  0.32113488840113286  1.0000
  H   H44       1.0  0.5000017678694205  0.8235467542214252  0.14095998682261532  1.0000
  H   H45       1.0  0.5000010272468528  0.6788652163713564  0.14751621154945133  1.0000
  C   C1        1.0  0.23923738664686311  0.8262633498259645  0.7441086446563929  1.0000
  C   C2        1.0  0.15644565381689554  0.7852419222244293  0.7056476522863875  1.0000
  C   C3        1.0  0.2392391533938607  0.9178352795339817  0.17373364169284852  1.0000
  C   C4        1.0  0.15644543811716718  0.9204088653785047  0.21476000377172258  1.0000
  C   C5        1.0  0.23923745300651686  0.2558978508110669  0.0821648885350399  1.0000
  C   C6        1.0  0.15644509262019568  0.29435401767857877  0.079595547120654  1.0000
  C   C7        1.0  0.7607593241586484  0.8262622252324049  0.7441034630243307  1.0000
  C   C8        1.0  0.8435605248879057  0.7852357328304649  0.7056442393333526  1.0000
  C   C9        1.0  0.7607542721792199  0.9178386072008706  0.17373700549444498  1.0000
  C   C10       1.0  0.8435582635735558  0.9204076521430692  0.21476224915713957  1.0000
  C   C11       1.0  0.7607662092524093  0.25589927224278597  0.0821595241260411  1.0000
  C   C12       1.0  0.8435510993354852  0.2943481938642377  0.0795870421585931  1.0000
  C   C13       1.0  0.7607579708321311  0.7441043849947492  0.826261580106646  1.0000
  C   C14       1.0  0.8435598531078768  0.7056445243702285  0.7852333896940847  1.0000
  C   C15       1.0  0.7607659584000146  0.1737377890305682  0.9178402637614199  1.0000
  C   C16       1.0  0.8435522162120038  0.2147615218170672  0.9204124246381796  1.0000
  C   C17       1.0  0.7607553213147258  0.08216031695690874  0.255898929315677  1.0000
  C   C18       1.0  0.8435599909271119  0.07958621345023438  0.29435020234746645  1.0000
  C   C19       1.0  0.23923126020442004  0.7441011911439331  0.8262651721031987  1.0000
  C   C20       1.0  0.1564443001679692  0.7056574868285564  0.7852394824965501  1.0000
  C   C21       1.0  0.2392358384076942  0.17374002831977733  0.9178431490927822  1.0000
  C   C22       1.0  0.15644689136782122  0.21476395909947144  0.920419589675788  1.0000
  C   C23       1.0  0.23923883878219954  0.08215605738051575  0.25589531580624225  1.0000
  C   C24       1.0  0.15644716547068072  0.07958776778733782  0.2943476158641332  1.0000
  C   C25       1.0  0.49999873863186656  0.5931819845299275  0.9999951751299605  1.0000
  C   C26       1.0  0.5000003727643118  0.4068201625246032  0.40681938570121196  1.0000
  C   C27       1.0  0.4999986870297874  0.9999940805769895  0.5931710166065046  1.0000
  C   C28       1.0  0.3691356860749693  0.8506142044713059  0.8506056493620734  1.0000
  C   C29       1.0  0.2822342972515983  0.8054291427711603  0.80542211193643  1.0000
  C   C30       1.0  0.3691319497366123  0.9999946639522861  0.14938656480376994  1.0000
  C   C31       1.0  0.28223770010377075  2.9702213997324596e-08  0.1945752943378949  1.0000
  C   C32       1.0  0.3691349088154753  0.14939487127678316  1.0649859269987048e-05  1.0000
  C   C33       1.0  0.28223699355761067  0.19457786048969436  6.695956351199811e-06  1.0000
  C   C34       1.0  0.6308679833646879  0.8506102987658863  0.8506099481920515  1.0000
  C   C35       1.0  0.7177665552685183  0.8054238633513577  0.8054209559133624  1.0000
  C   C36       1.0  0.6308669745215738  0.9999958502896146  0.14939049807129834  1.0000
  C   C37       1.0  0.7177615251248638  0.9999974280169183  0.19457953521326485  1.0000
  C   C38       1.0  0.6308650367798306  0.14938658324798862  0.9999939426409769  1.0000
  C   C39       1.0  0.7177636728929786  0.19457483144383048  0.9999979885410964  1.0000
  C   C40       1.0  5.960804188000001e-07  0.7072208653969767  0.521369022616625  1.0000
  C   C41       1.0  5.324659185000002e-07  0.6857287248888824  0.4240103662409211  1.0000
  C   C42       1.0  1.1353100646000003e-06  0.5952429619786486  0.3523529274401227  1.0000
  C   C43       1.0  0.9999997731415249  0.8141483230820796  0.2927814644660599  1.0000
  C   C44       1.0  0.999998388658  0.7382769106079863  0.3142627619394034  1.0000
  C   C45       1.0  0.9999998110492924  0.7571125122680868  0.40477073384955997  1.0000
  C   C46       1.0  0.9999995687336066  0.4786338932164611  0.18585792059214867  1.0000
  C   C47       1.0  1.7582867784e-06  0.5759911448519119  0.2617152648928851  1.0000
  C   C48       1.0  0.9999996734870679  0.647659965424559  0.24290665509230536  1.0000
  C   C49       1.0  0.9999998781826065  0.5213672190423966  0.7072221244423391  1.0000
  C   C50       1.0  0.9999991423144293  0.42400820092748864  0.6857259653778627  1.0000
  C   C51       1.0  0.9999990608960232  0.35234606690190856  0.5952415601703932  1.0000
  C   C52       1.0  0.9999984755179695  0.29278028229381226  0.8141473085328246  1.0000
  C   C53       1.0  0.9999991243106193  0.31426599330751515  0.7382784626861182  1.0000
  C   C54       1.0  0.9999978101099741  0.40476203777163283  0.7571078752640688  1.0000
  C   C55       1.0  0.9999996058623637  0.18585100261219617  0.47863286052212567  1.0000
  C   C56       1.0  0.9999983291803998  0.2617164040024562  0.5759845021646228  1.0000
  C   C57       1.0  0.999999724814991  0.2428951257287011  0.647657584499214  1.0000
  C   C58       1.0  0.49999804921408497  0.677966119185406  0.9209593010131057  1.0000
  C   C59       1.0  0.4999980115503178  0.5943160149490156  0.9181268120099731  1.0000
  C   C60       1.0  0.5000002547744913  0.24299867951875598  0.3220352746275097  1.0000
  C   C61       1.0  0.4999989725797533  0.32381701390251993  0.40568307097811374  1.0000
  C   C62       1.0  0.5000011087042323  0.0790325457342648  0.7569900816239611  1.0000
  C   C63       1.0  0.4999997010826788  0.08186955939370935  0.6761943442289179  1.0000
  C   C64       1.0  0.5000000640137614  0.920964587453902  0.6779587823337465  1.0000
  C   C65       1.0  0.49999797048872807  0.9181302646236845  0.594325581160696  1.0000
  C   C66       1.0  0.5000016084957437  0.32203357563592044  0.24299770406439336  1.0000
  C   C67       1.0  0.5000016896892063  0.4056833036076527  0.3238153196146669  1.0000
  C   C68       1.0  0.5000010227257546  0.7570030442145919  0.0790329572785638  1.0000
  C   C69       1.0  0.499999625695949  0.6761832471767734  0.08186120597935798  1.0000
  N   N1        1.0  0.49999949161590257  0.7580351891566436  0.9999965931190998  1.0000
  N   N2        1.0  0.5000015733820219  0.24196487197583147  0.24196606483047134  1.0000
  N   N3        1.0  0.5000031208209421  4.914829844442761e-06  0.758039181587918  1.0000
  N   N4        1.0  0.11601259732078259  0.7254069578471841  0.7254124888702265  1.0000
  N   N5        1.0  0.11601587349011311  0.999996033307852  0.27458768407563383  1.0000
  N   N6        1.0  0.1160147254429305  0.27459197564429866  2.0519582407249223e-06  1.0000
  N   N7        1.0  0.8839840056054555  0.7254084644429994  0.725408591102962  1.0000
  N   N8        1.0  0.8839825086653689  0.9999990381313281  0.27458937772020414  1.0000
  N   N9        1.0  0.8839874974779391  0.274595321573848  3.4045097266202057e-06  1.0000
  O   O1        1.0  0.40269546770111475  0.8299099957678138  0.9075991341145553  1.0000
  O   O2        1.0  0.4026940496893232  0.07768817479929878  0.17008758892873027  1.0000
  O   O3        1.0  0.40269583965972094  0.0923998231889558  0.9223122072703235  1.0000
  O   O4        1.0  0.5973089293759628  0.8299133634198059  0.9075984220530843  1.0000
  O   O5        1.0  0.5973088751085455  0.07768849702151213  0.1700851958454308  1.0000
  O   O6        1.0  0.5973099832092287  0.0924030080484499  0.92231404121042  1.0000
  O   O7        1.0  0.59730755577786  0.9076031797595263  0.8299118244758504  1.0000
  O   O8        1.0  0.5973074996455167  0.17008857269330238  0.07768968253701297  1.0000
  O   O9        1.0  0.5973057867098605  0.9223117285461199  0.0923990991616464  1.0000
  O   O10       1.0  0.40268932098820903  0.9075970163785455  0.8299117874132733  1.0000
  O   O11       1.0  0.402691992349709  0.17008802524971856  0.0776863928130354  1.0000
  O   O12       1.0  0.40269300690739124  0.9223104989011474  0.09239649163563976  1.0000
  O   O13       1.0  0.500000528381605  1.1527935444815629e-06  0.9999954788775655  1.0000
  O   O14       1.0  0.9999999253704813  0.7887367922386231  0.5851421051467511  1.0000
  O   O15       1.0  0.9999998306123031  0.6367961937382277  0.5327968818201612  1.0000
  O   O16       1.0  0.9999997199909529  0.7964045024533704  0.21127263049449854  1.0000
  O   O17       1.0  0.99999984776246  0.8960047134828314  0.3632100499927873  1.0000
  O   O18       1.0  0.9999981873843566  0.4148634777752491  0.20360293629200757  1.0000
  O   O19       1.0  9.414536422000002e-07  0.467200560363068  0.10400190835148496  1.0000
  O   O20       1.0  1.0783360000000113e-08  0.585134649972872  0.7887345950564965  1.0000
  O   O21       1.0  0.9999998438030601  0.5327968398110414  0.6367974536707024  1.0000
  O   O22       1.0  0.999998430452294  0.2112658229657357  0.7964036845701515  1.0000
  O   O23       1.0  0.9999992334591922  0.3632063801336258  0.8960013343259873  1.0000
  O   O24       1.0  0.9999995779196169  0.20359733905731764  0.4148584772210029  1.0000
  O   O25       1.0  9.875144897e-07  0.1039980699816355  0.467198035777038  1.0000
