data_image0
_chemical_formula_structural       Ag2H40C36S2N6O6
_chemical_formula_sum              "Ag2 H40 C36 S2 N6 O6"
_cell_length_a       7.257597229636018
_cell_length_b       7.2575739912689174
_cell_length_c       15.748968711658899
_cell_angle_alpha    93.91440203649138
_cell_angle_beta     93.91432355343787
_cell_angle_gamma    93.07363467413712

_space_group_name_H-M_alt    "P 1"
_space_group_IT_number       1

loop_
  _space_group_symop_operation_xyz
  'x, y, z'

loop_
  _atom_site_type_symbol
  _atom_site_label
  _atom_site_symmetry_multiplicity
  _atom_site_fract_x
  _atom_site_fract_y
  _atom_site_fract_z
  _atom_site_occupancy
  Ag  Ag1       1.0  0.688123581200273  0.49923381763115765  0.08487945268955603  1.0000
  Ag  Ag2       1.0  0.49923312926908653  0.688121510328763  0.5848792312161779  1.0000
  H   H1        1.0  0.13777727774712642  0.2570861600932872  0.2891003917153014  1.0000
  H   H2        1.0  0.2570850061483015  0.13776610387083815  0.7890978701930252  1.0000
  H   H3        1.0  0.3827996881610646  0.1698645972286243  0.19433744092884106  1.0000
  H   H4        1.0  0.16986446544808592  0.3827952874231143  0.6943384373343023  1.0000
  H   H5        1.0  0.2964480675916334  0.9945072407219013  0.053562146895636424  1.0000
  H   H6        1.0  0.9945005116417533  0.2964451109363466  0.5535633711324623  1.0000
  H   H7        1.0  0.0673155644454937  0.8497876070181575  0.9487658564613499  1.0000
  H   H8        1.0  0.8497842984312741  0.0673124090034705  0.44876434977376084  1.0000
  H   H9        1.0  0.48822504455685606  0.8740210988706919  0.988593747285549  1.0000
  H   H10       1.0  0.8740173862891751  0.488219620928689  0.48858844635726245  1.0000
  H   H11       1.0  0.564078423138348  0.044290996793513705  0.12911452300883755  1.0000
  H   H12       1.0  0.0442920820561881  0.5640734922625654  0.62910927236225  1.0000
  H   H13       1.0  0.8113885937904899  0.3475794163166768  0.9503382589383735  1.0000
  H   H14       1.0  0.3475758227351592  0.8113846184356887  0.4503364060235385  1.0000
  H   H15       1.0  0.9909542457816728  0.2012937658396297  0.9233304809053495  1.0000
  H   H16       1.0  0.201289511205303  0.9909498675488349  0.4233293129591119  1.0000
  H   H17       1.0  0.9787130134511488  0.4210050599314386  0.8796896208614629  1.0000
  H   H18       1.0  0.4210027676128335  0.9787098582673507  0.3796884971908767  1.0000
  H   H19       1.0  0.8669676075856573  0.684832941359275  0.20471626605287707  1.0000
  H   H20       1.0  0.6848301082904059  0.866964159713234  0.7047146570368812  1.0000
  H   H21       1.0  0.07842804544749532  0.8058715406239044  0.24367723167281954  1.0000
  H   H22       1.0  0.8058698195237854  0.07842677024198251  0.7436748584739663  1.0000
  H   H23       1.0  0.024584739578635596  0.5795074743583442  0.2747189888643221  1.0000
  H   H24       1.0  0.5795069212215579  0.024583783999062796  0.7747186145057088  1.0000
  H   H25       1.0  0.5608288914528856  0.7027215194397415  0.20204845328257193  1.0000
  H   H26       1.0  0.7027193911030594  0.56082780818236  0.7020455907710001  1.0000
  H   H27       1.0  0.41512659360539333  0.6026044253328777  0.2744536549220413  1.0000
  H   H28       1.0  0.6026021913055005  0.41512796119870643  0.7744521275998509  1.0000
  H   H29       1.0  0.3711606850606799  0.823124205390883  0.23704528003840156  1.0000
  H   H30       1.0  0.8231208764108331  0.37115944433619313  0.7370435619107596  1.0000
  H   H31       1.0  0.5105790536713003  0.4050078648201918  0.9401907740820832  1.0000
  H   H32       1.0  0.4050038052784757  0.510577205537551  0.44019142224361474  1.0000
  H   H33       1.0  0.30160549114168583  0.4161898991449533  0.8751354430989764  1.0000
  H   H34       1.0  0.4161876660220188  0.30160551962065796  0.37513552067278516  1.0000
  H   H35       1.0  0.34467744905835945  0.2120355041053585  0.9279459307168667  1.0000
  H   H36       1.0  0.21203375721199794  0.3446777722689234  0.4279460984674017  1.0000
  H   H37       1.0  0.590898441774243  0.7505210186014681  0.8585610582372853  1.0000
  H   H38       1.0  0.7505169695927381  0.5908957579858054  0.35855780026991374  1.0000
  H   H39       1.0  0.8240928628978068  0.7174530529166319  0.8443773325101349  1.0000
  H   H40       1.0  0.717451121558135  0.824093661768721  0.34437623311923476  1.0000
  C   C1        1.0  0.9165401795799044  0.14353589850617246  0.20210496389572805  1.0000
  C   C2        1.0  0.1435332991578164  0.9165371173493639  0.7021016244722063  1.0000
  C   C3        1.0  0.10097084537978422  0.1832758310397153  0.22743640473743207  1.0000
  C   C4        1.0  0.18326908249382975  0.1009574565378273  0.727433001011079  1.0000
  C   C5        1.0  0.23917207979823024  0.1309918168386304  0.1734404558049789  1.0000
  C   C6        1.0  0.1309856846290742  0.23916388920579124  0.6734391979378247  1.0000
  C   C7        1.0  0.1909315063374564  0.03589533746267648  0.09575236553998683  1.0000
  C   C8        1.0  0.0358915534139328  0.19093151338753958  0.5957521017583574  1.0000
  C   C9        1.0  0.9562526873681635  0.8908234650665107  0.9881861692343251  1.0000
  C   C10       1.0  0.890817514101464  0.9562506561630001  0.48818292887406767  1.0000
  C   C11       1.0  0.7720953813862013  0.846735892561959  0.9593592195393443  1.0000
  C   C12       1.0  0.8467315832095822  0.7720905135021568  0.4593559033314564  1.0000
  C   C13       1.0  0.6316758764479359  0.907014952389332  0.012283868132939812  1.0000
  C   C14       1.0  0.9070124982724155  0.6316724581098471  0.5122802483174809  1.0000
  C   C15       1.0  0.6745677303449399  0.0034169805574749  0.09008002636834792  1.0000
  C   C16       1.0  0.0034125263032435903  0.6745609369193913  0.5900758416584895  1.0000
  C   C17       1.0  0.8608977357253949  0.047496374424284185  0.12151233598321913  1.0000
  C   C18       1.0  0.047491781214851904  0.8608899382146901  0.6215106906545886  1.0000
  C   C19       1.0  0.0028776570287831985  0.9895422345213589  0.06771984659432213  1.0000
  C   C20       1.0  0.9895353486923002  0.002875561910265399  0.5677184788581188  1.0000
  C   C21       1.0  0.0766260619408214  0.4340793586643131  0.010967011331466407  1.0000
  C   C22       1.0  0.43407477261761335  0.07662237831713979  0.5109664660870338  1.0000
  C   C23       1.0  0.10414713206183282  0.5887570408291365  0.14614594608180917  1.0000
  C   C24       1.0  0.5887525668331436  0.10414469554235949  0.6461460473461857  1.0000
  C   C25       1.0  0.2984731504061956  0.5951783038055395  0.14517984325796365  1.0000
  C   C26       1.0  0.5951737022558988  0.298470212336845  0.6451793378738131  1.0000
  C   C27       1.0  0.27137745402566793  0.4425608439819229  0.009698513846757403  1.0000
  C   C28       1.0  0.4425559959476645  0.2713728958327408  0.5096986147727165  1.0000
  C   C29       1.0  0.9577481564056998  0.3459036372214753  0.936889740618199  1.0000
  C   C30       1.0  0.3458990697595113  0.9577445913702575  0.43688917771763164  1.0000
  C   C31       1.0  0.014315281463829894  0.6693781507733261  0.22127093201299186  1.0000
  C   C32       1.0  0.669374882430752  0.014313969890785897  0.7212691605719571  1.0000
  C   C33       1.0  0.417177712326904  0.6855765631638276  0.21868598098483727  1.0000
  C   C34       1.0  0.6855733479558739  0.4171785212238531  0.7186850168708931  1.0000
  C   C35       1.0  0.36199486940648745  0.36427518886808485  0.934140552341731  1.0000
  C   C36       1.0  0.3642742431509803  0.3619951844784595  0.4341407109845293  1.0000
  S   S1        1.0  0.7522933071736662  0.2188216217083507  0.27433932564999003  1.0000
  S   S2        1.0  0.21882019611847886  0.7522856822433042  0.7743377171752571  1.0000
  N   N1        1.0  0.996216333158472  0.5072570430767129  0.07935272089430612  1.0000
  N   N2        1.0  0.5072509285850231  0.9962123675621228  0.5793517019119818  1.0000
  N   N3        1.0  0.3792105165451148  0.5210156709410398  0.07707662603006332  1.0000
  N   N4        1.0  0.5210120265303574  0.3792076341466384  0.5770768293348852  1.0000
  N   N5        1.0  0.7224865624121082  0.7435241079956043  0.884511796329605  1.0000
  N   N6        1.0  0.7435197584154168  0.7224882425702222  0.38451061307916495  1.0000
  O   O1        1.0  0.6367045333529546  0.34674496924052517  0.22823235765710595  1.0000
  O   O2        1.0  0.34674379797939997  0.6366951192350997  0.7282319051130418  1.0000
  O   O3        1.0  0.8579486532643231  0.3124568108728099  0.3495215817285668  1.0000
  O   O4        1.0  0.31245548185678734  0.8579465359691483  0.8495188907973202  1.0000
  O   O5        1.0  0.6446208748756775  0.0508542348814274  0.2937101287771853  1.0000
  O   O6        1.0  0.05085404137049922  0.6446137951508533  0.7937098644296088  1.0000
