data_image0
_chemical_formula_structural       La2Ag2H22C30N4O24
_chemical_formula_sum              "La2 Ag2 H22 C30 N4 O24"
_cell_length_a       7.7405703326191695
_cell_length_b       8.293851413741772
_cell_length_c       14.181042998769009
_cell_angle_alpha    96.8016653164431
_cell_angle_beta     101.52864351550477
_cell_angle_gamma    92.93451831688982

_space_group_name_H-M_alt    "P 1"
_space_group_IT_number       1

loop_
  _space_group_symop_operation_xyz
  'x, y, z'

loop_
  _atom_site_type_symbol
  _atom_site_label
  _atom_site_symmetry_multiplicity
  _atom_site_fract_x
  _atom_site_fract_y
  _atom_site_fract_z
  _atom_site_occupancy
  La  La1       1.0  0.685507270064605  0.20269108100571018  0.9145847286485708  1.0000
  La  La2       1.0  0.3144898959663037  0.7973067069933178  0.0854147811513428  1.0000
  Ag  Ag1       1.0  0.32532028929728096  0.07623633156696029  0.46715630672267866  1.0000
  Ag  Ag2       1.0  0.6746799991822312  0.9237662898373028  0.5328445828450371  1.0000
  H   H1        1.0  0.9749741198636244  0.786488329780873  0.7566369426732539  1.0000
  H   H2        1.0  0.02502865274548329  0.21351305891972316  0.24336270024513607  1.0000
  H   H3        1.0  0.16955963655696854  0.19174645194918574  0.6333268659515527  1.0000
  H   H4        1.0  0.8304404860729022  0.808254974358135  0.36667180318801235  1.0000
  H   H5        1.0  0.22079034562801061  0.7226813309241817  0.5074742918255171  1.0000
  H   H6        1.0  0.779209997325779  0.27732253844114746  0.4925238739982307  1.0000
  H   H7        1.0  0.5303735290716959  0.48863697767757225  0.18004924557660476  1.0000
  H   H8        1.0  0.4696265549946758  0.511363193116665  0.8199528536172311  1.0000
  H   H9        1.0  0.33475757697569  0.44464704678293276  0.4411527642687006  1.0000
  H   H10       1.0  0.6652453614830662  0.5553555370145912  0.5588490990778399  1.0000
  H   H11       1.0  0.46309646032045754  0.027369708680907892  0.2850481242159547  1.0000
  H   H12       1.0  0.5369024407397873  0.9726316873416534  0.7149546490511656  1.0000
  H   H13       1.0  0.035286643384999594  0.40106072966710116  0.7280406232964654  1.0000
  H   H14       1.0  0.9647177143145668  0.5989430644080823  0.2719607689712831  1.0000
  H   H15       1.0  0.7161675312067858  0.9461549329064098  0.04657568500243067  1.0000
  H   H16       1.0  0.2838333496921451  0.05384037450455987  0.9534240230057807  1.0000
  H   H17       1.0  0.856681308544246  0.8677364539479127  0.987076659363375  1.0000
  H   H18       1.0  0.14331825532045164  0.1322588684904175  0.01292291491057539  1.0000
  H   H19       1.0  0.3583641715409128  0.38703591922766367  0.9745370449515038  1.0000
  H   H20       1.0  0.6416357307650459  0.6129630640216559  0.0254621275038716  1.0000
  H   H21       1.0  0.282395484888383  0.3086527966278822  0.866388147031252  1.0000
  H   H22       1.0  0.7176109866779753  0.691346119036673  0.13361098778513994  1.0000
  C   C1        1.0  0.09169574532737809  0.5511225473160336  0.6372626141684921  1.0000
  C   C2        1.0  0.9083029421509179  0.44887767626565983  0.3627358197395624  1.0000
  C   C3        1.0  0.09570855379447349  0.7305959352778968  0.6324884191164203  1.0000
  C   C4        1.0  0.9042915688353971  0.2694054910294241  0.3675102500231447  1.0000
  C   C5        1.0  0.03611168038428047  0.8346826512433905  0.7020197809301225  1.0000
  C   C6        1.0  0.9638897592798229  0.16531876003658397  0.29797902194370357  1.0000
  C   C7        1.0  0.06127764652198659  0.0026089895600733986  0.7031337408380339  1.0000
  C   C8        1.0  0.9387250238805507  0.9973911738355021  0.2968665068934158  1.0000
  C   C9        1.0  0.14539785121797166  0.06125180913245029  0.6344379368207742  1.0000
  C   C10       1.0  0.8546038246808151  0.9387520376535005  0.36556106904753705  1.0000
  C   C11       1.0  0.17250035879964531  0.7982338373444758  0.5634848148926326  1.0000
  C   C12       1.0  0.827499747919461  0.20176759651486972  0.43651314793663  1.0000
  C   C13       1.0  0.00043130406705669963  0.11782537368751626  0.7773536875776731  1.0000
  C   C14       1.0  0.9995689207693914  0.8821772779248246  0.22264437674883208  1.0000
  C   C15       1.0  0.575296946450223  0.16524765545116787  0.13924401867735275  1.0000
  C   C16       1.0  0.4247026810575463  0.8347476367790776  0.8607583808378083  1.0000
  C   C17       1.0  0.505577994056182  0.2485935220316548  0.22196073277556397  1.0000
  C   C18       1.0  0.49442472407865523  0.7514066187078611  0.778041633886794  1.0000
  C   C19       1.0  0.49095335628504694  0.41651355718042987  0.23267185290401934  1.0000
  C   C20       1.0  0.5090467277813246  0.5834866136138074  0.7673302462898095  1.0000
  C   C21       1.0  0.4279809702368593  0.49016116035276247  0.3115314780266162  1.0000
  C   C22       1.0  0.5720206670984282  0.5098414309201046  0.6884709578959589  1.0000
  C   C23       1.0  0.3831088669227681  0.3921889989158556  0.37804623893788414  1.0000
  C   C24       1.0  0.6168967533367535  0.6078135321708938  0.6219580108080935  1.0000
  C   C25       1.0  0.45428363453724785  0.1588336235309527  0.2902615748108489  1.0000
  C   C26       1.0  0.5457180346195755  0.8411689526378722  0.7097422737323387  1.0000
  C   C27       1.0  0.4092300895118512  0.6716339751435924  0.32451690050776  1.0000
  C   C28       1.0  0.5907657753955959  0.3283638203307716  0.6754831818681952  1.0000
  C   C29       1.0  0.06624247090045537  0.4373116837072429  0.017704357055365  1.0000
  C   C30       1.0  0.9337592753833802  0.5626934034877634  0.9822926313792738  1.0000
  N   N1        1.0  0.19719152129241724  0.96073047311534  0.5649586946774293  1.0000
  N   N2        1.0  0.8028097684328159  0.039269735515681185  0.4350385940785488  1.0000
  N   N3        1.0  0.3951072203428581  0.22932437080958573  0.3670579793547689  1.0000
  N   N4        1.0  0.6048971850890013  0.7706794006095303  0.6329455318438877  1.0000
  O   O1        1.0  0.01324363439664468  0.5135194231423411  0.708034031939981  1.0000
  O   O2        1.0  0.9867579870278717  0.48648317568254357  0.2919676976722983  1.0000
  O   O3        1.0  0.1588842508384616  0.4544858627266776  0.5850198672764578  1.0000
  O   O4        1.0  0.8411104855371363  0.5455144059370837  0.41497816542880633  1.0000
  O   O5        1.0  0.8859982323078697  0.061247043628732505  0.8194855245089843  1.0000
  O   O6        1.0  0.11399549365321346  0.9387569159774214  0.18051056002283875  1.0000
  O   O7        1.0  0.06834975477420357  0.26491247082547165  0.7940791058283454  1.0000
  O   O8        1.0  0.9316516145048651  0.7350877000454402  0.2059217144791391  1.0000
  O   O9        1.0  0.6358867055473494  0.25254449376667043  0.0842411085679942  1.0000
  O   O10       1.0  0.36411415944081676  0.7474508211963168  0.9157578931299145  1.0000
  O   O11       1.0  0.5709401721908449  0.009049459281030197  0.12925840099330096  1.0000
  O   O12       1.0  0.42906087455773434  0.990947043226874  0.8707435274430683  1.0000
  O   O13       1.0  0.4169592915770224  0.7445933957972526  0.2501472366804052  1.0000
  O   O14       1.0  0.5830320157302465  0.25539836354624157  0.7498512306962299  1.0000
  O   O15       1.0  0.38910626749986926  0.7393505719766789  0.4052319468847544  1.0000
  O   O16       1.0  0.6108889572558666  0.2606545601470315  0.5947671981197901  1.0000
  O   O17       1.0  0.005233766310290394  0.29081910865749444  0.009155432594688796  1.0000
  O   O18       1.0  0.9947631475751706  0.7091762513875677  0.9908431679004298  1.0000
  O   O19       1.0  0.22581632539475288  0.4915721202287031  0.05131319712190672  1.0000
  O   O20       1.0  0.774178181488125  0.5084269835462081  0.9486797899139889  1.0000
  O   O21       1.0  0.777852687978658  0.9576400932119423  0.9927126710164347  1.0000
  O   O22       1.0  0.2221426567271152  0.042352853906514595  0.007284886439634908  1.0000
  O   O23       1.0  0.39381507081007067  0.33543164164511535  0.9157029228082296  1.0000
  O   O24       1.0  0.606190217750168  0.6645684992477711  0.08429688608143952  1.0000
