data_image0
_chemical_formula_structural       Cd4H28C48N12O24
_chemical_formula_sum              "Cd4 H28 C48 N12 O24"
_cell_length_a       7.516327831209351
_cell_length_b       13.835335978790608
_cell_length_c       21.215135274115486
_cell_angle_alpha    90.0063992605128
_cell_angle_beta     87.55151613836148
_cell_angle_gamma    90.45053244000879

_space_group_name_H-M_alt    "P 1"
_space_group_IT_number       1

loop_
  _space_group_symop_operation_xyz
  'x, y, z'

loop_
  _atom_site_type_symbol
  _atom_site_label
  _atom_site_symmetry_multiplicity
  _atom_site_fract_x
  _atom_site_fract_y
  _atom_site_fract_z
  _atom_site_occupancy
  Cd  Cd1       1.0  0.4738179687477171  0.10629821424275582  0.06416190803482641  1.0000
  Cd  Cd2       1.0  0.4862062685031249  0.8936981582930982  0.9363862511029454  1.0000
  Cd  Cd3       1.0  0.4606275824072057  0.6049874826184265  0.4352702379416229  1.0000
  Cd  Cd4       1.0  0.5104493462042186  0.3945109622402042  0.5646741840914871  1.0000
  H   H1        1.0  0.8023027914232372  0.22674685065693007  0.017819233803329795  1.0000
  H   H2        1.0  0.8077162533600061  0.9629788393253802  0.11086737503716651  1.0000
  H   H3        1.0  0.8118674046371906  0.7681633917256789  0.9799774601110585  1.0000
  H   H4        1.0  0.8212908104081295  0.0355037481508447  0.8912657273940852  1.0000
  H   H5        1.0  0.11895676377682922  0.724358571164231  0.487157284631202  1.0000
  H   H6        1.0  0.14137268562598856  0.4669033886771458  0.38735152329353895  1.0000
  H   H7        1.0  0.1808231604676891  0.2699241573018724  0.5162074064516915  1.0000
  H   H8        1.0  0.17986559716690217  0.526959032054421  0.6174404475880806  1.0000
  H   H9        1.0  0.1526968671888724  0.7683367371199523  0.9773573519686423  1.0000
  H   H10       1.0  0.16026987247615665  0.03984397672424219  0.8943728879810564  1.0000
  H   H11       1.0  0.1430120980473788  0.23335720793940598  0.0168072608812579  1.0000
  H   H12       1.0  0.14673861225408305  0.9712170771710404  0.1117017184458149  1.0000
  H   H13       1.0  0.840752495201464  0.2746224092457155  0.5149594825960193  1.0000
  H   H14       1.0  0.842230024731386  0.5354149127679831  0.6111147383874852  1.0000
  H   H15       1.0  0.779930045811952  0.724366433424592  0.4811778145466334  1.0000
  H   H16       1.0  0.8027719881228564  0.464250913690563  0.3833617322772085  1.0000
  H   H17       1.0  0.6027334893673386  0.17278191966172324  0.3965805985599856  1.0000
  H   H18       1.0  0.4291977057759766  0.4436452661926181  0.3203027563205509  1.0000
  H   H19       1.0  0.43661026428643623  0.3706018874941606  0.2128757955531171  1.0000
  H   H20       1.0  0.35585305043189663  0.8248435472031729  0.6036422963187462  1.0000
  H   H21       1.0  0.5558102617099081  0.5595470070734052  0.6793296478600865  1.0000
  H   H22       1.0  0.5492154842226356  0.6329375821194317  0.7863680529649885  1.0000
  H   H23       1.0  0.5966018362302209  0.6689839243299929  0.10078431706423881  1.0000
  H   H24       1.0  0.4353095711140967  0.943780221609906  0.1798953093875184  1.0000
  H   H25       1.0  0.44357355909173185  0.8733966784838001  0.2877639415393176  1.0000
  H   H26       1.0  0.6105292177647001  0.33094198775848577  0.8977961971211103  1.0000
  H   H27       1.0  0.4308484486253549  0.0590611560689425  0.8224405760203696  1.0000
  H   H28       1.0  0.44228716287504005  0.1305826020608833  0.7148055559331539  1.0000
  C   C1        1.0  0.8813390921504691  0.16929429569387364  0.037640569439702204  1.0000
  C   C2        1.0  0.8833042841841987  0.0229388563666433  0.0893310636345035  1.0000
  C   C3        1.0  0.8916269882344213  0.8279728450372519  0.9603103660340224  1.0000
  C   C4        1.0  0.8960756789198357  0.9770776880323027  0.911962096795392  1.0000
  C   C5        1.0  0.04609350989062482  0.6669808589848498  0.4638609078530536  1.0000
  C   C6        1.0  0.058873433743542605  0.5235171517159499  0.4088335404583461  1.0000
  C   C7        1.0  0.10402695168099294  0.3287616586902544  0.5377933254167786  1.0000
  C   C8        1.0  0.10406597504351113  0.4718728588310198  0.593111628247847  1.0000
  C   C9        1.0  0.0769775179740932  0.8289795503151112  0.9598993516012158  1.0000
  C   C10       1.0  0.08145141422260592  0.9790219745095284  0.9130129154016587  1.0000
  C   C11       1.0  0.06661639404570961  0.17310891517589505  0.0376388676288713  1.0000
  C   C12       1.0  0.06866478262356421  0.0273507092075818  0.0900307480859297  1.0000
  C   C13       1.0  0.919022807548899  0.3314425733329927  0.536573254518963  1.0000
  C   C14       1.0  0.9191748365982878  0.4759619462038174  0.5904541321178272  1.0000
  C   C15       1.0  0.861311966286543  0.6659997905717389  0.4613053723202043  1.0000
  C   C16       1.0  0.8735928835614433  0.5221823385008548  0.40687442160319165  1.0000
  C   C17       1.0  0.5224390578736617  0.23184125288608473  0.24362825646102243  1.0000
  C   C18       1.0  0.5737617482140396  0.17862675069279987  0.2960437459248055  1.0000
  C   C19       1.0  0.5658415632099861  0.21652982409563043  0.3566468921140356  1.0000
  C   C20       1.0  0.5101630461817734  0.3120487966644846  0.3658909812839894  1.0000
  C   C21       1.0  0.46588701732481036  0.3681266537455841  0.3138412541135978  1.0000
  C   C22       1.0  0.4711912872019823  0.3278263770179492  0.2536020969483701  1.0000
  C   C23       1.0  0.5055451418418359  0.18870197728580956  0.1792017911762827  1.0000
  C   C24       1.0  0.4977178974835682  0.351886896269484  0.43148164830326863  1.0000
  C   C25       1.0  0.44559028615880447  0.7688831492849102  0.7563581027436541  1.0000
  C   C26       1.0  0.3887896368909126  0.8204294979688382  0.7039916475523498  1.0000
  C   C27       1.0  0.3976307323643553  0.7822630969507641  0.64342207372475  1.0000
  C   C28       1.0  0.4601823780365351  0.6880639320069262  0.6340995258978666  1.0000
  C   C29       1.0  0.5123653427589048  0.6339455554922822  0.6859974293475659  1.0000
  C   C30       1.0  0.5060376489485634  0.6744590714101263  0.7461976615408192  1.0000
  C   C31       1.0  0.45863435444167083  0.8121270975741839  0.8209957117599771  1.0000
  C   C32       1.0  0.47157128682371763  0.6472637528245639  0.568716291733601  1.0000
  C   C33       1.0  0.5251459108999799  0.7332719120961285  0.25570981821582  1.0000
  C   C34       1.0  0.5739073550619621  0.6783428911480269  0.2021796591616862  1.0000
  C   C35       1.0  0.5635745459141503  0.714394454553215  0.14144586393915404  1.0000
  C   C36       1.0  0.5100754878459668  0.8101694625725314  0.132983452323046  1.0000
  C   C37       1.0  0.47080274053395504  0.8682343594822653  0.18587362193331813  1.0000
  C   C38       1.0  0.4767513984002392  0.82944719677873  0.246394990708886  1.0000
  C   C39       1.0  0.5046383793553134  0.6905761322481184  0.3207120295631753  1.0000
  C   C40       1.0  0.49316567226610186  0.8473265837164375  0.0673160369009267  1.0000
  C   C41       1.0  0.5410386044783453  0.2684278763065109  0.7444784557032165  1.0000
  C   C42       1.0  0.5925596420128303  0.3221820498149838  0.7968761949014151  1.0000
  C   C43       1.0  0.5757060082339863  0.2862504357838062  0.8578762346669038  1.0000
  C   C44       1.0  0.5150699342124199  0.1912106143970007  0.8675641934615967  1.0000
  C   C45       1.0  0.4718416729111043  0.1341989211823034  0.8156595176333283  1.0000
  C   C46       1.0  0.4818635099410855  0.1734171856971756  0.7550336967323618  1.0000
  C   C47       1.0  0.5313067267635109  0.31115623099758943  0.6796472719835549  1.0000
  C   C48       1.0  0.4957979490521895  0.15403600389481645  0.9336711177402038  1.0000
  N   N1        1.0  0.7912492066734489  0.0932005222640484  0.062400007794146  1.0000
  N   N2        1.0  0.8023841229877533  0.9025289065005494  0.9368105717374818  1.0000
  N   N3        1.0  0.14343146668161924  0.5951746315085912  0.4380402911288002  1.0000
  N   N4        1.0  0.19537269075483016  0.3992378513043206  0.5657600980147777  1.0000
  N   N5        1.0  0.17030947037001448  0.9054293560061593  0.9375387101516921  1.0000
  N   N6        1.0  0.1590293442906798  0.10165967199164781  0.06327916181120939  1.0000
  N   N7        1.0  0.828323436602524  0.406119930208753  0.5618480739266474  1.0000
  N   N8        1.0  0.7761606965013287  0.5928507386105365  0.4337216711797467  1.0000
  N   N9        1.0  0.6470230068470216  0.0806923669062272  0.288234133586684  1.0000
  N   N10       1.0  0.3098614355447965  0.9169316835258883  0.7118352235315797  1.0000
  N   N11       1.0  0.6457001541180034  0.5802159740482221  0.2087015726795656  1.0000
  N   N12       1.0  0.6747345812991982  0.4186080031054189  0.7888690243773482  1.0000
  O   O1        1.0  0.4382636857303838  0.10370453622694947  0.175874233689747  1.0000
  O   O2        1.0  0.5509050608802184  0.23975783813718712  0.1315396232270132  1.0000
  O   O3        1.0  0.7558823444351009  0.06729236206511757  0.2435456382268555  1.0000
  O   O4        1.0  0.3486996375572318  0.9782320061658819  0.6707362447932113  1.0000
  O   O5        1.0  0.597498233168466  0.5180973247197613  0.1707938340169264  1.0000
  O   O6        1.0  0.6314788748025181  0.4813967628108173  0.8282341396899184  1.0000
  O   O7        1.0  0.5229545910471742  0.8976149004971957  0.8249397461990283  1.0000
  O   O8        1.0  0.41279067287351984  0.7601963461964729  0.8682758835048858  1.0000
  O   O9        1.0  0.20605659672521173  0.929957855933658  0.7580398731678244  1.0000
  O   O10       1.0  0.5996668015080145  0.0191991682479937  0.328115699253658  1.0000
  O   O11       1.0  0.47335048636915644  0.3975713049099737  0.6757008932029437  1.0000
  O   O12       1.0  0.5732628295616351  0.258898361870976  0.6323552660222873  1.0000
  O   O13       1.0  0.7861205395783559  0.4297478025636181  0.7445776508573232  1.0000
  O   O14       1.0  0.4357090687081567  0.6057468806161879  0.3251573340420677  1.0000
  O   O15       1.0  0.5473723917583443  0.7409867398635298  0.3676054446626935  1.0000
  O   O16       1.0  0.7543467392929275  0.5673224833769552  0.2502265940697157  1.0000
  O   O17       1.0  0.4361515289204689  0.43658414119647665  0.44102683044963  1.0000
  O   O18       1.0  0.5458007209343663  0.2979330570681568  0.4764276742341664  1.0000
  O   O19       1.0  0.5374792931037148  0.5634950380433636  0.5594267653889773  1.0000
  O   O20       1.0  0.4179743494959425  0.6996324833063666  0.5238110872808619  1.0000
  O   O21       1.0  0.4525344244642184  0.9357149203085554  0.0580720841451239  1.0000
  O   O22       1.0  0.5171826519152276  0.788373433663871  0.021600716414248204  1.0000
  O   O23       1.0  0.46732889653479504  0.0639246007283703  0.9438259533131728  1.0000
  O   O24       1.0  0.5059436216097737  0.2143048659115294  0.9788250212363893  1.0000
