data_image0
_chemical_formula_structural       Sm4H32C24O28
_chemical_formula_sum              "Sm4 H32 C24 O28"
_cell_length_a       7.789966862241043
_cell_length_b       10.804896505777588
_cell_length_c       12.77001814338241
_cell_angle_alpha    71.77925434383152
_cell_angle_beta     72.22930830254795
_cell_angle_gamma    68.85610103697343

_space_group_name_H-M_alt    "P 1"
_space_group_IT_number       1

loop_
  _space_group_symop_operation_xyz
  'x, y, z'

loop_
  _atom_site_type_symbol
  _atom_site_label
  _atom_site_symmetry_multiplicity
  _atom_site_fract_x
  _atom_site_fract_y
  _atom_site_fract_z
  _atom_site_occupancy
  Sm  Sm1       1.0  0.01571295666575872  0.30978841253470074  0.22918282925579092  1.0000
  Sm  Sm2       1.0  0.5547068660785968  0.19015268170716834  0.2708507053433564  1.0000
  Sm  Sm3       1.0  0.984286833727694  0.6902112332143203  0.7708177135931891  1.0000
  Sm  Sm4       1.0  0.4452944938240928  0.8098469659700456  0.7291482716859933  1.0000
  H   H1        1.0  0.8225637067400978  0.5823088040891732  0.08820934938026428  1.0000
  H   H2        1.0  0.49317991165429464  0.9176733115868883  0.4117434897867085  1.0000
  H   H3        1.0  0.1774356698352122  0.4176918608367828  0.911791001669073  1.0000
  H   H4        1.0  0.5068217594335702  0.08232633470648662  0.5882565223195613  1.0000
  H   H5        1.0  0.6625978562177436  0.501115380612795  0.14541667591691976  1.0000
  H   H6        1.0  0.3092757074978249  0.9988946666542019  0.35447140614255085  1.0000
  H   H7        1.0  0.3374011494210905  0.4988842641721264  0.8545846498418682  1.0000
  H   H8        1.0  0.6907240828956274  0.0011049790948191997  0.6455291367064291  1.0000
  H   H9        1.0  0.09298605674921827  0.8315098417997574  0.486018520425489  1.0000
  H   H10       1.0  0.4105907806358501  0.6683903010557725  0.0139364360670697  1.0000
  H   H11       1.0  0.9070131112738763  0.16848980671694846  0.5139799522696435  1.0000
  H   H12       1.0  0.5894090097576026  0.3316093446932483  0.986064106781903  1.0000
  H   H13       1.0  0.1888464577519498  0.7950327320477794  0.35184901457529355  1.0000
  H   H14       1.0  0.3356020225800264  0.7048657036072327  0.14811890492596547  1.0000
  H   H15       1.0  0.8111546968848202  0.20496895121563344  0.6481516490086179  1.0000
  H   H16       1.0  0.6643977678134261  0.2951339421417885  0.8518816379230145  1.0000
  H   H17       1.0  0.872328515971162  0.7592045056381805  0.36085262538502855  1.0000
  H   H18       1.0  0.9922556342148563  0.7410257229317453  0.13899654150088733  1.0000
  H   H19       1.0  0.12767555226221106  0.24079310422951028  0.6391462045009035  1.0000
  H   H20       1.0  0.007744053545636007  0.258974940610372  0.8610048446253701  1.0000
  H   H21       1.0  0.010229286597194742  0.6367596068924327  0.45797410990999055  1.0000
  H   H22       1.0  0.10510764658999258  0.8633371291814738  0.04190991320818686  1.0000
  H   H23       1.0  0.9897755663907969  0.36323800393935807  0.5420239370661264  1.0000
  H   H24       1.0  0.8948921438034602  0.13666251656754713  0.9580906296407862  1.0000
  H   H25       1.0  0.34152739226502843  0.13379989439298606  0.9724710588081605  1.0000
  H   H26       1.0  0.44744912467729847  0.3663810281722276  0.527551041707035  1.0000
  H   H27       1.0  0.6584716731251061  0.866200771916816  0.027528257164249118  1.0000
  H   H28       1.0  0.5525514504707727  0.6336186185408933  0.4724487182321226  1.0000
  H   H29       1.0  0.31085182130267697  0.9968910751916481  0.08536231027284202  1.0000
  H   H30       1.0  0.3927843917868686  0.5033941475222719  0.4147165649999991  1.0000
  H   H31       1.0  0.6891476579056003  0.0031085719412117987  0.9146371974992107  1.0000
  H   H32       1.0  0.6072153986065839  0.4966054982267494  0.5852839778489809  1.0000
  C   C1        1.0  0.969252353450315  0.9827377897500257  0.35513270626343985  1.0000
  C   C2        1.0  0.30688389049573317  0.517287235620266  0.14484640552406353  1.0000
  C   C3        1.0  0.03074743694313743  0.017261855998988593  0.6448678365855328  1.0000
  C   C4        1.0  0.6931158998977189  0.48271241012875526  0.8551541373249093  1.0000
  C   C5        1.0  0.05476420031510538  0.8340632798052567  0.40912745076843043  1.0000
  C   C6        1.0  0.2978846519579578  0.6659184199514881  0.09078932041371966  1.0000
  C   C7        1.0  0.9452363748329659  0.16593636690786437  0.5908723091707273  1.0000
  C   C8        1.0  0.702114353680883  0.33408122483343317  0.9092120053450614  1.0000
  C   C9        1.0  0.9267128866481968  0.7438376567057786  0.4350640028379473  1.0000
  C   C10       1.0  0.10562223078338921  0.7563101416587513  0.0648222211079386  1.0000
  C   C11       1.0  0.07328648992712058  0.25616300822018445  0.5649363482113898  1.0000
  C   C12       1.0  0.8943775596100633  0.2436895040902698  0.9351783217410345  1.0000
  C   C13       1.0  0.761997687352782  0.7683304442168007  0.5339834558990333  1.0000
  C   C14       1.0  0.06438677815559389  0.7318623122671822  0.965888419760425  1.0000
  C   C15       1.0  0.2380048711226621  0.231668185247571  0.4660149300201439  1.0000
  C   C16       1.0  0.9356107177253036  0.2681383521144198  0.034112462031608  1.0000
  C   C17       1.0  0.47305410871820885  0.10495660065125625  0.10467075100348919  1.0000
  C   C18       1.0  0.6824412932166197  0.3950268565655363  0.3953018987027335  1.0000
  C   C19       1.0  0.5269449566719259  0.8950440656585387  0.8953285649689207  1.0000
  C   C20       1.0  0.3175595931166344  0.6049727887637387  0.6046988963133515  1.0000
  C   C21       1.0  0.4171724024735042  0.048150698596643296  0.030992318987266298  1.0000
  C   C22       1.0  0.4960891317406816  0.4519593122124022  0.4690154728045002  1.0000
  C   C23       1.0  0.5828266629166307  0.9518499677131587  0.9690069969851436  1.0000
  C   C24       1.0  0.5039117545925645  0.5480403331168731  0.5309853222115848  1.0000
  O   O1        1.0  0.7764513364687597  0.5145222039255798  0.15372940505809393  1.0000
  O   O2        1.0  0.4448840476920351  0.9854319432225008  0.34618724376098703  1.0000
  O   O3        1.0  0.22354735798489828  0.4854774422431802  0.8462708856237741  1.0000
  O   O4        1.0  0.5551153288832819  0.014568721703462  0.6538131072883431  1.0000
  O   O5        1.0  0.070031830884453  0.06374173670417349  0.328006053893219  1.0000
  O   O6        1.0  0.4616307867307511  0.43623528905898457  0.17188392591691573  1.0000
  O   O7        1.0  0.9299671747543811  0.9362579080807479  0.671995271865569  1.0000
  O   O8        1.0  0.538370884357114  0.5637643572343903  0.8281160861893541  1.0000
  O   O9        1.0  0.8035765365942493  0.0171829336741141  0.3406097585733007  1.0000
  O   O10       1.0  0.1610014924826756  0.48294411207854876  0.15955510518826094  1.0000
  O   O11       1.0  0.19642325379919606  0.9828167120749  0.6593907842756721  1.0000
  O   O12       1.0  0.8389982979107771  0.5170555336704723  0.840445437660719  1.0000
  O   O13       1.0  0.5924361109912153  0.8158575110497207  0.5220509068948687  1.0000
  O   O14       1.0  0.9305412238907413  0.6842441601569362  0.9778460202886664  1.0000
  O   O15       1.0  0.40756634485126136  0.18414213620775396  0.4779483223015859  1.0000
  O   O16       1.0  0.06945887768789308  0.31575548420824606  0.02215555763722681  1.0000
  O   O17       1.0  0.7916942506341437  0.737355826731047  0.6340753607258236  1.0000
  O   O18       1.0  0.1631492515862545  0.7629111336202355  0.8657672074804524  1.0000
  O   O19       1.0  0.20830789402315736  0.2626438219102666  0.36592283339371795  1.0000
  O   O20       1.0  0.8368494428674041  0.23708851254853147  0.1342330832014085  1.0000
  O   O21       1.0  0.34470866721764526  0.1942852181005392  0.1573466219205528  1.0000
  O   O22       1.0  0.6960509073392058  0.30580745189543984  0.34257262985980935  1.0000
  O   O23       1.0  0.6552885174780769  0.8057154476649017  0.8426532247945602  1.0000
  O   O24       1.0  0.3039484692361113  0.6941932130305234  0.6574277211895208  1.0000
  O   O25       1.0  0.6406926893193583  0.06793613269845618  0.11610724213257842  1.0000
  O   O26       1.0  0.8246443596143819  0.4318336383329892  0.38394178659277145  1.0000
  O   O27       1.0  0.3593040815582285  0.932065552243934  0.8838924127828988  1.0000
  O   O28       1.0  0.17535464602445228  0.5681660064519319  0.6160595391660166  1.0000
