data_image0
_chemical_formula_structural       Mn2H32C48N4O8
_chemical_formula_sum              "Mn2 H32 C48 N4 O8"
_cell_length_a       7.204894383568705
_cell_length_b       11.861784147137701
_cell_length_c       12.21866065294958
_cell_angle_alpha    119.04276290745113
_cell_angle_beta     91.54389088618854
_cell_angle_gamma    89.97838549848535

_space_group_name_H-M_alt    "P 1"
_space_group_IT_number       1

loop_
  _space_group_symop_operation_xyz
  'x, y, z'

loop_
  _atom_site_type_symbol
  _atom_site_label
  _atom_site_symmetry_multiplicity
  _atom_site_fract_x
  _atom_site_fract_y
  _atom_site_fract_z
  _atom_site_occupancy
  Mn  Mn1       1.0  0.7498106959414912  0.8732705145122778  4.413635422646698e-05  1.0000
  Mn  Mn2       1.0  0.2501881753874217  0.1267265305063319  0.9999578692605127  1.0000
  H   H1        1.0  0.6016831614068394  0.4319517155790821  0.3149516756287269  1.0000
  H   H2        1.0  0.8983644205775863  0.11708819009565015  0.6849472040193375  1.0000
  H   H3        1.0  0.39832709130310917  0.5680520404621064  0.6850488296943807  1.0000
  H   H4        1.0  0.10163441975205964  0.8829011445384723  0.31503970737453096  1.0000
  H   H5        1.0  0.8110975894386528  0.09198222492762649  0.3089713302965791  1.0000
  H   H6        1.0  0.6888431075036225  0.7836220677627921  0.6916723227592668  1.0000
  H   H7        1.0  0.18890848538342206  0.908022510121505  0.6910320014775165  1.0000
  H   H8        1.0  0.31116433959792295  0.21637784317025682  0.30832139823684196  1.0000
  H   H9        1.0  0.053877465643473996  0.6910156913155773  0.02594462841118165  1.0000
  H   H10       1.0  0.4458041044534086  0.664970295404281  0.9742238407743643  1.0000
  H   H11       1.0  0.9461257088341172  0.3089861599953281  0.9740597363649854  1.0000
  H   H12       1.0  0.5541795077890371  0.33502295239651403  0.025768677985617237  1.0000
  H   H13       1.0  0.7304002361648543  0.5651239532339645  0.5311047183719353  1.0000
  H   H14       1.0  0.769437343851422  0.033802441229568096  0.4688543538983793  1.0000
  H   H15       1.0  0.2696087385271824  0.434882701839065  0.46889548912070467  1.0000
  H   H16       1.0  0.2305631751089905  0.9661965323716116  0.5311363197521003  1.0000
  H   H17       1.0  0.9402975238690631  0.22170767652384174  0.52517947712672  1.0000
  H   H18       1.0  0.5597905661737741  0.6966710018889728  0.47540378885751977  1.0000
  H   H19       1.0  0.0597128123480957  0.7782999363841793  0.47482448527133386  1.0000
  H   H20       1.0  0.44022653022103253  0.3033279071885957  0.5245921241775022  1.0000
  H   H21       1.0  0.7051627128162753  0.6333499095504606  0.7308263095608395  1.0000
  H   H22       1.0  0.794857049110128  0.9021022021899229  0.26921173115619007  1.0000
  H   H23       1.0  0.2948461113100223  0.36665481440982006  0.26917871345111166  1.0000
  H   H24       1.0  0.20511958248322062  0.0978939617966645  0.7307893774040792  1.0000
  H   H25       1.0  0.12090216414699743  0.3478982690888727  0.669555734964895  1.0000
  H   H26       1.0  0.3789910803989543  0.6782599717073765  0.33059473758356717  1.0000
  H   H27       1.0  0.8791026331317086  0.6521103287064348  0.3304493902581242  1.0000
  H   H28       1.0  0.6209951582595251  0.32173229827598965  0.6694047431987613  1.0000
  H   H29       1.0  0.21551858744750518  0.4789290913738211  0.8940595864144782  1.0000
  H   H30       1.0  0.28441366299185233  0.5847559208911546  0.10611181294243005  1.0000
  H   H31       1.0  0.7844860301643095  0.5210737197815761  0.10594362522451209  1.0000
  H   H32       1.0  0.7155838608879819  0.41524113034171245  0.8938877110391841  1.0000
  C   C1        1.0  0.9060408501791813  0.47967977685531327  0.6783305122726515  1.0000
  C   C2        1.0  0.593949887102184  0.8011169556672969  0.32186480417534813  1.0000
  C   C3        1.0  0.09396375383111893  0.5203230339651627  0.3216735173734336  1.0000
  C   C4        1.0  0.4060339864162472  0.1988820807829086  0.6781247201260712  1.0000
  C   C5        1.0  0.6963916000559395  0.2524914755969264  0.2986469963811018  1.0000
  C   C6        1.0  0.8035355727486718  0.9542500534753559  0.7016623466211271  1.0000
  C   C7        1.0  0.3036172920779451  0.7475132500379403  0.7013539365953604  1.0000
  C   C8        1.0  0.19646510990446597  0.0457498878591522  0.2983206022235692  1.0000
  C   C9        1.0  0.6050400877901158  0.1663736749776916  0.1722917015803276  1.0000
  C   C10       1.0  0.8949825478684945  0.9945585976462681  0.8280193047357826  1.0000
  C   C11       1.0  0.39496032425627453  0.8336291508014783  0.8277138812444632  1.0000
  C   C12       1.0  0.10501357510525373  0.005440385889862401  0.1719851921998625  1.0000
  C   C13       1.0  0.6749150107482366  0.38653711518677625  0.362249443918074  1.0000
  C   C14       1.0  0.8250343753888959  0.0244387073178984  0.6378347217675469  1.0000
  C   C15       1.0  0.32508974477686087  0.6134695541751184  0.6377539527674684  1.0000
  C   C16       1.0  0.17496874183545694  0.9755573603673467  0.3621603673607153  1.0000
  C   C17       1.0  0.795343543858671  0.1959950844441208  0.3591671318979549  1.0000
  C   C18       1.0  0.7046331549639149  0.837262766102668  0.6413063554513057  1.0000
  C   C19       1.0  0.20466404257974358  0.8040115758384164  0.6408330479828593  1.0000
  C   C20       1.0  0.2953784859996489  0.16274098472901238  0.35869417748363464  1.0000
  C   C21       1.0  0.8401880906697559  0.4035772228138511  0.5465896305808116  1.0000
  C   C22       1.0  0.6598012577492725  0.8568845514672746  0.45360439481819986  1.0000
  C   C23       1.0  0.1598192748226879  0.5964226861096974  0.4534089984578813  1.0000
  C   C24       1.0  0.34019498906172174  0.143117326226097  0.5463990138917154  1.0000
  C   C25       1.0  0.014818360524067506  0.6272195134691998  0.9278583576003853  1.0000
  C   C26       1.0  0.48497857793911703  0.699239388989298  0.0723163109079366  1.0000
  C   C27       1.0  0.9851848275550383  0.3727823381766271  0.07214518916868684  1.0000
  C   C28       1.0  0.5150160183931974  0.30075477783550747  0.9276858820899392  1.0000
  C   C29       1.0  0.7457930165901061  0.4608774515982219  0.4841662673212851  1.0000
  C   C30       1.0  0.7540818290913692  0.9766376160909047  0.5159221211947411  1.0000
  C   C31       1.0  0.2542171953152916  0.5391263034382164  0.5158366920231146  1.0000
  C   C32       1.0  0.24592677361442847  0.02335939279605979  0.4840792596957114  1.0000
  C   C33       1.0  0.8664014085886083  0.26950346531233993  0.4804664508256663  1.0000
  C   C34       1.0  0.6336137446641531  0.7891838242995134  0.5199539436446513  1.0000
  C   C35       1.0  0.1336087474871377  0.7304973972414359  0.5195335067089744  1.0000
  C   C36       1.0  0.36637786829099644  0.21080456563456815  0.4800479165597338  1.0000
  C   C37       1.0  0.8231103457326442  0.5965568231906032  0.7608001990526246  1.0000
  C   C38       1.0  0.6768732710802327  0.8354030595212976  0.2393323262481886  1.0000
  C   C39       1.0  0.17689148177040442  0.40344599804889475  0.23920377536980197  1.0000
  C   C40       1.0  0.3231212825494154  0.16458725144143216  0.7606639556534487  1.0000
  C   C41       1.0  0.04968048656418491  0.4372127126988942  0.7288294342502153  1.0000
  C   C42       1.0  0.4502442942599886  0.7082482326622852  0.2713347394311255  1.0000
  C   C43       1.0  0.9503227427940005  0.5627901036660178  0.271173749776942  1.0000
  C   C44       1.0  0.5497390144783268  0.29173633434135837  0.7286569539705495  1.0000
  C   C45       1.0  0.10373699637678162  0.5110316532981116  0.8543110710717343  1.0000
  C   C46       1.0  0.3961494779231033  0.6566069781945884  0.14585964457547357  1.0000
  C   C47       1.0  0.8962648170502238  0.48897020389213713  0.1456916300784101  1.0000
  C   C48       1.0  0.6038353851342038  0.34338336990453666  0.8541348080291583  1.0000
  N   N1        1.0  0.875865099743294  0.6689040137186523  0.8814772980300984  1.0000
  N   N2        1.0  0.6239830749977601  0.7871826092277205  0.11867989209129351  1.0000
  N   N3        1.0  0.12413531182856732  0.3310978483461895  0.1185261935153079  1.0000
  N   N4        1.0  0.3760006367260545  0.2128193143464827  0.8813257221334396  1.0000
  O   O1        1.0  0.4967767703286726  0.21889259527203106  0.12635852349850296  1.0000
  O   O2        1.0  0.0037077877255740003  0.09271028841619969  0.8736425908110873  1.0000
  O   O3        1.0  0.503222226261059  0.7811102350468175  0.873648667728652  1.0000
  O   O4        1.0  0.9962897633572967  0.9072867634864963  0.126355297156337  1.0000
  O   O5        1.0  0.6339876606496234  0.04644016712223479  0.12409242711533608  1.0000
  O   O6        1.0  0.8656165912838462  0.9231708373737181  0.8765150158432676  1.0000
  O   O7        1.0  0.36601834521581383  0.9535626388236551  0.87591081213548  1.0000
  O   O8        1.0  0.13436713261790353  0.0768281953924017  0.1234835065362248  1.0000
