data_image0
_chemical_formula_structural       Al2H6C20S2N2O14F2
_chemical_formula_sum              "Al2 H6 C20 S2 N2 O14 F2"
_cell_length_a       6.655092523582767
_cell_length_b       11.110487098203802
_cell_length_c       12.76835145093078
_cell_angle_alpha    83.55054101333923
_cell_angle_beta     74.53208811035655
_cell_angle_gamma    73.08140246015479

_space_group_name_H-M_alt    "P 1"
_space_group_IT_number       1

loop_
  _space_group_symop_operation_xyz
  'x, y, z'

loop_
  _atom_site_type_symbol
  _atom_site_label
  _atom_site_symmetry_multiplicity
  _atom_site_fract_x
  _atom_site_fract_y
  _atom_site_fract_z
  _atom_site_occupancy
  Al  Al1       1.0  0.4905695501666117  0.5015488005124312  0.5072538252327591  1.0000
  Al  Al2       1.0  0.9920580415185684  0.5030000518494191  0.5055841034030168  1.0000
  H   H1        1.0  0.2703236302920686  0.35710349006234315  0.5818054439741546  1.0000
  H   H2        1.0  0.7709949194982995  0.5724938573302155  0.3769852951444436  1.0000
  H   H3        1.0  0.20581382576174434  0.23939771425606435  0.34486206057096797  1.0000
  H   H4        1.0  0.544982720863196  0.12540817114950192  0.22255270308521355  1.0000
  H   H5        1.0  0.4484556854224592  0.7701624481169772  0.36406195517093937  1.0000
  H   H6        1.0  0.666337339704519  0.8901558754793655  0.2313387594935251  1.0000
  C   C1        1.0  0.8497822124958321  0.27571741215604106  0.49519349390653417  1.0000
  C   C2        1.0  0.6492388830935029  0.5041872174213536  0.6991272931858464  1.0000
  C   C3        1.0  0.138026898786947  0.7263493278399977  0.5161823347742003  1.0000
  C   C4        1.0  0.33763696324318465  0.5014143481744426  0.30925547260388003  1.0000
  C   C5        1.0  0.4126172657298144  0.472085056633297  0.8895166058267636  1.0000
  C   C6        1.0  0.5802535070857643  0.5286266659521885  0.11882802794405486  1.0000
  C   C7        1.0  0.5886203743221969  0.5036929945627833  0.8180510624706444  1.0000
  C   C8        1.0  0.4033082945719854  0.4985908059068294  0.1907152394421986  1.0000
  C   C9        1.0  0.5868648845460598  0.5186069434043149  0.008746847433165792  1.0000
  C   C10       1.0  0.409060007333075  0.47996245703087936  0.9994588374432214  1.0000
  C   C11       1.0  0.92248124784647  0.1343680894260544  0.4941581202470431  1.0000
  C   C12       1.0  0.12584841150735576  0.0706317249217747  0.4261791229843511  1.0000
  C   C13       1.0  0.7957097681469278  0.0652808348999869  0.5634838747842823  1.0000
  C   C14       1.0  0.2565959953114786  0.1369682586999659  0.349443020237601  1.0000
  C   C15       1.0  0.4469544897297411  0.072786957193351  0.2810300494420944  1.0000
  C   C16       1.0  0.06865531834018414  0.8682816206705083  0.5108642041851043  1.0000
  C   C17       1.0  0.8725136884862152  0.9333333440801114  0.5752923468210869  1.0000
  C   C18       1.0  0.1969810106722676  0.9353448453483608  0.4325089943157466  1.0000
  C   C19       1.0  0.3935144629898844  0.8724328067496288  0.3599408408143462  1.0000
  C   C20       1.0  0.5156590480809343  0.9398362715016617  0.28608398915069  1.0000
  S   S1        1.0  0.7543807569857679  0.5436070042332802  0.8851593595627779  1.0000
  S   S2        1.0  0.2391399824931781  0.45710178956557723  0.1231044399909393  1.0000
  N   N1        1.0  0.7474980817771241  0.8642409115495866  0.660784715055307  1.0000
  N   N2        1.0  0.5855062830047757  0.13325762911005504  0.6347160565750374  1.0000
  O   O1        1.0  0.6627753443624016  0.32855997164796946  0.47994978175177055  1.0000
  O   O2        1.0  0.8312581419083217  0.5252763557443741  0.6522978629377862  1.0000
  O   O3        1.0  0.008496965818217517  0.6737815163198988  0.4947814817140925  1.0000
  O   O4        1.0  0.4658499918081774  0.5245566992603939  0.3579482154836101  1.0000
  O   O5        1.0  0.3218370607777103  0.6728779314078253  0.5340092760845041  1.0000
  O   O6        1.0  0.15279531701424526  0.48182095335293706  0.354276800508636  1.0000
  O   O7        1.0  0.9810270662367556  0.3288485817832907  0.5136826452052932  1.0000
  O   O8        1.0  0.5185767181554723  0.4818633944186247  0.6519587540339844  1.0000
  O   O9        1.0  0.24719953847920098  0.442499778509486  0.550082189244556  1.0000
  O   O10       1.0  0.7405690373705909  0.5569981882217476  0.4552265564959372  1.0000
  O   O11       1.0  0.8527688184193636  0.7792181801435658  0.7120014468107814  1.0000
  O   O12       1.0  0.5478136974476017  0.8969489303297136  0.6760561153282867  1.0000
  O   O13       1.0  0.4247045977527791  0.16137493473706135  0.5969432666384692  1.0000
  O   O14       1.0  0.5912673113773865  0.15956121606052417  0.7251178493654395  1.0000
  F   F1        1.0  0.2608699171901492  0.4363681020822482  0.8595697762086733  1.0000
  F   F2        1.0  0.730481947815271  0.5664694336144224  0.14925555782489403  1.0000
