data_image0
_chemical_formula_structural       Zn8H56C40O44
_chemical_formula_sum              "Zn8 H56 C40 O44"
_cell_length_a       8.254055931000218
_cell_length_b       8.96656901446848
_cell_length_c       19.179275186397213
_cell_angle_alpha    103.60307831138606
_cell_angle_beta     90.00002419006724
_cell_angle_gamma    90.00000442843776

_space_group_name_H-M_alt    "P 1"
_space_group_IT_number       1

loop_
  _space_group_symop_operation_xyz
  'x, y, z'

loop_
  _atom_site_type_symbol
  _atom_site_label
  _atom_site_symmetry_multiplicity
  _atom_site_fract_x
  _atom_site_fract_y
  _atom_site_fract_z
  _atom_site_occupancy
  Zn  Zn1       1.0  0.12138924498354699  0.2015792280352287  0.8754080678438286  1.0000
  Zn  Zn2       1.0  0.6213954295745552  0.29841765191079617  0.6245902565608717  1.0000
  Zn  Zn3       1.0  0.878608144176681  0.7984255368294341  0.12458722585390093  1.0000
  Zn  Zn4       1.0  0.37860680569099253  0.7015803034003624  0.37541160245830707  1.0000
  Zn  Zn5       1.0  0.27055694179053086  0.25754392241567103  0.5044043106444037  1.0000
  Zn  Zn6       1.0  0.7705550061218032  0.24245300536112782  0.9955961316219231  1.0000
  Zn  Zn7       1.0  0.729444081949893  0.7424563331116616  0.49559831781905933  1.0000
  Zn  Zn8       1.0  0.22944359456476343  0.7575460491518838  0.004401153312358016  1.0000
  H   H1        1.0  0.14888468693137466  0.6731771361067799  0.5706665318172811  1.0000
  H   H2        1.0  0.64888753881349  0.8268214183586052  0.9293327179697712  1.0000
  H   H3        1.0  0.8511223944352009  0.3268173554840885  0.42933286808664667  1.0000
  H   H4        1.0  0.351121965604598  0.17318224194644216  0.0706666278340577  1.0000
  H   H5        1.0  0.04442942606571169  0.87139468016602  0.6619684878098868  1.0000
  H   H6        1.0  0.5444285380825774  0.6286072873837368  0.8380300682463115  1.0000
  H   H7        1.0  0.9555740207237874  0.12860209556524177  0.3380301155991036  1.0000
  H   H8        1.0  0.4555712741303849  0.37140323605960646  0.161967932032141  1.0000
  H   H9        1.0  0.08629002582853929  0.9541644345145955  0.5892757674389628  1.0000
  H   H10       1.0  0.5862843567423823  0.545836403730753  0.9107237172467677  1.0000
  H   H11       1.0  0.9137170555376173  0.04582546736077829  0.41072313753548434  1.0000
  H   H12       1.0  0.4137093978436396  0.45417414114615434  0.08927637094970463  1.0000
  H   H13       1.0  0.16289481511319787  0.11952747168025007  0.7087744880940718  1.0000
  H   H14       1.0  0.6628926892946507  0.38047287933077456  0.7912263037573269  1.0000
  H   H15       1.0  0.8371001509965906  0.8804715828324347  0.291222796839847  1.0000
  H   H16       1.0  0.3370998537661761  0.6195308024068638  0.20877512996342065  1.0000
  H   H17       1.0  0.2342657977340535  0.6592456906415691  0.6861214568162313  1.0000
  H   H18       1.0  0.7342697487080084  0.8407528735748215  0.8138772881306124  1.0000
  H   H19       1.0  0.7657267453274839  0.34075457024353983  0.31388169362602986  1.0000
  H   H20       1.0  0.2657300635037458  0.15924731765012007  0.1861190765768441  1.0000
  H   H21       1.0  0.48305624672450864  0.7695494110175006  0.7466038929726508  1.0000
  H   H22       1.0  0.9830589180700285  0.730446923802205  0.753396742369965  1.0000
  H   H23       1.0  0.5169411424399684  0.23045429751317667  0.25340015064686844  1.0000
  H   H24       1.0  0.01694452871844729  0.2695498304949595  0.2465997731204013  1.0000
  H   H25       1.0  0.5367340675166259  0.851752668494953  0.6747755740278479  1.0000
  H   H26       1.0  0.036733887034174  0.6482458714820041  0.8252241752255217  1.0000
  H   H27       1.0  0.4632633216464013  0.14824642888613224  0.32522588674356  1.0000
  H   H28       1.0  0.9632622906018253  0.351754341176715  0.17477427740019644  1.0000
  H   H29       1.0  0.22971293380365404  0.9175715004556863  0.7657254467706878  1.0000
  H   H30       1.0  0.7297143632362689  0.5824259208844325  0.734273695509252  1.0000
  H   H31       1.0  0.7702783977305997  0.08242987034851978  0.23427417354622554  1.0000
  H   H32       1.0  0.2702818144002492  0.4175743024913317  0.26572580107578153  1.0000
  H   H33       1.0  0.05572321834057448  0.3712528558398914  0.6015090583508852  1.0000
  H   H34       1.0  0.5557199667669293  0.12874290256552712  0.8984927829963426  1.0000
  H   H35       1.0  0.9442778054000057  0.628746257617088  0.3984939683598583  1.0000
  H   H36       1.0  0.4442774223948688  0.8712538785237173  0.10150634239170134  1.0000
  H   H37       1.0  0.946232051098441  0.27117160016283043  0.5386601732853507  1.0000
  H   H38       1.0  0.44622958771116555  0.22882422734888047  0.961341746452412  1.0000
  H   H39       1.0  0.05376776111613419  0.7288286500058732  0.46134193319833383  1.0000
  H   H40       1.0  0.5537665899252318  0.7711691221706757  0.03865805169770914  1.0000
  H   H41       1.0  0.28805253411260157  0.40049496927515094  0.39385702287128777  1.0000
  H   H42       1.0  0.7880550504197855  0.09950119614197922  0.10614417711062882  1.0000
  H   H43       1.0  0.7119460665764946  0.5995064283223144  0.6061452073446463  1.0000
  H   H44       1.0  0.21194960789509304  0.9004932847316384  0.8938541788337419  1.0000
  H   H45       1.0  0.12447479439966708  0.44726528138820504  0.43630061202369325  1.0000
  H   H46       1.0  0.6244760537862247  0.052729691576907094  0.0636988654502844  1.0000
  H   H47       1.0  0.8755250178147023  0.5527326739227404  0.5637012469952438  1.0000
  H   H48       1.0  0.3755249699520816  0.9472670841541342  0.9362997379584641  1.0000
  H   H49       1.0  0.21738665219428543  0.023147566572355106  0.3889570706031762  1.0000
  H   H50       1.0  0.7173904143783004  0.47685202862615483  0.11104448639055421  1.0000
  H   H51       1.0  0.7826083139172437  0.9768480885218908  0.6110440189708727  1.0000
  H   H52       1.0  0.2826081863100852  0.5231527898238469  0.8889560271038592  1.0000
  H   H53       1.0  0.22967886148834535  0.9575748246243024  0.45825444986112984  1.0000
  H   H54       1.0  0.7296800984819211  0.5424218366121283  0.04174596859470374  1.0000
  H   H55       1.0  0.7703221622518653  0.04242313604527229  0.5417479311375857  1.0000
  H   H56       1.0  0.27032213678178607  0.45757837068860147  0.9582519620519676  1.0000
  C   C1        1.0  0.3517473649575037  0.7756022764976506  0.5355893472703458  1.0000
  C   C2        1.0  0.851738128059189  0.7243986301580136  0.96441227862136  1.0000
  C   C3        1.0  0.6482597164107061  0.22438766824590317  0.46441373354134907  1.0000
  C   C4        1.0  0.14825804957761327  0.2756130514309376  0.03558688934840861  1.0000
  C   C5        1.0  0.23797181425183564  0.7597978415022199  0.5962103197623493  1.0000
  C   C6        1.0  0.7379758457639907  0.7402041710151649  0.903789319105215  1.0000
  C   C7        1.0  0.7620316325389921  0.24019667152242616  0.40379116805983983  1.0000
  C   C8        1.0  0.26203244712832685  0.25980864728668246  0.09620892863882351  1.0000
  C   C9        1.0  0.14314451724121108  0.9060714875942962  0.6305726682627154  1.0000
  C   C10       1.0  0.6431448689417605  0.5939339611453606  0.8694283667253445  1.0000
  C   C11       1.0  0.8568577180231002  0.09392415142502132  0.3694268553730993  1.0000
  C   C12       1.0  0.35685494327316286  0.406081184164627  0.1305732603605279  1.0000
  C   C13       1.0  0.2455826308946598  0.0280491007954353  0.6806374481913338  1.0000
  C   C14       1.0  0.7455817514272453  0.47195240156034407  0.8193624400319452  1.0000
  C   C15       1.0  0.7544159697928947  0.9719522646508949  0.3193616501466608  1.0000
  C   C16       1.0  0.2544132146850869  0.5280547224641339  0.18063936488616153  1.0000
  C   C17       1.0  0.3290773530390111  0.6981706865254934  0.6535486218966042  1.0000
  C   C18       1.0  0.8290813329946614  0.8018290418980598  0.8464502658150224  1.0000
  C   C19       1.0  0.6709188245989849  0.30182613207330894  0.34645415734891577  1.0000
  C   C20       1.0  0.17092453684502118  0.19817916525397553  0.1535453990806701  1.0000
  C   C21       1.0  0.4335072538990514  0.8184023636040505  0.7037538314946233  1.0000
  C   C22       1.0  0.9335087520274852  0.6815927882256433  0.7962440602707874  1.0000
  C   C23       1.0  0.5664901352635069  0.18159443356076113  0.2962468598323866  1.0000
  C   C24       1.0  0.06649106018514318  0.31840856650374144  0.20375399410800552  1.0000
  C   C25       1.0  0.33037979432402403  0.958502870519439  0.7371183691636463  1.0000
  C   C26       1.0  0.8303812486822435  0.541496868851425  0.7628815627684846  1.0000
  C   C27       1.0  0.6696139602615643  0.0414973582146345  0.2628816494008035  1.0000
  C   C28       1.0  0.16961371742842596  0.45850334916570284  0.23711741183677054  1.0000
  C   C29       1.0  0.3558072120088837  0.11197843322979388  0.6388382194783659  1.0000
  C   C30       1.0  0.8557978863919186  0.3880115982667575  0.8611588876077862  1.0000
  C   C31       1.0  0.644193811728229  0.888013736710178  0.36115832306192897  1.0000
  C   C32       1.0  0.14419102209155446  0.6119886358254051  0.13884165293583106  1.0000
  C   C33       1.0  0.4135630670076082  0.54977071406649  0.6181618434259732  1.0000
  C   C34       1.0  0.9135658818470843  0.9502267398087129  0.8818373357600536  1.0000
  C   C35       1.0  0.5864343221545311  0.45022149338281997  0.3818383529715562  1.0000
  C   C36       1.0  0.08643271884151457  0.049780373499039896  0.1181634251991071  1.0000
  C   C37       1.0  0.4154664426398184  0.0758748631666535  0.7960805995650305  1.0000
  C   C38       1.0  0.9154642343909242  0.4241232216072675  0.7039184295836947  1.0000
  C   C39       1.0  0.5845394272002763  0.9241322072735516  0.2039159855576075  1.0000
  C   C40       1.0  0.08453436629682187  0.5758747122694814  0.2960813415164907  1.0000
  O   O1        1.0  0.556523164432015  0.051242236680188596  0.8155662162684225  1.0000
  O   O2        1.0  0.05652650361056999  0.44875695343695543  0.6844349524778368  1.0000
  O   O3        1.0  0.44347301320542687  0.9487568607007902  0.18443524450286475  1.0000
  O   O4        1.0  0.9434757316539544  0.5512409804401128  0.31556481862271824  1.0000
  O   O5        1.0  0.04143688041386179  0.3392625234954778  0.5468113331326592  1.0000
  O   O6        1.0  0.5414361081782244  0.16073323774050863  0.9531910273266391  1.0000
  O   O7        1.0  0.9585617202750639  0.660734289745008  0.4531909241334446  1.0000
  O   O8        1.0  0.4585624925098414  0.8392681384228667  0.04680911497066384  1.0000
  O   O9        1.0  0.3329179554060601  0.19547825877364744  0.8282938113205702  1.0000
  O   O10       1.0  0.832913283071967  0.30451525382753897  0.6717078382056414  1.0000
  O   O11       1.0  0.6670818568070228  0.8045196697446853  0.17170543780009245  1.0000
  O   O12       1.0  0.16708410609085428  0.6954815486957955  0.3282933751010262  1.0000
  O   O13       1.0  0.19676772535231626  0.36034212509714075  0.41746751388441083  1.0000
  O   O14       1.0  0.6967714331106547  0.13965284994442576  0.08253093414252531  1.0000
  O   O15       1.0  0.8032320868618966  0.6396569722841575  0.5825339468872457  1.0000
  O   O16       1.0  0.30323201367821884  0.8603427676409084  0.9174665015747794  1.0000
  O   O17       1.0  0.19261703746622055  0.04648005781275801  0.4399942471385287  1.0000
  O   O18       1.0  0.692619536115039  0.45351724350306444  0.06000757939776242  1.0000
  O   O19       1.0  0.8073815632224493  0.9535167500692057  0.5600074881479176  1.0000
  O   O20       1.0  0.30738027609861257  0.5464841326604172  0.9399925628996613  1.0000
  O   O21       1.0  0.30800765212255493  0.1265863896376658  0.5783410905751296  1.0000
  O   O22       1.0  0.8080056540036081  0.37341399241172  0.9216602523857843  1.0000
  O   O23       1.0  0.6920018522957817  0.8734115495985718  0.4216592025058148  1.0000
  O   O24       1.0  0.19199779278688567  0.6265908206801852  0.07833973912946131  1.0000
  O   O25       1.0  0.4891743891225174  0.16660942453502514  0.66880610689865  1.0000
  O   O26       1.0  0.9891686643422445  0.33338525778827227  0.8311951757469702  1.0000
  O   O27       1.0  0.5108290576688501  0.8333965520613303  0.3311955742879321  1.0000
  O   O28       1.0  0.010826301768410899  0.6666092338015305  0.16880422415574975  1.0000
  O   O29       1.0  0.5014495298972433  0.7781957538522093  0.5458324945267989  1.0000
  O   O30       1.0  0.0014410012795735999  0.7218096644531471  0.9541679900369644  1.0000
  O   O31       1.0  0.4985648206258303  0.22180567053926842  0.4541723455889937  1.0000
  O   O32       1.0  0.9985624455102092  0.2781985694912947  0.045830284756768015  1.0000
  O   O33       1.0  0.2831858903114578  0.7793953238747592  0.47455793563893434  1.0000
  O   O34       1.0  0.7831883367459864  0.7205956418373914  0.025445006774070602  1.0000
  O   O35       1.0  0.7168236141084063  0.2205969210852814  0.5254459146174071  1.0000
  O   O36       1.0  0.21682116767219375  0.27940343946919904  0.9745548880595863  1.0000
  O   O37       1.0  0.3481503473702573  0.4655452517915677  0.5641252080531063  1.0000
  O   O38       1.0  0.8481556058540034  0.0344551266452555  0.9358750990074398  1.0000
  O   O39       1.0  0.6518482533189242  0.5344515668074479  0.4358775711926555  1.0000
  O   O40       1.0  0.15184541788453024  0.9655496703708691  0.06412332656859122  1.0000
  O   O41       1.0  0.5477928458362769  0.5152585840638224  0.6460585867361814  1.0000
  O   O42       1.0  0.047793931450499386  0.984733062579963  0.8539393783837073  1.0000
  O   O43       1.0  0.45220575485201653  0.48473134460341777  0.35394292813569456  1.0000
  O   O44       1.0  0.9522058807612551  0.0152671286449859  0.1460569863237495  1.0000
