data_image0
_chemical_formula_structural       K8Ni2Sn18H144C72O36
_chemical_formula_sum              "K8 Ni2 Sn18 H144 C72 O36"
_cell_length_a       10.246437676922145
_cell_length_b       19.30883128441201
_cell_length_c       20.1335132327467
_cell_angle_alpha    73.22355764113446
_cell_angle_beta     79.84089745967425
_cell_angle_gamma    84.35807159743035

_space_group_name_H-M_alt    "P 1"
_space_group_IT_number       1

loop_
  _space_group_symop_operation_xyz
  'x, y, z'

loop_
  _atom_site_type_symbol
  _atom_site_label
  _atom_site_symmetry_multiplicity
  _atom_site_fract_x
  _atom_site_fract_y
  _atom_site_fract_z
  _atom_site_occupancy
  K   K1        1.0  0.01695150025636136  0.7929950508481697  0.3083118724648698  1.0000
  K   K2        1.0  0.9833338219870242  0.20687376875081753  0.6916800135647491  1.0000
  K   K3        1.0  0.7206651873814564  0.063391587067791  0.2949588957289818  1.0000
  K   K4        1.0  0.27930747300241876  0.9365960447119192  0.7050495893252985  1.0000
  K   K5        1.0  0.2042397606764936  0.669108862519309  0.5407891121784089  1.0000
  K   K6        1.0  0.7957745462013789  0.33089995182611176  0.4592054781426142  1.0000
  K   K7        1.0  0.33401134488298817  0.7964565485597391  0.0628481318448592  1.0000
  K   K8        1.0  0.6660300659324105  0.20353749413582986  0.9371684000568549  1.0000
  Ni  Ni1       1.0  0.5152748236440132  0.8199559965393562  0.29211339977961603  1.0000
  Ni  Ni2       1.0  0.4848523642556301  0.17997139972733583  0.7078553814554382  1.0000
  Sn  Sn1       1.0  0.7264503527792384  0.8935624432107191  0.223993309538919  1.0000
  Sn  Sn2       1.0  0.2736966585707847  0.10640084284153771  0.7761502797530966  1.0000
  Sn  Sn3       1.0  0.6391031213688335  0.8539422543068441  0.38009092758930046  1.0000
  Sn  Sn4       1.0  0.36069836720746906  0.1459875464149718  0.6199886330738237  1.0000
  Sn  Sn5       1.0  0.7139271958452793  0.7238587442909931  0.2912133389898628  1.0000
  Sn  Sn6       1.0  0.2861567593429014  0.27609630188008083  0.7087453660499959  1.0000
  Sn  Sn7       1.0  0.3244221937067379  0.8739554829531931  0.2167904718779638  1.0000
  Sn  Sn8       1.0  0.6757085486293944  0.12590331279471914  0.7831736670297856  1.0000
  Sn  Sn9       1.0  0.2992729515152489  0.833722178012799  0.3788690830105707  1.0000
  Sn  Sn10      1.0  0.7008704500499333  0.1661401254706192  0.6210616905559121  1.0000
  Sn  Sn11      1.0  0.3891465608895712  0.7097222258340351  0.2885343895318115  1.0000
  Sn  Sn12      1.0  0.6113582026900416  0.29008652221627773  0.7112609768774547  1.0000
  Sn  Sn13      1.0  0.582411281537972  0.7992704638411682  0.16471673638646672  1.0000
  Sn  Sn14      1.0  0.41789870932987555  0.2009274155448892  0.8351488437495503  1.0000
  Sn  Sn15      1.0  0.4624759251354718  0.9598937915619529  0.28556045179686856  1.0000
  Sn  Sn16      1.0  0.537466262676595  0.040070708532525104  0.7144351351191317  1.0000
  Sn  Sn17      1.0  0.5043352940861822  0.712844597710351  0.4182736614043634  1.0000
  Sn  Sn18      1.0  0.49578059105336075  0.2870463004813075  0.5816637604700006  1.0000
  H   H1        1.0  0.9065144521608415  0.890713242495309  0.10392793339664048  1.0000
  H   H2        1.0  0.09346083062543188  0.1092884131513046  0.896083982403141  1.0000
  H   H3        1.0  0.9661861166228076  0.8911448542118733  0.01448503077455853  1.0000
  H   H4        1.0  0.033791169655032094  0.10886708537776  0.9855249235283594  1.0000
  H   H5        1.0  0.7529127178136859  0.8218609491880784  0.9110900864836752  1.0000
  H   H6        1.0  0.24708057340519216  0.17813983249973833  0.0888956281977897  1.0000
  H   H7        1.0  0.6912897096580505  0.8344908398954517  0.996661458303322  1.0000
  H   H8        1.0  0.30872116173993897  0.16551262400089678  0.0033264384045210934  1.0000
  H   H9        1.0  0.04226049039690583  0.9933373489099611  0.05047148316462112  1.0000
  H   H10       1.0  0.9577273607640178  0.006667515783668403  0.9495444083994968  1.0000
  H   H11       1.0  0.13179082355469515  0.9286157462608458  0.11172942595901957  1.0000
  H   H12       1.0  0.8681700221180788  0.07138094700401611  0.8882950480787599  1.0000
  H   H13       1.0  0.942094540146641  0.763995104409524  0.041311748923384156  1.0000
  H   H14       1.0  0.057926289281787995  0.23601872358521087  0.958664019680384  1.0000
  H   H15       1.0  0.8742478373791724  0.7647709938363506  0.12946915442612553  1.0000
  H   H16       1.0  0.12573678443639838  0.23523799484112828  0.8705041883140225  1.0000
  H   H17       1.0  0.6509582506534882  0.7046611099984617  0.05249684930664961  1.0000
  H   H18       1.0  0.34904449633982887  0.29534384275972053  0.9475077592659602  1.0000
  H   H19       1.0  0.7395671182391154  0.6943570274241252  0.9701037150848748  1.0000
  H   H20       1.0  0.26043696970752706  0.3056441108643355  0.029904784277000777  1.0000
  H   H21       1.0  0.3825881057519282  0.5450348677655017  0.059533351341954685  1.0000
  H   H22       1.0  0.6173983692350049  0.45497440476132334  0.9404720352805426  1.0000
  H   H23       1.0  0.3101577893109847  0.6108024697317802  0.9912337888378814  1.0000
  H   H24       1.0  0.6898511344443532  0.3892106147975766  0.008767577939615016  1.0000
  H   H25       1.0  0.5391122814887693  0.6450821150915829  0.9483787434408981  1.0000
  H   H26       1.0  0.46088586145021526  0.3549190317787065  0.05162879242209331  1.0000
  H   H27       1.0  0.6026419940685981  0.5904261235187603  0.02542722097313542  1.0000
  H   H28       1.0  0.39735932585497835  0.40957285468867616  0.9745811144748089  1.0000
  H   H29       1.0  0.33267407336458615  0.9835105648141538  0.04449590003228111  1.0000
  H   H30       1.0  0.6673092307677349  0.01648997231334451  0.9555205711092326  1.0000
  H   H31       1.0  0.24934964283254146  0.04435762310812661  0.9772727966610686  1.0000
  H   H32       1.0  0.7506372144480054  0.955637017941136  0.022737499821246825  1.0000
  H   H33       1.0  0.14939254778192174  0.5624402960559536  0.10236970141647816  1.0000
  H   H34       1.0  0.8506025103458652  0.43757282841022527  0.897626927789922  1.0000
  H   H35       1.0  0.24403251945477678  0.600696112130862  0.1487920947547323  1.0000
  H   H36       1.0  0.7559464147273544  0.3993196914015087  0.8512077291093475  1.0000
  H   H37       1.0  0.6520623665607983  0.9440228338011138  0.8937292905204116  1.0000
  H   H38       1.0  0.34791301443853223  0.05597843557271181  0.1062633495985139  1.0000
  H   H39       1.0  0.5457622893882926  0.8925408970146764  0.8682243907204068  1.0000
  H   H40       1.0  0.45419980368971113  0.10745380169600341  0.13177915283549163  1.0000
  H   H41       1.0  0.061560855143852664  0.6808165127644655  0.17365861575163416  1.0000
  H   H42       1.0  0.9384132710915977  0.3191874361248139  0.8263368894244395  1.0000
  H   H43       1.0  0.9614032365007715  0.6433174448550645  0.12960741726622863  1.0000
  H   H44       1.0  0.0385846569858543  0.35669848320127073  0.8703766749376028  1.0000
  H   H45       1.0  0.368770107081147  0.9787725410214633  0.890781035173731  1.0000
  H   H46       1.0  0.6311959894745411  0.021210650559844196  0.1092421468524876  1.0000
  H   H47       1.0  0.4717385295224189  0.025584754182439398  0.9230948320163391  1.0000
  H   H48       1.0  0.5282404520500279  0.9744093567184536  0.07691432149485418  1.0000
  H   H49       1.0  0.3233740082721041  0.21429890898421888  0.2700787213512966  1.0000
  H   H50       1.0  0.6766054659555109  0.7857006542282433  0.7299244459291289  1.0000
  H   H51       1.0  0.38965818810994796  0.12892259069414536  0.2557994841090547  1.0000
  H   H52       1.0  0.6103371406827802  0.8710769536159617  0.7442057546203243  1.0000
  H   H53       1.0  0.3815308973315935  0.08253208859369472  0.38058997005811784  1.0000
  H   H54       1.0  0.6184589063348297  0.9174733865153684  0.6194171391128975  1.0000
  H   H55       1.0  0.32688668298433743  0.16945300680724532  0.3945207481026287  1.0000
  H   H56       1.0  0.6730763226301799  0.8305530664321311  0.6054796431630223  1.0000
  H   H57       1.0  0.5428681316107529  0.1729969442023318  0.4380193013696143  1.0000
  H   H58       1.0  0.4570963787831984  0.8270139407559326  0.5619876040369789  1.0000
  H   H59       1.0  0.43965534337762346  0.10337287920547311  0.4914088867878874  1.0000
  H   H60       1.0  0.5603126109759555  0.8966433840794678  0.5086012270620232  1.0000
  H   H61       1.0  0.11623033012828188  0.05999196120861681  0.3398798862243382  1.0000
  H   H62       1.0  0.8837935429240174  0.9400097537847788  0.6601237170038982  1.0000
  H   H63       1.0  0.15288017687424116  0.9755373837547053  0.3191906775419824  1.0000
  H   H64       1.0  0.8471093537601815  0.024460524452266003  0.6808165121777066  1.0000
  H   H65       1.0  0.7772962087449569  0.11274143394655309  0.09930169691574524  1.0000
  H   H66       1.0  0.22270140626247326  0.8872759930687765  0.9006975167168177  1.0000
  H   H67       1.0  0.8803102437660184  0.1868483346688166  0.05526384534847752  1.0000
  H   H68       1.0  0.11967531741728976  0.8131706984399402  0.9447374971368346  1.0000
  H   H69       1.0  0.9323224835086775  0.9319703802501141  0.3862346460875158  1.0000
  H   H70       1.0  0.06765108935597648  0.06804976515142871  0.6137629923677037  1.0000
  H   H71       1.0  0.03924969418921619  0.9516689129815745  0.4391144436023352  1.0000
  H   H72       1.0  0.9607382928282173  0.0483349800408277  0.5608877906704706  1.0000
  H   H73       1.0  0.7465363985057677  0.2602646147607857  0.13184590895200896  1.0000
  H   H74       1.0  0.25343777144738766  0.7397489837610038  0.8681594044087503  1.0000
  H   H75       1.0  0.6549886945802468  0.23529762008116256  0.0749995553083735  1.0000
  H   H76       1.0  0.34499252223813665  0.7647149151157536  0.9250034314119588  1.0000
  H   H77       1.0  0.8358214026423664  0.974717172802315  0.52226667782363  1.0000
  H   H78       1.0  0.1641544298420925  0.025299628596016505  0.4777435832345844  1.0000
  H   H79       1.0  0.745496093537589  0.9482012876379641  0.4654605579708147  1.0000
  H   H80       1.0  0.25451189338038194  0.0518112666871815  0.5345395452140735  1.0000
  H   H81       1.0  0.444084133255096  0.23493587201872398  0.1495715886424875  1.0000
  H   H82       1.0  0.5558939794255336  0.765067437960738  0.8504361518326106  1.0000
  H   H83       1.0  0.5295510270711431  0.2733875228071697  0.1999221759453107  1.0000
  H   H84       1.0  0.47042793504601804  0.7266174483482573  0.8000805701573982  1.0000
  H   H85       1.0  0.6121609100980976  0.028562593687460905  0.5369660489589376  1.0000
  H   H86       1.0  0.38781787973049126  0.971443938520153  0.4630442381641372  1.0000
  H   H87       1.0  0.7202730746124003  0.09902538057711752  0.4916008817237198  1.0000
  H   H88       1.0  0.27970824535491084  0.9009860754207109  0.5084018905033076  1.0000
  H   H89       1.0  0.08891194614523099  0.844115057068251  0.6659552848907991  1.0000
  H   H90       1.0  0.9110872804074431  0.15589589929602712  0.33404205554299427  1.0000
  H   H91       1.0  0.9993584378156083  0.7626868300291535  0.693837381213271  1.0000
  H   H92       1.0  0.0006386456818105907  0.23732572609053904  0.3061626981419252  1.0000
  H   H93       1.0  0.48190414537464216  0.46696931862046404  0.6370202264548723  1.0000
  H   H94       1.0  0.5180666595226809  0.5330275276069117  0.36298494239524354  1.0000
  H   H95       1.0  0.31762452519257056  0.48275021089741443  0.6775687777427207  1.0000
  H   H96       1.0  0.6823506701928749  0.517252575720953  0.3224368800920629  1.0000
  H   H97       1.0  0.8258965156473151  0.6733964199855504  0.5406864963677336  1.0000
  H   H98       1.0  0.17410680897921785  0.3266128461474195  0.45931937970193093  1.0000
  H   H99       1.0  0.7940541400751894  0.7276929146291309  0.456186045763303  1.0000
  H   H100      1.0  0.20592574918819648  0.2723125548704033  0.5438219469832859  1.0000
  H   H101      1.0  0.968343840002433  0.8131406125317681  0.4634012773693214  1.0000
  H   H102      1.0  0.03165184186448039  0.18686605266995573  0.5365920733516418  1.0000
  H   H103      1.0  0.8101566711003584  0.8130508860878792  0.5175239892568725  1.0000
  H   H104      1.0  0.18984954408043103  0.18695952464724294  0.48247387013089593  1.0000
  H   H105      1.0  0.9041195902258322  0.6305994141527054  0.4012010281571036  1.0000
  H   H106      1.0  0.09584734479084737  0.3693963267366911  0.5988072669183921  1.0000
  H   H107      1.0  0.9052471925087244  0.5818580047166864  0.49129077701410756  1.0000
  H   H108      1.0  0.09473503883942407  0.41814368273418273  0.5087170351129231  1.0000
  H   H109      1.0  0.3506062564657241  0.5576796107897978  0.43869351851307664  1.0000
  H   H110      1.0  0.6493664293919607  0.4423285348594704  0.5613178694360028  1.0000
  H   H111      1.0  0.2746373698416277  0.4750114494631817  0.44737116976177294  1.0000
  H   H112      1.0  0.7253393144848558  0.5249968059577556  0.5526264219590544  1.0000
  H   H113      1.0  0.492218592146237  0.5495545165055304  0.7067404473386815  1.0000
  H   H114      1.0  0.5077727781536295  0.4504450494558441  0.29326215753247437  1.0000
  H   H115      1.0  0.52304012201877  0.5998097041381243  0.6155929620482823  1.0000
  H   H116      1.0  0.47694061787525743  0.4001872154015018  0.3844028592423214  1.0000
  H   H117      1.0  0.9232077492518301  0.8587303010760509  0.5914460243407759  1.0000
  H   H118      1.0  0.07678484545410669  0.14127740978178588  0.4085517889974212  1.0000
  H   H119      1.0  0.08167598156690295  0.8496506953046747  0.5401758599023694  1.0000
  H   H120      1.0  0.9183259559831073  0.15036294281887314  0.4598239921583484  1.0000
  H   H121      1.0  0.07368726052135335  0.5336472760967866  0.4061726065629044  1.0000
  H   H122      1.0  0.9262928435196258  0.4663560628821699  0.5938314720272259  1.0000
  H   H123      1.0  0.15987684496830207  0.6159298829898815  0.38402393483381997  1.0000
  H   H124      1.0  0.8401056509148147  0.38406912836710216  0.61598060271222  1.0000
  H   H125      1.0  0.2575627588313836  0.4464928932576343  0.5798493960219415  1.0000
  H   H126      1.0  0.7424142543971611  0.5535012643115138  0.42015395962746976  1.0000
  H   H127      1.0  0.4216252192971764  0.44732865491142343  0.5332263798203484  1.0000
  H   H128      1.0  0.5783501447426643  0.552672558707215  0.4667732306382887  1.0000
  H   H129      1.0  0.4413486455788983  0.7133148199870973  0.6387354337506751  1.0000
  H   H130      1.0  0.5586526804016357  0.28668417813290153  0.3612704122902313  1.0000
  H   H131      1.0  0.4266654683920236  0.6655021794178995  0.7297570532625669  1.0000
  H   H132      1.0  0.5733198962402922  0.33449790485599357  0.2702484294669176  1.0000
  H   H133      1.0  0.18018044991111276  0.6939663599792922  0.743101936869479  1.0000
  H   H134      1.0  0.8198095770126556  0.30603701248677595  0.256897772975222  1.0000
  H   H135      1.0  0.2787225319803284  0.7719476616584728  0.7175337824350407  1.0000
  H   H136      1.0  0.7212698273370534  0.228051896898826  0.2824697298413667  1.0000
  H   H137      1.0  0.0577739804973092  0.1027575796380802  0.10059037863429408  1.0000
  H   H138      1.0  0.9422100613698559  0.8972565939616292  0.8994104242869835  1.0000
  H   H139      1.0  0.9450352813162297  0.0356311782272982  0.1535714435771283  1.0000
  H   H140      1.0  0.054948656190617756  0.9643840705889845  0.8464300717188563  1.0000
  H   H141      1.0  0.15900124629447984  0.028250257206458712  0.20025316298830378  1.0000
  H   H142      1.0  0.8409927730584099  0.971763420237103  0.7997419192373769  1.0000
  H   H143      1.0  0.12273800485292696  0.11785948810707232  0.21031828998086158  1.0000
  H   H144      1.0  0.8772627009496504  0.8821569051996715  0.7896749673902476  1.0000
  C   C1        1.0  0.996329211926081  0.8838851209644218  0.06634288198632278  1.0000
  C   C2        1.0  0.003648438401476993  0.1161230513846974  0.9336650768865198  1.0000
  C   C3        1.0  0.66230793852894  0.8302916097993818  0.9475955087164318  1.0000
  C   C4        1.0  0.33768658807154844  0.16970642865277347  0.05239530701041417  1.0000
  C   C5        1.0  0.09357169910560964  0.939162649502933  0.06135208474422163  1.0000
  C   C6        1.0  0.9064152152179545  0.060841684986485206  0.938662543227288  1.0000
  C   C7        1.0  0.9675640276792233  0.7586626502069505  0.09392680946037758  1.0000
  C   C8        1.0  0.0324353844873357  0.24134678891278585  0.9060575132575648  1.0000
  C   C9        1.0  0.6399214616536922  0.7035427289170785  0.999069233564242  1.0000
  C   C10       1.0  0.3600827852562033  0.29645680451154993  0.0009372014727517656  1.0000
  C   C11       1.0  0.33724250511513526  0.6007198391484537  0.04425472867826832  1.0000
  C   C12       1.0  0.6627528442885476  0.399289987982776  0.9557487252693518  1.0000
  C   C13       1.0  0.5535348870746545  0.6434263680471163  0.002081786779200453  1.0000
  C   C14       1.0  0.4464703986101383  0.356572612404122  0.99792619523852  1.0000
  C   C15       1.0  0.29544181973103883  0.9892993972794457  0.9948275034141074  1.0000
  C   C16       1.0  0.7045422853648445  0.010692426605096702  0.005197209409160989  1.0000
  C   C17       1.0  0.21511940280488767  0.6067053119681417  0.09690318066644468  1.0000
  C   C18       1.0  0.7848714796296574  0.3933099567048616  0.9030957246010087  1.0000
  C   C19       1.0  0.5856903757256899  0.8982097181807661  0.9138325588311247  1.0000
  C   C20       1.0  0.41429600094059527  0.10179043435680767  0.08616437155686187  1.0000
  C   C21       1.0  0.032837347854673675  0.6853627617133995  0.12203060608459991  1.0000
  C   C22       1.0  0.9671528343251621  0.3146499179200505  0.8779541595684393  1.0000
  C   C23       1.0  0.40715855477961327  0.9791590195289714  0.9386452993301119  1.0000
  C   C24       1.0  0.5928306264148161  0.0208317797339248  0.061372284753772995  1.0000
  C   C25       1.0  0.41612645558691236  0.1814679533434358  0.2604317546495452  1.0000
  C   C26       1.0  0.5838627194775369  0.8185337499816469  0.7395739453303632  1.0000
  C   C27       1.0  0.415144682012439  0.1344586170678923  0.382863667764923  1.0000
  C   C28       1.0  0.5848289127302876  0.8655506760441442  0.6171393823359634  1.0000
  C   C29       1.0  0.5006562214077164  0.12203582657758011  0.43912578274112946  1.0000
  C   C30       1.0  0.49932132940509155  0.8779734369181611  0.5608808969807911  1.0000
  C   C31       1.0  0.07112902474140978  0.01394438365881  0.3314744004783137  1.0000
  C   C32       1.0  0.928877285108555  0.9860649199996347  0.6685267295860057  1.0000
  C   C33       1.0  0.8177573936092057  0.1610378882735617  0.10548727427303109  1.0000
  C   C34       1.0  0.18222539591686623  0.8389789728066291  0.8945153979425694  1.0000
  C   C35       1.0  0.9803036929546137  0.976150925745607  0.39631601694559027  1.0000
  C   C36       1.0  0.019690571550974298  0.0238600118838619  0.6036837568016151  1.0000
  C   C37       1.0  0.70665765797618  0.21395297099392963  0.12108810306088456  1.0000
  C   C38       1.0  0.2933203745892641  0.786061708970756  0.8789170713629415  1.0000
  C   C39       1.0  0.7869180757210683  0.994712418241271  0.474966256482233  1.0000
  C   C40       1.0  0.21307451173380798  0.0053054838398765005  0.525041223346598  1.0000
  C   C41       1.0  0.500419894858929  0.22197653577050155  0.1939912061946174  1.0000
  C   C42       1.0  0.4995648108136023  0.7780306011313272  0.8060109408679423  1.0000
  C   C43       1.0  0.6784582755956662  0.050225240359402804  0.4869248965451688  1.0000
  C   C44       1.0  0.32151961012043967  0.9497910842902467  0.5130773633894635  1.0000
  C   C45       1.0  0.06929196982457596  0.7959947945250576  0.6508053889761811  1.0000
  C   C46       1.0  0.930714446808494  0.20401344188184112  0.3491940329506136  1.0000
  C   C47       1.0  0.40076281840679673  0.5089445618572412  0.6382941157971019  1.0000
  C   C48       1.0  0.5992166473410732  0.491054973477624  0.3617125366531795  1.0000
  C   C49       1.0  0.8689809534290588  0.7132592847847761  0.49201447682460037  1.0000
  C   C50       1.0  0.13100647050914918  0.2867505577713986  0.5079871945764367  1.0000
  C   C51       1.0  0.9022646011275127  0.7799098754597722  0.5084765306584841  1.0000
  C   C52       1.0  0.09773587897765877  0.22009839740654508  0.4915184425995704  1.0000
  C   C53       1.0  0.9631777933492387  0.6174657940307213  0.4447246514928409  1.0000
  C   C54       1.0  0.03678936615346369  0.38253806331659496  0.5552824255771042  1.0000
  C   C55       1.0  0.28173486801841097  0.5171287298376369  0.4738572817852855  1.0000
  C   C56       1.0  0.7182351213786403  0.4828767818425348  0.5261456199599692  1.0000
  C   C57       1.0  0.4472916809237545  0.5707118536264487  0.6582027778295158  1.0000
  C   C58       1.0  0.5526869025896984  0.4292866218609391  0.3418012590779824  1.0000
  C   C59       1.0  0.008903799644229982  0.820588876225557  0.5843072177865165  1.0000
  C   C60       1.0  0.9911003828985728  0.1794220789609753  0.41569017874090247  1.0000
  C   C61       1.0  0.09313280863968736  0.5790614375029436  0.4257258538285029  1.0000
  C   C62       1.0  0.9068419862639769  0.4209457057368979  0.5742756831654033  1.0000
  C   C63       1.0  0.33173605312587984  0.4820502966252108  0.5423236921281003  1.0000
  C   C64       1.0  0.668242695407791  0.517946593914914  0.4576757910474782  1.0000
  C   C65       1.0  0.37359137416839866  0.6815343757558024  0.6838083062578449  1.0000
  C   C66       1.0  0.6264046960663661  0.3184678929993082  0.31619414411807173  1.0000
  C   C67       1.0  0.2505109275613008  0.7270229894237447  0.7001208477854134  1.0000
  C   C68       1.0  0.749485054061246  0.27298040632061316  0.299875842506907  1.0000
  C   C69       1.0  0.993639058682788  0.08489514677184222  0.15216180138443752  1.0000
  C   C70       1.0  0.006352651383238583  0.9151217113918905  0.8478410713759671  1.0000
  C   C71       1.0  0.07766258148097187  0.0682115655032831  0.2095979506551942  1.0000
  C   C72       1.0  0.9223280376299952  0.9318063832461264  0.7904037313118477  1.0000
  O   O1        1.0  0.5790658665001799  0.7703405887154134  0.9633143736865291  1.0000
  O   O2        1.0  0.42093290623488844  0.22965411880297645  0.03668739428398741  1.0000
  O   O3        1.0  0.4283818066277191  0.6521244747356647  0.04355610192034481  1.0000
  O   O4        1.0  0.5716272907005971  0.34787612874927737  0.9564515994663906  1.0000
  O   O5        1.0  0.47999896053813257  0.9123941745566029  0.9653231743846503  1.0000
  O   O6        1.0  0.5199937980496401  0.087601023396715  0.03468495661404349  1.0000
  O   O7        1.0  0.20049316310518608  0.9356844978523358  0.005988650985585725  1.0000
  O   O8        1.0  0.7994928690569694  0.06430785281486352  0.9940377349541476  1.0000
  O   O9        1.0  0.056720499387814975  0.8128522399997066  0.08922148447427249  1.0000
  O   O10       1.0  0.9432637002312206  0.1871603247576559  0.9107777520035327  1.0000
  O   O11       1.0  0.14825283801768302  0.6753261163738314  0.07314892355652351  1.0000
  O   O12       1.0  0.8517481250515143  0.3246875769439441  0.9268440465220351  1.0000
  O   O13       1.0  0.6163085135023605  0.17757643466620013  0.1805751540885296  1.0000
  O   O14       1.0  0.38367385250818825  0.8224344922493144  0.8194261778307704  1.0000
  O   O15       1.0  0.49031858411311885  0.16934573996585564  0.31668846610435947  1.0000
  O   O16       1.0  0.509661100063809  0.8306618919143673  0.6833194577474232  1.0000
  O   O17       1.0  0.6047309844838435  0.0692866021168186  0.4295395444724689  1.0000
  O   O18       1.0  0.39523263035037093  0.9307231791863303  0.5704702220868255  1.0000
  O   O19       1.0  0.8951031409682313  0.1406535948954115  0.16137607245875774  1.0000
  O   O20       1.0  0.10487840590787553  0.8593659855253579  0.838624485999908  1.0000
  O   O21       1.0  0.8808338568926428  0.0274686147454162  0.41515599138427456  1.0000
  O   O22       1.0  0.11916159567725505  0.9725503483051128  0.5848539272722276  1.0000
  O   O23       1.0  0.99565575026007  0.03934274089179011  0.275026812427356  1.0000
  O   O24       1.0  0.004342601343829186  0.9606773946384877  0.7249716043773873  1.0000
  O   O25       1.0  0.335839983296701  0.6191194621552896  0.6690960204038986  1.0000
  O   O26       1.0  0.6641469054973256  0.38088549755770634  0.33090801036398426  1.0000
  O   O27       1.0  0.9673107872491395  0.7589718389992302  0.5692260589253165  1.0000
  O   O28       1.0  0.032694402482064774  0.24103916852092766  0.4307647767862405  1.0000
  O   O29       1.0  0.9883171706122122  0.6824760186936771  0.4601329428690803  1.0000
  O   O30       1.0  0.011666762031786994  0.3175289990741632  0.5398638847503533  1.0000
  O   O31       1.0  0.35994329959326865  0.5376362582212552  0.570972664555427  1.0000
  O   O32       1.0  0.6400333302032877  0.4623616028681994  0.4290406526265898  1.0000
  O   O33       1.0  0.15387695487221714  0.551895195378883  0.4876431891490822  1.0000
  O   O34       1.0  0.8460858456558356  0.44811304024118215  0.5123571332217693  1.0000
  O   O35       1.0  0.18961066416022015  0.754266511662408  0.6385447218879249  1.0000
  O   O36       1.0  0.8103879702225425  0.24574008353692986  0.36145732562570754  1.0000
