data_image0
_chemical_formula_structural       Mg2H10C10O12
_chemical_formula_sum              "Mg2 H10 C10 O12"
_cell_length_a       7.070756758604871
_cell_length_b       7.2999100550362
_cell_length_c       8.320360918789447
_cell_angle_alpha    90.46415304590838
_cell_angle_beta     109.88823341335603
_cell_angle_gamma    95.20701719591747

_space_group_name_H-M_alt    "P 1"
_space_group_IT_number       1

loop_
  _space_group_symop_operation_xyz
  'x, y, z'

loop_
  _atom_site_type_symbol
  _atom_site_label
  _atom_site_symmetry_multiplicity
  _atom_site_fract_x
  _atom_site_fract_y
  _atom_site_fract_z
  _atom_site_occupancy
  Mg  Mg1       1.0  0.5000000527277848  0.49999960015576744  1.0543109144346064e-07  1.0000
  Mg  Mg2       1.0  1.693787361e-06  1.4133355251e-06  4.084907274700002e-06  1.0000
  H   H1        1.0  0.42057230851123256  0.3129305612175274  0.5574991278208615  1.0000
  H   H2        1.0  0.5794294181013484  0.687070112853597  0.4425037750328259  1.0000
  H   H3        1.0  0.14393008072011781  0.4236998755088949  0.9828072550505458  1.0000
  H   H4        1.0  0.8560701397483258  0.5763007754934861  0.017195228567572923  1.0000
  H   H5        1.0  0.15575226387895208  0.6324315869122542  0.9221992362055436  1.0000
  H   H6        1.0  0.8442496295021797  0.36757047285284733  0.07780612449857938  1.0000
  H   H7        1.0  0.8111571092168576  0.8461326780594619  0.2074425780677275  1.0000
  H   H8        1.0  0.18884311125158604  0.1538679729429262  0.7925599055503911  1.0000
  H   H9        1.0  0.04175180749084722  0.8277476247622105  0.304560127811037  1.0000
  H   H10       1.0  0.9582474071391046  0.17225716025335203  0.6954493101228254  1.0000
  C   C1        1.0  0.5760693724796013  0.14695905769032447  0.8437289039454614  1.0000
  C   C2        1.0  0.4239064104607593  0.8530535992242819  0.15626924818160864  1.0000
  C   C3        1.0  0.5330031621700826  0.06229931811471091  0.6684000951915936  1.0000
  C   C4        1.0  0.46699187324924196  0.9376930226825095  0.33160570875756434  1.0000
  C   C5        1.0  0.4539111801176786  0.17507246492257172  0.5308234233827351  1.0000
  C   C6        1.0  0.5460842927545498  0.8249253683496677  0.4691789259341734  1.0000
  C   C7        1.0  0.579049991282666  0.884704315316661  0.6371324631790076  1.0000
  C   C8        1.0  0.4209517768504867  0.11529771701160028  0.36286565059747755  1.0000
  C   C9        1.0  0.6469531986940709  0.7481936116928484  0.7751145552861023  1.0000
  C   C10       1.0  0.35303933019856254  0.2517890427602651  0.22488328704460517  1.0000
  O   O1        1.0  0.444261803198131  0.24186212283537864  0.8667833507838769  1.0000
  O   O2        1.0  0.5557395692314414  0.7581344261634727  0.13322063326739916  1.0000
  O   O3        1.0  0.5152672717712291  0.6217531684549725  0.7793839418665913  1.0000
  O   O4        1.0  0.48475382619732693  0.37824641067022924  0.2206195375564733  1.0000
  O   O5        1.0  0.8307641883182342  0.7642036889573661  0.8763642168354484  1.0000
  O   O6        1.0  0.16924218174600011  0.23579843086834978  0.12363998593282596  1.0000
  O   O7        1.0  0.7469920916379847  0.1325072740220961  0.9577841794001647  1.0000
  O   O8        1.0  0.25301440367422856  0.8674948732404671  0.042227270295747105  1.0000
  O   O9        1.0  0.18633390190377241  0.5065668224770549  0.9043274445359092  1.0000
  O   O10       1.0  0.8136680538725968  0.49343660011798113  0.09567433491228877  1.0000
  O   O11       1.0  0.950303040851267  0.9047363131554039  0.22619830567147414  1.0000
  O   O12       1.0  0.0496873243282892  0.0952710728260016  0.7738050778009582  1.0000
