data_image0
_chemical_formula_structural       Zn2H26C20N10O8
_chemical_formula_sum              "Zn2 H26 C20 N10 O8"
_cell_length_a       9.06068103302417
_cell_length_b       9.587689644917878
_cell_length_c       10.479671949913682
_cell_angle_alpha    105.16291195056051
_cell_angle_beta     90.00021859963897
_cell_angle_gamma    90.00008668187873

_space_group_name_H-M_alt    "P 1"
_space_group_IT_number       1

loop_
  _space_group_symop_operation_xyz
  'x, y, z'

loop_
  _atom_site_type_symbol
  _atom_site_label
  _atom_site_symmetry_multiplicity
  _atom_site_fract_x
  _atom_site_fract_y
  _atom_site_fract_z
  _atom_site_occupancy
  Zn  Zn1       1.0  0.4777530296638659  0.8457755602396873  0.08427504234494884  1.0000
  Zn  Zn2       1.0  0.9777520459435821  0.1542246335615403  0.9157244712002356  1.0000
  H   H1        1.0  0.5035473072542657  0.3484434006774322  0.951287989261019  1.0000
  H   H2        1.0  0.0035467197104921003  0.651557741331075  0.04871495911093861  1.0000
  H   H3        1.0  0.33607590196780285  0.44286745642590847  0.1671689703747533  1.0000
  H   H4        1.0  0.8360774045426214  0.5571334532944193  0.8328340646925911  1.0000
  H   H5        1.0  0.14330112097320577  0.4318293599335662  0.13105035833411455  1.0000
  H   H6        1.0  0.6433028005202744  0.5681699815501701  0.8689478475938872  1.0000
  H   H7        1.0  0.1644937946864573  0.8957934799112766  0.9664156658159515  1.0000
  H   H8        1.0  0.6644954617052719  0.10420807865790492  0.033581233756002915  1.0000
  H   H9        1.0  0.4306764807929254  0.8064953314856708  0.3190252956570633  1.0000
  H   H10       1.0  0.9306745243921598  0.19350366354788662  0.680971866408193  1.0000
  H   H11       1.0  0.609893612101601  0.7931029115592948  0.28697492574966094  1.0000
  H   H12       1.0  0.1098930361919841  0.2068952614180191  0.7130257521844572  1.0000
  H   H13       1.0  0.6571683166470665  0.14865885252447703  0.571690012936543  1.0000
  H   H14       1.0  0.15716641219020028  0.8513448431353368  0.4283131008473193  1.0000
  H   H15       1.0  0.6263124519558758  0.1864665492652335  0.800773558460158  1.0000
  H   H16       1.0  0.1263116838191607  0.8135295033902497  0.19922761887190904  1.0000
  H   H17       1.0  0.4893258840186335  0.05013264933658231  0.7702623186270973  1.0000
  H   H18       1.0  0.9893275619097609  0.949866496992961  0.22973316473117944  1.0000
  H   H19       1.0  0.46626487398177113  0.0764655648418824  0.3375609671113439  1.0000
  H   H20       1.0  0.9662617964345017  0.9235324411737627  0.6624351206819343  1.0000
  H   H21       1.0  0.653287260075352  0.0308086875503903  0.3634489563571962  1.0000
  H   H22       1.0  0.153283151723663  0.9691895978358434  0.6365499832097827  1.0000
  H   H23       1.0  0.4712090651742998  0.19722303479864678  0.18064100783512776  1.0000
  H   H24       1.0  0.9712097976438728  0.8027760617034334  0.8193582207259669  1.0000
  H   H25       1.0  0.18541881822826406  0.3938295175920175  0.8964674620639177  1.0000
  H   H26       1.0  0.6854138711995077  0.606171010012517  0.10353307594130004  1.0000
  C   C1        1.0  0.25234247943389937  0.3886603815439357  0.09508689307931922  1.0000
  C   C2        1.0  0.7523443866951993  0.6113403157040265  0.9049148606030999  1.0000
  C   C3        1.0  0.29755423734974323  0.5903478983997346  0.988580967456713  1.0000
  C   C4        1.0  0.7975529842728831  0.4096539946869627  0.01142122238826461  1.0000
  C   C5        1.0  0.2170606664893171  0.9985833444061785  0.011315953144595988  1.0000
  C   C6        1.0  0.7170630711341984  0.0014172665870261997  0.98868184655899  1.0000
  C   C7        1.0  0.528125408762385  0.14642091952531902  0.7412409882689988  1.0000
  C   C8        1.0  0.028124967301302192  0.85357920723672  0.2587589347675774  1.0000
  C   C9        1.0  0.5376355911541425  0.9983385575315894  0.36866884601851535  1.0000
  C   C10       1.0  0.037634326525370895  0.0016594322160087998  0.6313305953944595  1.0000
  C   C11       1.0  0.3733862374776535  0.15495133597612215  0.12393963851943826  1.0000
  C   C12       1.0  0.8733861840262236  0.8450475103179115  0.876060161586807  1.0000
  C   C13       1.0  0.26244752246561376  0.23019185148284999  0.08109144889963461  1.0000
  C   C14       1.0  0.7624486413202406  0.7698077918055831  0.9189091308779926  1.0000
  C   C15       1.0  0.49201822808873175  0.004763787918335502  0.5100383253338877  1.0000
  C   C16       1.0  0.9920299558127254  0.9952299575906524  0.4899606416054782  1.0000
  C   C17       1.0  0.40151477805604696  0.2562596938134262  0.7744511283530786  1.0000
  C   C18       1.0  0.9015161077064563  0.7437403029614912  0.22555094915198037  1.0000
  C   C19       1.0  0.28111929873019653  0.42617107643634  0.961225329820174  1.0000
  C   C20       1.0  0.7811173253162806  0.5738307747664706  0.03877679576694254  1.0000
  N   N1        1.0  0.4084660318769551  0.3468334920788577  0.8964072847903712  1.0000
  N   N2        1.0  0.9084633676463838  0.6531665214913358  0.1035957738937299  1.0000
  N   N3        1.0  0.16378251404338326  0.1291882491228975  0.009115969670375501  1.0000
  N   N4        1.0  0.6637830083110217  0.8708111445543383  0.990882316332382  1.0000
  N   N5        1.0  0.3439588752814089  0.008448739708335002  0.07987178693828413  1.0000
  N   N6        1.0  0.843958146934085  0.991550032506119  0.9201269441038921  1.0000
  N   N7        1.0  0.5159283021420364  0.8529280481697441  0.2802033499753522  1.0000
  N   N8        1.0  0.0159276603846052  0.1470698871738421  0.7197950525596186  1.0000
  N   N9        1.0  0.5657933198515012  0.1050343428096596  0.6025063899634662  1.0000
  N   N10       1.0  0.06579134924507458  0.8949702042708123  0.3974928099324942  1.0000
  O   O1        1.0  0.4291228205883613  0.6385776969403237  0.018660992157684624  1.0000
  O   O2        1.0  0.9291191467845153  0.3614234535523408  0.9813385906526195  1.0000
  O   O3        1.0  0.18581876399160546  0.666889499049084  0.9866322627830046  1.0000
  O   O4        1.0  0.6858185007275565  0.3331099443845744  0.013372787438910905  1.0000
  O   O5        1.0  0.3916623211128467  0.9260628264603739  0.5330336551785636  1.0000
  O   O6        1.0  0.8916614367431706  0.07394363443708579  0.46696421615946815  1.0000
  O   O7        1.0  0.2981415752071968  0.2521105979835028  0.6949725275057831  1.0000
  O   O8        1.0  0.7981421584222375  0.747890214149109  0.30503131325534844  1.0000
