data_image0
_chemical_formula_structural       Ho4H24C24N36
_chemical_formula_sum              "Ho4 H24 C24 N36"
_cell_length_a       9.26005450962727
_cell_length_b       9.260060319646259
_cell_length_c       12.60053557328231
_cell_angle_alpha    91.83248711544275
_cell_angle_beta     91.8327841478705
_cell_angle_gamma    119.07685286351028

_space_group_name_H-M_alt    "P 1"
_space_group_IT_number       1

loop_
  _space_group_symop_operation_xyz
  'x, y, z'

loop_
  _atom_site_type_symbol
  _atom_site_label
  _atom_site_symmetry_multiplicity
  _atom_site_fract_x
  _atom_site_fract_y
  _atom_site_fract_z
  _atom_site_occupancy
  Ho  Ho1       1.0  0.5238974171598373  0.2589979918891033  0.42800377057563566  1.0000
  Ho  Ho2       1.0  0.7410004255248667  0.47610017612993977  0.07199676966389751  1.0000
  Ho  Ho3       1.0  0.4761012590066116  0.741000820352568  0.5719962977835493  1.0000
  Ho  Ho4       1.0  0.25900101475765785  0.5238998726404633  0.9280033848671464  1.0000
  H   H1        1.0  0.23065605959723007  0.29353312725597663  0.2318691368132306  1.0000
  H   H2        1.0  0.706469291546867  0.7693432440463185  0.2681293160764753  1.0000
  H   H3        1.0  0.7693438126109982  0.7064681486301512  0.7681294231149707  1.0000
  H   H4        1.0  0.2935316665262633  0.23065803700942675  0.7318700609808033  1.0000
  H   H5        1.0  0.13187769886903322  0.5315667069921876  0.2676268405597213  1.0000
  H   H6        1.0  0.4684370682804868  0.8681221247335245  0.23237259970502322  1.0000
  H   H7        1.0  0.868122195877689  0.46843459142492355  0.7323748948517093  1.0000
  H   H8        1.0  0.5315643720020377  0.13187792403687135  0.7676275548260209  1.0000
  H   H9        1.0  0.9019684277140456  0.24647376650632685  0.3365400630701956  1.0000
  H   H10       1.0  0.7535330113785719  0.09803126168205985  0.1634606513164627  1.0000
  H   H11       1.0  0.09802940547974257  0.7535299800463733  0.6634577125230122  1.0000
  H   H12       1.0  0.2464705949991385  0.9019687917948361  0.8365403436019322  1.0000
  H   H13       1.0  0.9666725936147887  0.9953952064935337  0.39919862388213556  1.0000
  H   H14       1.0  0.004611384969642508  0.03332792119514492  0.100803184415355  1.0000
  H   H15       1.0  0.0333269234647915  0.004609777051022901  0.6007992146246579  1.0000
  H   H16       1.0  0.995392830698201  0.9666733753694745  0.8991986440291626  1.0000
  H   H17       1.0  0.16259535695210303  0.8811650586502966  0.1598239079544186  1.0000
  H   H18       1.0  0.11883313033135329  0.8374015081384202  0.34017712293427144  1.0000
  H   H19       1.0  0.8374021175379482  0.1188312843141759  0.8401768749649533  1.0000
  H   H20       1.0  0.8811649478142058  0.16259607228102627  0.6598236996404128  1.0000
  H   H21       1.0  0.3675630037811644  0.07267515619287224  0.0038304071297404  1.0000
  H   H22       1.0  0.9273213315975327  0.6324327281007811  0.49617010846390747  1.0000
  H   H23       1.0  0.6324344763435122  0.9273211924043425  0.9961711696604355  1.0000
  H   H24       1.0  0.07267505702761672  0.36756360969406654  0.5038298573263802  1.0000
  C   C1        1.0  0.26819277555397053  0.38928700910208397  0.2947930908765741  1.0000
  C   C2        1.0  0.6107128414473664  0.7318017565206462  0.20520985501642028  1.0000
  C   C3        1.0  0.7318053082262138  0.6107105769501046  0.7052085255689207  1.0000
  C   C4        1.0  0.389289208125291  0.26819953533747315  0.7947911330407395  1.0000
  C   C5        1.0  0.2187657407585635  0.5075692650876893  0.3128342699816002  1.0000
  C   C6        1.0  0.49243131732303885  0.781231057703444  0.18716683440847962  1.0000
  C   C7        1.0  0.7812335334287753  0.4924307789762068  0.6871650441621  1.0000
  C   C8        1.0  0.5075690427292018  0.2187689915300767  0.812833296864298  1.0000
  C   C9        1.0  0.8304735964946417  0.13980336501109042  0.3823503604966092  1.0000
  C   C10       1.0  0.8602012419388387  0.1695256216524968  0.11765195110508841  1.0000
  C   C11       1.0  0.169525943123432  0.8602016410644497  0.6176506534934134  1.0000
  C   C12       1.0  0.1398023644388717  0.8304744318243994  0.8823490438133064  1.0000
  C   C13       1.0  0.8624926553358706  0.014816003178545104  0.4135804373417074  1.0000
  C   C14       1.0  0.9851916459905112  0.13750725845788742  0.0864198723663634  1.0000
  C   C15       1.0  0.13750637953432238  0.9851902126513538  0.5864166236913206  1.0000
  C   C16       1.0  0.014812564042713966  0.8624940324739898  0.9135811622073434  1.0000
  C   C17       1.0  0.2792585974025385  0.9960732291944507  0.1673323189003426  1.0000
  C   C18       1.0  0.003924473458362107  0.7207412203608573  0.33266876844447074  1.0000
  C   C19       1.0  0.720742721433865  0.003924349835621401  0.8326685734491548  1.0000
  C   C20       1.0  0.9960726515376592  0.2792588358947868  0.6673320869242972  1.0000
  C   C21       1.0  0.38175263951484345  0.09036690593128331  0.0895487985455006  1.0000
  C   C22       1.0  0.9096294810307909  0.6182439664995985  0.4104509334176853  1.0000
  C   C23       1.0  0.6182465132263745  0.9096306683922892  0.9104512534166461  1.0000
  C   C24       1.0  0.09036690195972605  0.3817523656625001  0.5895482385017985  1.0000
  N   N1        1.0  0.38331083749068995  0.41270306426335435  0.37250034404625143  1.0000
  N   N2        1.0  0.5872954427898308  0.6166862327151961  0.1274996273927016  1.0000
  N   N3        1.0  0.6166906027918344  0.5872969845070418  0.6274998104847924  1.0000
  N   N4        1.0  0.4127049172624098  0.38331381651833146  0.872500503880069  1.0000
  N   N5        1.0  0.4037076633502181  0.5413197475408467  0.4345907196570807  1.0000
  N   N6        1.0  0.45868171009970393  0.5962933612347785  0.0654084011476641  1.0000
  N   N7        1.0  0.5962932947229191  0.45868153351490554  0.565408657400198  1.0000
  N   N8        1.0  0.5413186499525366  0.4037066879987493  0.9345917301251134  1.0000
  N   N9        1.0  0.3061810407590287  0.6008977836612887  0.40096222354712563  1.0000
  N   N10       1.0  0.3991039569172017  0.6938188589513531  0.09903737408760803  1.0000
  N   N11       1.0  0.6938176354074201  0.39910102858038254  0.5990378448120595  1.0000
  N   N12       1.0  0.6008974833653227  0.30618118981904985  0.9009627804434358  1.0000
  N   N13       1.0  0.6842722273174147  0.11012901916640774  0.4211346332658508  1.0000
  N   N14       1.0  0.8898720179498554  0.3157237446860393  0.0788673100008381  1.0000
  N   N15       1.0  0.3157232137928148  0.8898698000973796  0.5788661591893387  1.0000
  N   N16       1.0  0.11012990454206333  0.6842750717990074  0.9211336220039714  1.0000
  N   N17       1.0  0.6297431193725843  0.9718026155024263  0.4736854067798291  1.0000
  N   N18       1.0  0.028198601755235635  0.370257084314524  0.0263156833846168  1.0000
  N   N19       1.0  0.37025723504503827  0.028197428098344805  0.5263139306221376  1.0000
  N   N20       1.0  0.971803453452047  0.6297442131763449  0.9736860985433538  1.0000
  N   N21       1.0  0.7344374875350113  0.9117184628891981  0.4707766978655457  1.0000
  N   N22       1.0  0.08828578458676624  0.2655642937601926  0.029223217545933305  1.0000
  N   N23       1.0  0.2655663561003152  0.08828652443560261  0.5292220275451314  1.0000
  N   N24       1.0  0.9117173395815569  0.7344369920020529  0.9707769998986892  1.0000
  N   N25       1.0  0.3544064470687047  0.0714701882997559  0.2628819046424553  1.0000
  N   N26       1.0  0.9285293034956298  0.645591701853732  0.23711791136758362  1.0000
  N   N27       1.0  0.6455933036934027  0.9285286178460409  0.7371173931041994  1.0000
  N   N28       1.0  0.07146984924558812  0.35440587246984023  0.7628821405945628  1.0000
  N   N29       1.0  0.4963031212260133  0.20525461660729863  0.2433888236137562  1.0000
  N   N30       1.0  0.7947453345404155  0.5036955324498961  0.256611028584075  1.0000
  N   N31       1.0  0.5036961585959504  0.7947454330893468  0.7566112844007407  1.0000
  N   N32       1.0  0.2052538125661769  0.4963020362409338  0.7433882295072678  1.0000
  N   N33       1.0  0.5161864920381306  0.22070257511479952  0.1390266469397972  1.0000
  N   N34       1.0  0.7792955501411926  0.4838121767557625  0.3609723810576497  1.0000
  N   N35       1.0  0.4838149426097688  0.7792974680228469  0.860972713720436  1.0000
  N   N36       1.0  0.22070312039063822  0.5161866298531665  0.6390268934307316  1.0000
