data_image0
_chemical_formula_structural       P8H32Pb12C24O40
_chemical_formula_sum              "P8 H32 Pb12 C24 O40"
_cell_length_a       9.12139652
_cell_length_b       10.72662427513207
_cell_length_c       14.5584
_cell_angle_alpha    90.0
_cell_angle_beta     90.0
_cell_angle_gamma    111.32931565311294

_space_group_name_H-M_alt    "P 1"
_space_group_IT_number       1

loop_
  _space_group_symop_operation_xyz
  'x, y, z'

loop_
  _atom_site_type_symbol
  _atom_site_label
  _atom_site_symmetry_multiplicity
  _atom_site_fract_x
  _atom_site_fract_y
  _atom_site_fract_z
  _atom_site_occupancy
  P   P1        1.0  0.41809290185744163  0.5621249395744314  0.6657860753929015  1.0000
  P   P2        1.0  0.4180936526371184  0.0621282817293078  0.8342139246070985  1.0000
  P   P3        1.0  0.5819076904435221  0.4378723793557171  0.3342159852731045  1.0000
  P   P4        1.0  0.5818998291948746  0.9378780444906312  0.1657847016155642  1.0000
  P   P5        1.0  0.7514261884948894  0.0931794120642664  0.6490459116386449  1.0000
  P   P6        1.0  0.7514251453397947  0.5931830755792262  0.8509534014726867  1.0000
  P   P7        1.0  0.24857349541422025  0.9068209092958172  0.3509499670293437  1.0000
  P   P8        1.0  0.24857715930095742  0.4068182465908308  0.1490493460819877  1.0000
  H   H1        1.0  0.28582917723661444  0.5936814789475946  0.5308536652379419  1.0000
  H   H2        1.0  0.28582706713119427  0.0936858219124446  0.9691435872073841  1.0000
  H   H3        1.0  0.714177512697546  0.4063198432224695  0.4691463347620585  1.0000
  H   H4        1.0  0.7141701317558073  0.9063215051174752  0.030856412792616108  1.0000
  H   H5        1.0  0.27737929931396377  0.4286929502500599  0.5458250906693038  1.0000
  H   H6        1.0  0.27737697190402605  0.9286936113350919  0.9541783437740392  1.0000
  H   H7        1.0  0.722626722381797  0.5713093727299778  0.4541776568853707  1.0000
  H   H8        1.0  0.7226241841914246  0.0713127148848542  0.04582234311462941  1.0000
  H   H9        1.0  0.08755396735868  0.4458598437792105  0.691894713704805  1.0000
  H   H10       1.0  0.08754987538699048  0.9458615056742232  0.8081052862951952  1.0000
  H   H11       1.0  0.912448817588981  0.554137475150938  0.3081039125178578  1.0000
  H   H12       1.0  0.912447615875415  0.054138815685860195  0.1918960874821423  1.0000
  H   H13       1.0  0.013810902378658308  0.384884495142984  0.583959775799535  1.0000
  H   H14       1.0  0.01380681040696893  0.8848861570379897  0.9160409110891338  1.0000
  H   H15       1.0  0.9861938350622526  0.6151148254071259  0.4160381635344522  1.0000
  H   H16       1.0  0.9861937296720386  0.1151161659420481  0.08395977579953502  1.0000
  H   H17       1.0  0.9152211296874031  0.0335031147777087  0.5466706506209462  1.0000
  H   H18       1.0  0.9152157534608707  0.5335017742427794  0.9533300362677226  1.0000
  H   H19       1.0  0.08477483716669817  0.9664962057724013  0.453327288713048  1.0000
  H   H20       1.0  0.0847813619385462  0.46649254225744125  0.04667339817562072  1.0000
  H   H21       1.0  0.955580551146312  0.20566044533784833  0.5408492691504564  1.0000
  H   H22       1.0  0.9555762712431246  0.7056591048029262  0.9591514177382124  1.0000
  H   H23       1.0  0.04442175349444713  0.7943408768322158  0.4591507308495437  1.0000
  H   H24       1.0  0.044426513704543404  0.2943382141272295  0.040851329816462105  1.0000
  H   H25       1.0  0.1247424676947517  0.2505978140985619  0.6774885976480933  1.0000
  H   H26       1.0  0.1247412366081662  0.7505984751835939  0.8225127761292443  1.0000
  H   H27       1.0  0.8752631781380131  0.7493985040216131  0.3225107154632383  1.0000
  H   H28       1.0  0.8752582593694458  0.24939884374656174  0.17748722387075597  1.0000
  H   H29       1.0  0.0325588017327121  0.0835616281888463  0.7167930541817782  1.0000
  H   H30       1.0  0.032562624177927504  0.5835612884638977  0.7832083195955593  1.0000
  H   H31       1.0  0.9674442233684104  0.9164336891213551  0.2832035113748789  1.0000
  H   H32       1.0  0.9674377801915384  0.4164330280363302  0.2167944279591154  1.0000
  Pb  Pb1       1.0  0.8174707871004971  0.755253242384903  0.622073167381032  1.0000
  Pb  Pb2       1.0  0.8174686769950767  0.2552575853497601  0.8779247719529624  1.0000
  Pb  Pb3       1.0  0.1825334700335119  0.2447500814051082  0.3779288932849738  1.0000
  Pb  Pb4       1.0  0.18252533736578158  0.7447397335803956  0.12206767227167603  1.0000
  Pb  Pb5       1.0  0.378541322984141  0.3839517402447612  0.8938159413122337  1.0000
  Pb  Pb6       1.0  0.37853723101245146  0.8839534021397668  0.6061833717990979  1.0000
  Pb  Pb7       1.0  0.621459885333266  0.6160495819252958  0.10619161446312833  1.0000
  Pb  Pb8       1.0  0.6214609284883535  0.116045918410336  0.3938118199802148  1.0000
  Pb  Pb9       1.0  0.5800934365350302  0.8360276147888329  0.8343451203428955  1.0000
  Pb  Pb10      1.0  0.5800955760134698  0.336023951273873  0.6656562534344419  1.0000
  Pb  Pb11      1.0  0.419905902776712  0.1639847162909689  0.1656603747664604  1.0000
  Pb  Pb12      1.0  0.4199055800819806  0.6639823749460732  0.334344433454227  1.0000
  C   C1        1.0  0.2615875449867389  0.5130171956410976  0.5816964776349067  1.0000
  C   C2        1.0  0.2615859151882205  0.0130175353660391  0.9183035223650933  1.0000
  C   C3        1.0  0.7384147596540203  0.4869841265289665  0.4183042092537619  1.0000
  C   C4        1.0  0.7384110957672761  0.9869867892339458  0.08169716452357531  1.0000
  C   C5        1.0  0.0943264406269293  0.4739675919729009  0.6187706066600713  1.0000
  C   C6        1.0  0.09432454130194402  0.9739692538679066  0.8812293933399291  1.0000
  C   C7        1.0  0.9056754359288776  0.5260327293871825  0.3812287064512604  1.0000
  C   C8        1.0  0.9056729499604614  0.026031067492176898  0.11877129354873973  1.0000
  C   C9        1.0  0.020320727958868193  0.5786573195784044  0.6098149521925507  1.0000
  C   C10       1.0  0.020323619163299604  0.0786656657831628  0.8901864215847868  1.0000
  C   C11       1.0  0.9796770556789413  0.42133599611184275  0.3901850478074493  1.0000
  C   C12       1.0  0.9796685261918938  0.9213426620567304  0.10981289152654483  1.0000
  C   C13       1.0  0.9356479151531758  0.1228314100518944  0.5894219144960999  1.0000
  C   C14       1.0  0.9356449195048385  0.6228330719469071  0.9105787723925688  1.0000
  C   C15       1.0  0.06435267714778804  0.8771659088782542  0.4105767117265629  1.0000
  C   C16       1.0  0.06435457647277329  0.3771642469832486  0.0894232882734372  1.0000
  C   C17       1.0  0.07414410896681999  0.1459200962127767  0.6556469117485408  1.0000
  C   C18       1.0  0.07414135347193708  0.6459197564878352  0.8443544620287966  1.0000
  C   C19       1.0  0.9258580077424412  0.8540782235273525  0.3443517144741151  1.0000
  C   C20       1.0  0.9258583826591292  0.3540755608223662  0.15564553797120345  1.0000
  C   C21       1.0  0.20051756705451143  0.1055754444348196  0.6107182107923919  1.0000
  C   C22       1.0  0.20052291390803131  0.6055761055198516  0.8892845367622828  1.0000
  C   C23       1.0  0.799482973024496  0.894426878545211  0.3892804154302639  1.0000
  C   C24       1.0  0.7994898736593329  0.3944292198901138  0.11071889768106052  1.0000
  O   O1        1.0  0.417210649185968  0.6870470416675118  0.717482003516871  1.0000
  O   O2        1.0  0.41721212042600797  0.1870443789625327  0.7825193702604665  1.0000
  O   O3        1.0  0.5827889825011852  0.3129582837424536  0.2825200571491352  1.0000
  O   O4        1.0  0.5827823220197956  0.8129539407775965  0.21748337729420805  1.0000
  O   O5        1.0  0.5702552591395786  0.5862955013200519  0.6091273766347955  1.0000
  O   O6        1.0  0.5702599671277184  0.0862978426649548  0.8908698758105302  1.0000
  O   O7        1.0  0.4297452809394287  0.41370682165998574  0.39087537091987923  1.0000
  O   O8        1.0  0.42973428738659447  0.9136974746452466  0.10912737663479533  1.0000
  O   O9        1.0  0.3913318041916228  0.43907235051769783  0.7287799483459736  1.0000
  O   O10       1.0  0.39132624003358535  0.939068007552848  0.7712214254313638  1.0000
  O   O11       1.0  0.6086683078024394  0.5609289716523591  0.2712193647653579  1.0000
  O   O12       1.0  0.6086647255106711  0.0609273097573535  0.22877994834597365  1.0000
  O   O13       1.0  0.7059661652627156  0.9522256563156191  0.6924009506539195  1.0000
  O   O14       1.0  0.7059609541187299  0.45223300171040387  0.8075976755687437  1.0000
  O   O15       1.0  0.29403223439154413  0.0477716626145366  0.30759836245741223  1.0000
  O   O16       1.0  0.29403357181465145  0.5477783285594242  0.1923988899879134  1.0000
  O   O17       1.0  0.6260420312472732  0.0979342602632443  0.5786260852840996  1.0000
  O   O18       1.0  0.6260418442620833  0.5979399253981583  0.9213739147159004  1.0000
  O   O19       1.0  0.373957224576884  0.9020650602868655  0.421371167161226  1.0000
  O   O20       1.0  0.37396112861707564  0.40206039596192517  0.07862883283877413  1.0000
  O   O21       1.0  0.7785760236095315  0.2090902211277594  0.7189519452687136  1.0000
  O   O22       1.0  0.7785767450161956  0.7090928838327457  0.7810453071766121  1.0000
  O   O23       1.0  0.2214193272281264  0.7909050961824349  0.2810446202879434  1.0000
  O   O24       1.0  0.2214344659209075  0.2909164448171282  0.21895950104406844  1.0000
  O   O25       1.0  0.10171919546237969  0.6994080456888838  0.5899693647653592  1.0000
  O   O26       1.0  0.1017239034505195  0.1994103870337867  0.9100313221233094  1.0000
  O   O27       1.0  0.8982748188984716  0.3005892732412647  0.4100299483459723  1.0000
  O   O28       1.0  0.8982729717954427  0.8005859310863883  0.08996936476535923  1.0000
  O   O29       1.0  0.8714162359154614  0.5401701711170759  0.6226116880975925  1.0000
  O   O30       1.0  0.8714198475802422  0.0401725124619787  0.8773876250137393  1.0000
  O   O31       1.0  0.12857844668379673  0.45982614700309915  0.3773931201230881  1.0000
  O   O32       1.0  0.1285828851454625  0.9598298105180589  0.12260619298824343  1.0000
  O   O33       1.0  0.18335244389283645  0.9823860657713723  0.6226405374216952  1.0000
  O   O34       1.0  0.18336196525932993  0.48238940792624874  0.8773532805802804  1.0000
  O   O35       1.0  0.8166409544515717  0.0176072499188749  0.3773519068029429  1.0000
  O   O36       1.0  0.8166425842500901  0.5176069101939262  0.12264328497636973  1.0000
  O   O37       1.0  0.3071631248115524  0.1887307437731565  0.5621510605561044  1.0000
  O   O38       1.0  0.3071584168234125  0.6887284024282536  0.9378537476645763  1.0000
  O   O39       1.0  0.6928392320511634  0.8112655743470255  0.4378489394438959  1.0000
  O   O40       1.0  0.6928393145924474  0.3112699173118756  0.062148999890098415  1.0000
