data_image0
_chemical_formula_structural       La2P4H16C8O16
_chemical_formula_sum              "La2 P4 H16 C8 O16"
_cell_length_a       5.997771845769593
_cell_length_b       10.091128713293832
_cell_length_c       9.229461951947549
_cell_angle_alpha    92.51013483680758
_cell_angle_beta     106.73795035120641
_cell_angle_gamma    107.96317038208937

_space_group_name_H-M_alt    "P 1"
_space_group_IT_number       1

loop_
  _space_group_symop_operation_xyz
  'x, y, z'

loop_
  _atom_site_type_symbol
  _atom_site_label
  _atom_site_symmetry_multiplicity
  _atom_site_fract_x
  _atom_site_fract_y
  _atom_site_fract_z
  _atom_site_occupancy
  La  La1       1.0  0.7845718328038416  0.4803837792709301  0.1802521156181385  1.0000
  La  La2       1.0  0.2154211078777095  0.5196170167038048  0.8197447129978954  1.0000
  P   P1        1.0  0.443697956066899  0.6353676421927903  0.2635629151909669  1.0000
  P   P2        1.0  0.5563077840585322  0.36463100588881764  0.7364379472546219  1.0000
  P   P3        1.0  0.19733185116266583  0.8054460151239625  0.06520982712368102  1.0000
  P   P4        1.0  0.8026582473217729  0.19454600765632082  0.9347942865812372  1.0000
  H   H1        1.0  0.6252273410437468  0.8607142402951311  0.19620006240580076  1.0000
  H   H2        1.0  0.374767382422462  0.13928651612793885  0.8037981386228026  1.0000
  H   H3        1.0  0.09791775022505796  0.8148406218999186  0.3654475202658817  1.0000
  H   H4        1.0  0.9020751745884112  0.18515693319906754  0.6345511317692356  1.0000
  H   H5        1.0  0.8592029728105146  0.03386488929979951  0.4066422776607865  1.0000
  H   H6        1.0  0.1407924029529327  0.966136873684036  0.5933572222607069  1.0000
  H   H7        1.0  0.12903233119771335  0.9998521799497199  0.11992903805991524  1.0000
  H   H8        1.0  0.8709798403858074  0.00015187593682239694  0.8800701944622986  1.0000
  H   H9        1.0  0.264650554005236  0.27759655075761464  0.08064964396728411  1.0000
  H   H10       1.0  0.7353493595760058  0.7224042686522125  0.9193483266138287  1.0000
  H   H11       1.0  0.45589196827378237  0.2024676708063993  0.15413976312942174  1.0000
  H   H12       1.0  0.5441194877611082  0.7975387102159956  0.8458541732382301  1.0000
  H   H13       1.0  0.7954927857194463  0.3692106480255148  0.49148754123724814  1.0000
  H   H14       1.0  0.20450262960373797  0.6307910695478827  0.5085130456055396  1.0000
  H   H15       1.0  0.03374545982480018  0.35616837945383384  0.4625145132323284  1.0000
  H   H16       1.0  0.9662510068663366  0.6438323828280091  0.5374839732875358  1.0000
  C   C1        1.0  0.4600579902717711  0.8165241163795541  0.23167803747983842  1.0000
  C   C2        1.0  0.5399443425232917  0.1834744291636312  0.768324427825803  1.0000
  C   C3        1.0  0.477390406031006  0.9104683936870259  0.36989955447358375  1.0000
  C   C4        1.0  0.5226105747862704  0.08953471130698182  0.6300944923655365  1.0000
  C   C5        1.0  0.2755360642588161  0.8957857728795847  0.4233062400733304  1.0000
  C   C6        1.0  0.7244707431026427  0.10421516078621813  0.5766906986302658  1.0000
  C   C7        1.0  0.7010505512676346  0.016938399567038697  0.44801480609655187  1.0000
  C   C8        1.0  0.2989525446802831  0.9830675434675272  0.5519874851064231  1.0000
  O   O1        1.0  0.22690996825689785  0.5763276638666924  0.32519615197598034  1.0000
  O   O2        1.0  0.773101630148865  0.4236752946382012  0.674803955495939  1.0000
  O   O3        1.0  0.9562492156812114  0.7212804107551349  0.09203319507354728  1.0000
  O   O4        1.0  0.04375188034193665  0.2787240657554833  0.9079783809582267  1.0000
  O   O5        1.0  0.6938852082328211  0.6311838574289512  0.3636419993940408  1.0000
  O   O6        1.0  0.3061182313580063  0.36881692828798424  0.6363576290909095  1.0000
  O   O7        1.0  0.3917708701380391  0.5546487118843828  0.10242078468204602  1.0000
  O   O8        1.0  0.608239463233005  0.4453521880885206  0.8975778119253874  1.0000
  O   O9        1.0  0.20926645722720857  0.966713238957155  0.05454472658450987  1.0000
  O   O10       1.0  0.7907273052874474  0.033280347026732195  0.9454482139402743  1.0000
  O   O11       1.0  0.2302935799001987  0.7548853696760461  0.9188600662077208  1.0000
  O   O12       1.0  0.76968774703181  0.24510342834506824  0.08114335653863239  1.0000
  O   O13       1.0  0.3938318176672482  0.2775166618774918  0.17674875488519604  1.0000
  O   O14       1.0  0.6061645540363332  0.7224809503494855  0.8232493812111558  1.0000
  O   O15       1.0  0.8655439968116383  0.3558742047304406  0.4091387217666523  1.0000
  O   O16       1.0  0.13445080577405136  0.6441264608717462  0.5908616531045399  1.0000
