data_image0
_chemical_formula_structural       K4H12C8S4N16
_chemical_formula_sum              "K4 H12 C8 S4 N16"
_cell_length_a       6.5109615032415045
_cell_length_b       6.653140145937517
_cell_length_c       13.893657780548137
_cell_angle_alpha    90.00377810068458
_cell_angle_beta     90.00004152243172
_cell_angle_gamma    90.00105445981355

_space_group_name_H-M_alt    "P 1"
_space_group_IT_number       1

loop_
  _space_group_symop_operation_xyz
  'x, y, z'

loop_
  _atom_site_type_symbol
  _atom_site_label
  _atom_site_symmetry_multiplicity
  _atom_site_fract_x
  _atom_site_fract_y
  _atom_site_fract_z
  _atom_site_occupancy
  K   K1        1.0  0.749965523953307  0.3934112954309442  0.23686695232338914  1.0000
  K   K2        1.0  0.24996912811010222  0.893410386904236  0.2631406911958081  1.0000
  K   K3        1.0  0.750015195660083  0.10658417640029684  0.7368653818459735  1.0000
  K   K4        1.0  0.25003415888058805  0.6066178384422757  0.7631434397845638  1.0000
  H   H1        1.0  0.3876994977869613  0.09646046399626582  0.050811113820877614  1.0000
  H   H2        1.0  0.612295249058043  0.5964912674331089  0.4491684375979262  1.0000
  H   H3        1.0  0.11229964159615238  0.40354606660736186  0.5508044731971182  1.0000
  H   H4        1.0  0.8877310863775418  0.9034973384749702  0.949187815413268  1.0000
  H   H5        1.0  0.6122832896404302  0.903487504260518  0.9491877609561004  1.0000
  H   H6        1.0  0.38773207958894323  0.4035528946427362  0.5508052473566494  1.0000
  H   H7        1.0  0.88773383050426  0.5964950891731746  0.4491656129468637  1.0000
  H   H8        1.0  0.1122271272441822  0.0964641572695655  0.05081465833682592  1.0000
  H   H9        1.0  0.24997269581654535  0.13221799280617566  0.9407738342519354  1.0000
  H   H10       1.0  0.7500080575676547  0.6322139644448299  0.5592134840618571  1.0000
  H   H11       1.0  0.2500069837947478  0.367798633831569  0.4407652386618893  1.0000
  H   H12       1.0  0.7500070200324771  0.8677450074076136  0.05924663334780432  1.0000
  C   C1        1.0  0.24999563684878723  0.48266043624843047  0.11686818638825973  1.0000
  C   C2        1.0  0.7499914868854347  0.9826829630374689  0.3831357986235702  1.0000
  C   C3        1.0  0.250000516781661  0.0173657098716689  0.6168666765099076  1.0000
  C   C4        1.0  0.7500163322831953  0.5173010608899845  0.8831479626769083  1.0000
  C   C5        1.0  0.2499862191626931  0.16213281365123325  0.018186446127110407  1.0000
  C   C6        1.0  0.7500006277491593  0.6621493851190011  0.4818030965741259  1.0000
  C   C7        1.0  0.25000212673462835  0.3378722316491505  0.5181799448068177  1.0000
  C   C8        1.0  0.7500011761095777  0.8378377008846414  0.9818196265354974  1.0000
  S   S1        1.0  0.24997782954923758  0.38415838403172825  0.23051057007266001  1.0000
  S   S2        1.0  0.749976604019686  0.8842073533125117  0.2695198140814128  1.0000
  S   S3        1.0  0.25001232796188316  0.11584733147213912  0.730478342629212  1.0000
  S   S4        1.0  0.750026460282342  0.6158091248938647  0.7695005408158766  1.0000
  N   N1        1.0  0.2499899187367234  0.3772427565522208  0.0325892190312871  1.0000
  N   N2        1.0  0.7500027727032331  0.8772558413090294  0.4673876844250273  1.0000
  N   N3        1.0  0.25000305380005716  0.1227928309733386  0.5326039944181815  1.0000
  N   N4        1.0  0.7500082275318577  0.6227172368751895  0.967419012725877  1.0000
  N   N5        1.0  0.24999796766991267  0.5074961092214849  0.958022880148043  1.0000
  N   N6        1.0  0.7500094690983873  0.007495739216516  0.5419590594468175  1.0000
  N   N7        1.0  0.25000403646726704  0.9925228727814075  0.4580419757104367  1.0000
  N   N8        1.0  0.7499940351922731  0.4924713998483767  0.041991829502393316  1.0000
  N   N9        1.0  0.2500044017324328  0.6874648051903521  0.9950462109161864  1.0000
  N   N10       1.0  0.7500051042520608  0.18749090330310736  0.5049507701025817  1.0000
  N   N11       1.0  0.2500037939546189  0.8125532604506631  0.4950495457044256  1.0000
  N   N12       1.0  0.7499952802091129  0.3124756483071778  0.0049577020155098  1.0000
  N   N13       1.0  0.2500021995141282  0.6794785724894439  0.09206789107720682  1.0000
  N   N14       1.0  0.7499957459489507  0.1794955163086769  0.4079337155347815  1.0000
  N   N15       1.0  0.2500008652864593  0.8205486473911917  0.5920673200226646  1.0000
  N   N16       1.0  0.750008233874851  0.32049645133980686  0.9079374619082831  1.0000
