data_image0
_chemical_formula_structural       Zn2H36C28N4O16
_chemical_formula_sum              "Zn2 H36 C28 N4 O16"
_cell_length_a       4.774537524037712
_cell_length_b       11.804825627598298
_cell_length_c       14.688989240105217
_cell_angle_alpha    91.09431758432162
_cell_angle_beta     90.00029305556659
_cell_angle_gamma    89.9996477824583

_space_group_name_H-M_alt    "P 1"
_space_group_IT_number       1

loop_
  _space_group_symop_operation_xyz
  'x, y, z'

loop_
  _atom_site_type_symbol
  _atom_site_label
  _atom_site_symmetry_multiplicity
  _atom_site_fract_x
  _atom_site_fract_y
  _atom_site_fract_z
  _atom_site_occupancy
  Zn  Zn1       1.0  0.9022978855819377  0.0315246940378842  0.16700393637215433  1.0000
  Zn  Zn2       1.0  0.4022957517546218  0.9684753088312732  0.8329970028602317  1.0000
  H   H1        1.0  0.013602205237830798  0.6161156741228381  0.17417576214187847  1.0000
  H   H2        1.0  0.5136030502206667  0.3838835888444905  0.8258245034134789  1.0000
  H   H3        1.0  0.6354448113997365  0.5119857184317311  0.09648564800662031  1.0000
  H   H4        1.0  0.13545106204312424  0.48801833732076016  0.9035142554610545  1.0000
  H   H5        1.0  0.8334983813160194  0.5883111502242641  0.0153327811300272  1.0000
  H   H6        1.0  0.3335028720777302  0.41169158061732963  0.9846667446476404  1.0000
  H   H7        1.0  0.4977610409700618  0.6399928605028506  0.05110680141577719  1.0000
  H   H8        1.0  0.9977641777514423  0.3600111527120475  0.948893712741743  1.0000
  H   H9        1.0  0.6332189685151948  0.5421589382790015  0.4629610676460061  1.0000
  H   H10       1.0  0.13321364548595233  0.45783831914145157  0.5370407141944895  1.0000
  H   H11       1.0  0.3814820647376608  0.6097734610107179  0.6005683803537281  1.0000
  H   H12       1.0  0.8814865986804181  0.39022321276469524  0.3994317644192975  1.0000
  H   H13       1.0  0.947552607067813  0.8560125327087107  0.4389984654687638  1.0000
  H   H14       1.0  0.4475586977431903  0.14398486943631633  0.5609984039389175  1.0000
  H   H15       1.0  0.19616827920723526  0.7881627642641648  0.302190166025781  1.0000
  H   H16       1.0  0.6961655339725257  0.21183608509169724  0.6978076747268319  1.0000
  H   H17       1.0  0.5589168193390677  0.7756675079518729  0.7312698856665775  1.0000
  H   H18       1.0  0.05891292020081809  0.22433421144543794  0.2687284718613299  1.0000
  H   H19       1.0  0.5818507986051956  0.5791864612098365  0.7857261813860674  1.0000
  H   H20       1.0  0.08184725778063043  0.42081689630914104  0.21427225349027879  1.0000
  H   H21       1.0  0.5869067502606528  0.678979520635899  0.8776042396667805  1.0000
  H   H22       1.0  0.08690118582185852  0.3210238331501145  0.1223935228379815  1.0000
  H   H23       1.0  0.9048288908699222  0.6105810033685017  0.8433205055009481  1.0000
  H   H24       1.0  0.40482492239818413  0.389420713772189  0.15667843597424283  1.0000
  H   H25       1.0  0.6049362862364448  0.7707587599858599  0.2369859956768821  1.0000
  H   H26       1.0  0.10493168695610683  0.22924193841276969  0.7630171811927511  1.0000
  H   H27       1.0  0.9980197426781533  0.6217225365114842  0.6729622118214493  1.0000
  H   H28       1.0  0.4980207092183733  0.3782764101047462  0.3270368216589645  1.0000
  H   H29       1.0  0.769513891673306  0.1214467380991735  0.9974133213066594  1.0000
  H   H30       1.0  0.26951475772118993  0.8785527436310119  0.0025873814610334993  1.0000
  H   H31       1.0  0.6768224784945432  0.9972469838768346  0.010312394911430493  1.0000
  H   H32       1.0  0.17682277082511186  0.0027518782609092986  0.9896881367548859  1.0000
  H   H33       1.0  0.7482110138441059  0.04206786350261639  0.34943517741435676  1.0000
  H   H34       1.0  0.24820198975212554  0.9579308233332707  0.6505654706349517  1.0000
  H   H35       1.0  0.07944456201297363  0.0519753502564058  0.3451414859845769  1.0000
  H   H36       1.0  0.5794383683532871  0.9480262926901447  0.6548589468487337  1.0000
  C   C1        1.0  0.9428214112873406  0.778780964097976  0.1167530876964662  1.0000
  C   C2        1.0  0.44281881917753213  0.2212189132132706  0.8832499594435816  1.0000
  C   C3        1.0  0.830987625231778  0.6642703323987361  0.15015986522432456  1.0000
  C   C4        1.0  0.33098486887954703  0.33573153135401423  0.8498416783146467  1.0000
  C   C5        1.0  0.6892711876574609  0.5968458508210688  0.07303987169994029  1.0000
  C   C6        1.0  0.18927699713162136  0.4031563783046437  0.9269600795679409  1.0000
  C   C7        1.0  0.594159919874052  0.6128229153023453  0.29368152312369494  1.0000
  C   C8        1.0  0.09415413326706103  0.3871769970637544  0.7063188937446087  1.0000
  C   C9        1.0  0.43166906620462  0.6586591290122926  0.3732625904441278  1.0000
  C   C10       1.0  0.9316653389358437  0.34133826874715834  0.6267376561246464  1.0000
  C   C11       1.0  0.4805732644826153  0.6100738406961028  0.4580027747176629  1.0000
  C   C12       1.0  0.980577944424788  0.3899225810538809  0.5419982122250673  1.0000
  C   C13       1.0  0.3385702976201587  0.6483486948065789  0.5352037887022405  1.0000
  C   C14       1.0  0.8385743466302389  0.35164723712928486  0.4647962661293192  1.0000
  C   C15       1.0  0.14181754124295762  0.7358709336856822  0.528445465684122  1.0000
  C   C16       1.0  0.6418230220935044  0.26412804045182264  0.4715529670757945  1.0000
  C   C17       1.0  0.09717342722033352  0.7868725020698406  0.4442265815186275  1.0000
  C   C18       1.0  0.5971726237630507  0.21312404004694935  0.5557717185137108  1.0000
  C   C19       1.0  0.24024665658166813  0.7484365756231384  0.3670959792949233  1.0000
  C   C20       1.0  0.7402485749404591  0.2515596411787159  0.6329005121644542  1.0000
  C   C21       1.0  0.9761227462282919  0.7767786667847074  0.6082290968396933  1.0000
  C   C22       1.0  0.4761249825095746  0.22321949506329725  0.3917692003497208  1.0000
  C   C23       1.0  0.7607315603776856  0.7416980325235796  0.7533179401059159  1.0000
  C   C24       1.0  0.26073308418925484  0.2583048596581676  0.2466828282577467  1.0000
  C   C25       1.0  0.9246193198482617  0.8382833424482071  0.8000680547224022  1.0000
  C   C26       1.0  0.42461947921886894  0.1617174615040113  0.19993226026974747  1.0000
  C   C27       1.0  0.7067170986920744  0.6460606694043419  0.8192131900198092  1.0000
  C   C28       1.0  0.20671404578550326  0.35394068702951376  0.18078540847971425  1.0000
  N   N1        1.0  0.645862277059841  0.6864859104171758  0.2271346489276311  1.0000
  N   N2        1.0  0.14586283893832794  0.3135138749724078  0.772865852240436  1.0000
  N   N3        1.0  0.9138078360269545  0.7022442852042091  0.6730635815757182  1.0000
  N   N4        1.0  0.4138079263631057  0.2977557067580463  0.3269360151979583  1.0000
  O   O1        1.0  0.8386800109705207  0.04802732985241679  0.024570401965746697  1.0000
  O   O2        1.0  0.3386803609667979  0.9519711348015747  0.9754303935902229  1.0000
  O   O3        1.0  0.9158628578799652  0.0103708855556519  0.3193602789431793  1.0000
  O   O4        1.0  0.41585173080940063  0.9896299485949883  0.6806393411503251  1.0000
  O   O5        1.0  0.8402750157092812  0.8663579984721251  0.1582484150146328  1.0000
  O   O6        1.0  0.3402710050966037  0.1336437903899252  0.8417572273437202  1.0000
  O   O7        1.0  0.11971294754664541  0.7757129242699177  0.05378814161236529  1.0000
  O   O8        1.0  0.6197285705460304  0.22428862844101624  0.9462116762785087  1.0000
  O   O9        1.0  0.18840154091287795  0.8260326808470995  0.8039567265586101  1.0000
  O   O10       1.0  0.6883998778432031  0.17396870320217062  0.1960432033068216  1.0000
  O   O11       1.0  0.803321307281614  0.9255382327968108  0.8332674941291458  1.0000
  O   O12       1.0  0.3033201733654991  0.07446286903613948  0.16673262309984693  1.0000
  O   O13       1.0  0.6802674289595105  0.5123145748281814  0.2909663135542999  1.0000
  O   O14       1.0  0.18026435120378892  0.4876843048960353  0.7090321818866414  1.0000
  O   O15       1.0  0.8965603823664595  0.8790151786530985  0.6137212709155265  1.0000
  O   O16       1.0  0.3965577979545644  0.1209840431699121  0.3862755553052679  1.0000
