data_image0
_chemical_formula_structural       Hg4H40C44Br8N16
_chemical_formula_sum              "Hg4 H40 C44 Br8 N16"
_cell_length_a       5.040823317298502
_cell_length_b       15.860791870829175
_cell_length_c       20.792274247200773
_cell_angle_alpha    89.99960686427029
_cell_angle_beta     89.99970363302032
_cell_angle_gamma    94.09315993429098

_space_group_name_H-M_alt    "P 1"
_space_group_IT_number       1

loop_
  _space_group_symop_operation_xyz
  'x, y, z'

loop_
  _atom_site_type_symbol
  _atom_site_label
  _atom_site_symmetry_multiplicity
  _atom_site_fract_x
  _atom_site_fract_y
  _atom_site_fract_z
  _atom_site_occupancy
  Hg  Hg1       1.0  0.9990040174501829  0.2703744262034321  0.15753598653915193  1.0000
  Hg  Hg2       1.0  0.0010018868483499081  0.22962166308226276  0.6575407684273813  1.0000
  Hg  Hg3       1.0  0.0009634668380656182  0.7296059561045072  0.8424620438107482  1.0000
  Hg  Hg4       1.0  0.9990299950293319  0.7703949518772366  0.3424553379952259  1.0000
  H   H1        1.0  0.1871860746502563  0.08832119670987745  0.20364067102384817  1.0000
  H   H2        1.0  0.8128241383434865  0.4116814060571132  0.7036405237660048  1.0000
  H   H3        1.0  0.8128296353441156  0.9116833595473539  0.7963626496583486  1.0000
  H   H4        1.0  0.18717580926563926  0.5883237256307867  0.2963599112384827  1.0000
  H   H5        1.0  0.514132639314809  0.019723211522865797  0.2727581155005439  1.0000
  H   H6        1.0  0.4858846458424109  0.48028190023904227  0.772756154018083  1.0000
  H   H7        1.0  0.48590436016129246  0.980289000234571  0.7272452051476181  1.0000
  H   H8        1.0  0.5140900417528724  0.5197155617905906  0.22724380007536385  1.0000
  H   H9        1.0  0.773949535571127  0.27029095678047815  0.34209459761691363  1.0000
  H   H10       1.0  0.22606723517136365  0.22971852965226705  0.8420956996188239  1.0000
  H   H11       1.0  0.22603867028487196  0.7297255023623564  0.6579120896895605  1.0000
  H   H12       1.0  0.7739816952961505  0.770272880841276  0.15790473538611147  1.0000
  H   H13       1.0  0.42717113888269137  0.32606747306098793  0.2735702078701081  1.0000
  H   H14       1.0  0.5728348160283899  0.17394074849940475  0.77357351303025  1.0000
  H   H15       1.0  0.5728046764604143  0.6739464153820621  0.7264335937642203  1.0000
  H   H16       1.0  0.4272321517814746  0.8260620956829858  0.2264269219334096  1.0000
  H   H17       1.0  0.9761888166803061  0.20188363933041137  0.41128138476936743  1.0000
  H   H18       1.0  0.023816079761331814  0.2981226031802323  0.9112785764176864  1.0000
  H   H19       1.0  0.023818164259907314  0.7981272020885941  0.5887257834860478  1.0000
  H   H20       1.0  0.9761693917437312  0.7018584749385256  0.08871320159565951  1.0000
  H   H21       1.0  0.4304469886646558  0.24446213992415272  0.43661029559738307  1.0000
  H   H22       1.0  0.569520078540229  0.2555355093037762  0.9366127142048486  1.0000
  H   H23       1.0  0.5695237786159737  0.7555460458680091  0.5633867727846181  1.0000
  H   H24       1.0  0.43042389155726096  0.7444359463192144  0.06338291144448502  1.0000
  H   H25       1.0  0.7452439023580125  0.2905540044525381  0.5250341505804386  1.0000
  H   H26       1.0  0.25475446027027704  0.20945156196596326  0.025043213990827  1.0000
  H   H27       1.0  0.2547708306021619  0.709466339181404  0.47495233688732713  1.0000
  H   H28       1.0  0.7452021397907342  0.7905237284660703  0.97495674017091  1.0000
  H   H29       1.0  0.5887101809702457  0.06655384314625222  0.6244226995785526  1.0000
  H   H30       1.0  0.41130501642631156  0.43345649828806654  0.1244217623487671  1.0000
  H   H31       1.0  0.41134966453154925  0.933474240874766  0.37557917817023423  1.0000
  H   H32       1.0  0.5886686631643343  0.5665251693910421  0.8755733823063852  1.0000
  H   H33       1.0  0.25156693058188034  0.012767940805943599  0.5418909718110925  1.0000
  H   H34       1.0  0.748439374568214  0.4872393844374658  0.041883524274993505  1.0000
  H   H35       1.0  0.74846952033959  0.9872518485315497  0.45812004398431583  1.0000
  H   H36       1.0  0.2515161982156187  0.5127409554388651  0.9581044061780376  1.0000
  H   H37       1.0  0.8795499239736979  0.03744533893311801  0.3423548213132221  1.0000
  H   H38       1.0  0.12045480991984187  0.4625634704111903  0.8423539377358439  1.0000
  H   H39       1.0  0.12046023958016153  0.9625718301549429  0.6576509040804767  1.0000
  H   H40       1.0  0.8795193485363128  0.5374207254698861  0.15764745923492282  1.0000
  C   C1        1.0  0.31823425928014604  0.1257419857701976  0.2362304754320661  1.0000
  C   C2        1.0  0.6817797112185956  0.37426283894961204  0.7362278127209622  1.0000
  C   C3        1.0  0.6817820493688771  0.874265730773175  0.7637738071375112  1.0000
  C   C4        1.0  0.3182222216540254  0.6257422998161319  0.2637731032299939  1.0000
  C   C5        1.0  0.50083671903203  0.08793553300293412  0.2744734943466157  1.0000
  C   C6        1.0  0.4991888299871619  0.41207148639267643  0.774470414418481  1.0000
  C   C7        1.0  0.4991837995844079  0.9120734618006598  0.7255341548519072  1.0000
  C   C8        1.0  0.5008136513584063  0.5879260747551812  0.22553050155114115  1.0000
  C   C9        1.0  0.669017875924183  0.1386563291283025  0.3148238143436402  1.0000
  C   C10       1.0  0.33101614400052876  0.3613471686163195  0.8148207421778582  1.0000
  C   C11       1.0  0.3310030018860672  0.8613545618474563  0.6851843157977343  1.0000
  C   C12       1.0  0.6689888711070111  0.6386428220033197  0.18517825001755744  1.0000
  C   C13       1.0  0.6432978223200934  0.2263126992001858  0.314525905171628  1.0000
  C   C14       1.0  0.3567262775675743  0.2736907660636092  0.8145246807380816  1.0000
  C   C15       1.0  0.3566988730730571  0.7736962106408715  0.6854817440436636  1.0000
  C   C16       1.0  0.6433204281653886  0.7262993732333815  0.185475754271593  1.0000
  C   C17       1.0  0.4513084654553267  0.25827025137944304  0.2753166832110665  1.0000
  C   C18       1.0  0.5487065406234563  0.24173356401990292  0.7753163144869007  1.0000
  C   C19       1.0  0.5486739738331323  0.7417367127137883  0.7246933707583738  1.0000
  C   C20       1.0  0.451351887477756  0.7582660915649486  0.2246812348034979  1.0000
  C   C21       1.0  0.0010960648974674  0.13499037398259622  0.4011847299919395  1.0000
  C   C22       1.0  0.9988867290205404  0.36501336168193893  0.9011840777617622  1.0000
  C   C23       1.0  0.9988968994550544  0.8650197858285723  0.5988200335355884  1.0000
  C   C24       1.0  0.0010778121659527505  0.6349619570945821  0.0988110669156939  1.0000
  C   C25       1.0  0.3158278137179309  0.1235031778371436  0.4820544815532842  1.0000
  C   C26       1.0  0.6841608449968745  0.37649789481510254  0.9820484376355625  1.0000
  C   C27       1.0  0.6841779003719282  0.8765114488601571  0.5179507629020251  1.0000
  C   C28       1.0  0.31578678673295  0.6234824167498375  0.017937569031580804  1.0000
  C   C29       1.0  0.455899876193669  0.20344742031032584  0.4778848462032741  1.0000
  C   C30       1.0  0.5440862175398777  0.2965606318015902  0.97788276544447  1.0000
  C   C31       1.0  0.5440944052777112  0.7965696921667771  0.5221146268792937  1.0000
  C   C32       1.0  0.45587471231853266  0.7034165689937597  0.022111417335033  1.0000
  C   C33       1.0  0.633038229338375  0.22906372743925377  0.5264296128726045  1.0000
  C   C34       1.0  0.3669697906130834  0.27094059657788  0.026431477963413403  1.0000
  C   C35       1.0  0.3669896820582609  0.770952873385831  0.47356120312623073  1.0000
  C   C36       1.0  0.6329810931642185  0.729035936755871  0.9735631857726119  1.0000
  C   C37       1.0  0.5434516650129096  0.10412249508136281  0.5824224210623187  1.0000
  C   C38       1.0  0.45656231920277424  0.39588762020607515  0.08242016693711213  1.0000
  C   C39       1.0  0.4565977752343855  0.895903025315363  0.4175775329086591  1.0000
  C   C40       1.0  0.5433936127544426  0.6040946158329563  0.9175701682502507  1.0000
  C   C41       1.0  0.36083169702583007  0.07403425677034653  0.5366710146677036  1.0000
  C   C42       1.0  0.63916768558974  0.42596741005052513  0.0366606603481685  1.0000
  C   C43       1.0  0.6391959747261423  0.9259810798556318  0.46333663450991486  1.0000
  C   C44       1.0  0.360796975391004  0.5740085408125495  0.9633287129531852  1.0000
  Br  Br1       1.0  0.7941833738642713  0.1368627082328544  0.10586390629460851  1.0000
  Br  Br2       1.0  0.20584654301926258  0.3631396554818665  0.6058816798371964  1.0000
  Br  Br3       1.0  0.2058519687759457  0.8631198109862552  0.8941322002112955  1.0000
  Br  Br4       1.0  0.794198996165498  0.636875744873109  0.39412452648423374  1.0000
  Br  Br5       1.0  0.9658084140469823  0.4108170419283611  0.21908832684830773  1.0000
  Br  Br6       1.0  0.0342843732314932  0.08918317805188994  0.7190937685019563  1.0000
  Br  Br7       1.0  0.034084348335021365  0.5891668636356758  0.7809188415541826  1.0000
  Br  Br8       1.0  0.9657961824618368  0.9108285574309396  0.28090570453417746  1.0000
  N   N1        1.0  0.2910012089099467  0.2094749477301009  0.2367727931004282  1.0000
  N   N2        1.0  0.7090015567944263  0.29053362149467427  0.7367762848188804  1.0000
  N   N3        1.0  0.7089894109852678  0.7905333088310658  0.7632310085377725  1.0000
  N   N4        1.0  0.2910348440627714  0.7094754299931695  0.2632227073068094  1.0000
  N   N5        1.0  0.8524318724410093  0.09990785418026601  0.3522891423570087  1.0000
  N   N6        1.0  0.14756808128305468  0.4000976830162558  0.8522909398254442  1.0000
  N   N7        1.0  0.14756578083635222  0.9001061121356461  0.6477165830534305  1.0000
  N   N8        1.0  0.8524280348760696  0.599887222812406  0.14770901428467204  1.0000
  N   N9        1.0  0.15046662174587763  0.08857946359257342  0.4344153549310193  1.0000
  N   N10       1.0  0.8495018787271105  0.4114150540344  0.934412272299234  1.0000
  N   N11       1.0  0.849520745979319  0.9114325711430313  0.5655913323871644  1.0000
  N   N12       1.0  0.1504579735345573  0.5885564582373777  0.0655819104953181  1.0000
  N   N13       1.0  0.6794074406303635  0.1800260448011174  0.577331302610766  1.0000
  N   N14       1.0  0.3205896918687968  0.31997837534802903  0.0773358713408498  1.0000
  N   N15       1.0  0.32062178780854106  0.8199975086544384  0.4226614371611603  1.0000
  N   N16       1.0  0.679367267406448  0.6799988112656126  0.9226626399722734  1.0000
