data_image0
_chemical_formula_structural       FeNiH12C14N8
_chemical_formula_sum              "Fe1 Ni1 H12 C14 N8"
_cell_length_a       6.857097930575142
_cell_length_b       7.018487590692111
_cell_length_c       8.370170104781064
_cell_angle_alpha    96.15966402075406
_cell_angle_beta     114.1783004258114
_cell_angle_gamma    90.00031419038945

_space_group_name_H-M_alt    "P 1"
_space_group_IT_number       1

loop_
  _space_group_symop_operation_xyz
  'x, y, z'

loop_
  _atom_site_type_symbol
  _atom_site_label
  _atom_site_symmetry_multiplicity
  _atom_site_fract_x
  _atom_site_fract_y
  _atom_site_fract_z
  _atom_site_occupancy
  Fe  Fe1       1.0  3.3735316477989517e-06  0.49999848798199753  1.937424734405962e-06  1.0000
  Ni  Ni1       1.0  0.5000060598471379  9.055932764600228e-06  3.873053181299984e-06  1.0000
  H   H1        1.0  0.3852559465288295  0.058562886552465394  0.5319513261623356  1.0000
  H   H2        1.0  0.854753832458492  0.9430441572799493  0.4733121903875031  1.0000
  H   H3        1.0  0.6147378482010027  0.9414348173369332  0.46803714902891613  1.0000
  H   H4        1.0  0.14524172036831834  0.05695623427865829  0.5266974433640853  1.0000
  H   H5        1.0  0.11633749233494232  0.20131544101197815  0.23279525281584057  1.0000
  H   H6        1.0  0.8836675723583273  0.7986836336606585  0.7672007185708836  1.0000
  H   H7        1.0  0.3825322047512288  0.4803439981022136  0.7657108210287973  1.0000
  H   H8        1.0  0.6174631866079778  0.5196536490279725  0.23428415802599287  1.0000
  H   H9        1.0  0.3204299420215904  0.7950365771659943  0.6411470853790248  1.0000
  H   H10       1.0  0.6795622510167547  0.20496102721281054  0.3588527905004072  1.0000
  H   H11       1.0  0.15417240039852234  0.7942968885995824  0.308529553540012  1.0000
  H   H12       1.0  0.8458278673196632  0.20570213757296324  0.6914719726285057  1.0000
  C   C1        1.0  0.3186322946185811  0.8136721474951754  0.011928309809725587  1.0000
  C   C2        1.0  0.3060961929628122  0.1857815090005771  0.9880308081645592  1.0000
  C   C3        1.0  0.681384039700639  0.18632828754272168  0.9880763514092692  1.0000
  C   C4        1.0  0.6939098883743359  0.8142074450219708  0.011972895665273594  1.0000
  C   C5        1.0  0.16329603175616111  0.33059774988620205  0.32676893847534666  1.0000
  C   C6        1.0  0.8367042369744482  0.6694013075403049  0.673229006782833  1.0000
  C   C7        1.0  0.25364903620335616  0.31839338922752347  0.5077906193988041  1.0000
  C   C8        1.0  0.7463545936656147  0.6816084970507318  0.49221230918440273  1.0000
  C   C9        1.0  0.31189613778681047  0.4869059377753046  0.6239930227361228  1.0000
  C   C10       1.0  0.688094457272264  0.5130916816907671  0.37600512382689283  1.0000
  C   C11       1.0  0.2763851275594576  0.6610980697254405  0.552786120149939  1.0000
  C   C12       1.0  0.7236089944927571  0.33890525845463054  0.4472161471567587  1.0000
  C   C13       1.0  0.1854629952905213  0.6624649118040222  0.3708004973629356  1.0000
  C   C14       1.0  0.8145309632692418  0.3375356094397047  0.6291942770676469  1.0000
  N   N1        1.0  0.20309606523404974  0.6926608721691567  0.015978136996629613  1.0000
  N   N2        1.0  0.1865768984207463  0.3068891543408724  0.9840258855004933  1.0000
  N   N3        1.0  0.7969123612725257  0.30734105219120506  0.9840204304415678  1.0000
  N   N4        1.0  0.8134164535761528  0.6931285465657451  0.01597511413013559  1.0000
  N   N5        1.0  0.1290722194205287  0.498743481629404  0.2582113102649756  1.0000
  N   N6        1.0  0.8709313293771644  0.5012570220166523  0.7417854846066163  1.0000
  N   N7        1.0  0.28651009300903507  0.1360157803734623  0.5749701748744727  1.0000
  N   N8        1.0  0.7134915250874272  0.8639789473814045  0.4250301967537594  1.0000
