data_image0
_chemical_formula_structural       Zn4H24C40N48
_chemical_formula_sum              "Zn4 H24 C40 N48"
_cell_length_a       8.354540489
_cell_length_b       9.465197776
_cell_length_c       17.8056
_cell_angle_alpha    90.0
_cell_angle_beta     90.0
_cell_angle_gamma    90.0

_space_group_name_H-M_alt    "P 1"
_space_group_IT_number       1

loop_
  _space_group_symop_operation_xyz
  'x, y, z'

loop_
  _atom_site_type_symbol
  _atom_site_label
  _atom_site_symmetry_multiplicity
  _atom_site_fract_x
  _atom_site_fract_y
  _atom_site_fract_z
  _atom_site_occupancy
  Zn  Zn1       1.0  0.0  0.5000001174830189  0.0  1.0000
  Zn  Zn2       1.0  0.4999999707344784  0.5000001174830189  0.5  1.0000
  Zn  Zn3       1.0  0.0  0.0  0.5  1.0000
  Zn  Zn4       1.0  0.4999999707344784  0.0  0.0  1.0000
  H   H1        1.0  0.9140335138783939  0.6943880260659014  0.31658803971784266  1.0000
  H   H2        1.0  0.5859640044171925  0.3056111523981713  0.8165880397178427  1.0000
  H   H3        1.0  0.0859652306366385  0.1943879085828826  0.1834119602821573  1.0000
  H   H4        1.0  0.4140359370517643  0.8056112698811901  0.683411398661093  1.0000
  H   H5        1.0  0.0859628367287968  0.3056111523981713  0.683411398661093  1.0000
  H   H6        1.0  0.4140371340056817  0.6943880260659014  0.183411398661093  1.0000
  H   H7        1.0  0.9140359077862359  0.8056123263831552  0.816588601338907  1.0000
  H   H8        1.0  0.5859640044171925  0.1943879085828826  0.316588601338907  1.0000
  H   H9        1.0  0.7740102532885089  0.4671281155065827  0.28141315091880864  1.0000
  H   H10       1.0  0.7259896589149195  0.53287106295749  0.7814131509188087  1.0000
  H   H11       1.0  0.22599088513436535  0.9671271764876437  0.2185868490811913  1.0000
  H   H12       1.0  0.2740102825540306  0.0328720019764361  0.7185868490811913  1.0000
  H   H13       1.0  0.2259884912265235  0.53287106295749  0.7185868490811913  1.0000
  H   H14       1.0  0.2740102825540306  0.4671281155065827  0.2185868490811913  1.0000
  H   H15       1.0  0.7740114502424336  0.0328720019764361  0.7814131509188087  1.0000
  H   H16       1.0  0.7259896589149195  0.9671282329896016  0.281413712539873  1.0000
  H   H17       1.0  0.8052986287945175  0.3836866472255309  0.1458541133126658  1.0000
  H   H18       1.0  0.6947024803628282  0.6163135877405068  0.6458541133126658  1.0000
  H   H19       1.0  0.1947013126744324  0.8836867647085498  0.3541458866873342  1.0000
  H   H20       1.0  0.3052986580600462  0.11631241375552291  0.8541453250662698  1.0000
  H   H21       1.0  0.1947013126744324  0.6163114747365839  0.8541458866873342  1.0000
  H   H22       1.0  0.3052974611061217  0.3836877037274888  0.3541458866873342  1.0000
  H   H23       1.0  0.8052986287945175  0.11631241375552291  0.6458541133126658  1.0000
  H   H24       1.0  0.6947012834089108  0.8836878212105077  0.1458541133126658  1.0000
  C   C1        1.0  0.033683480302777  0.665491640964099  0.1434368962573558  1.0000
  C   C2        1.0  0.4663164904316943  0.3345085940019317  0.6434368962573558  1.0000
  C   C3        1.0  0.9663176581200972  0.1654915234810801  0.35656254212157984  1.0000
  C   C4        1.0  0.5336834510372555  0.8345087114849505  0.8565625421215799  1.0000
  C   C5        1.0  0.9663164611661729  0.3345075374999738  0.8565631037426442  1.0000
  C   C6        1.0  0.5336846479911799  0.665490584462141  0.3565631037426442  1.0000
  C   C7        1.0  0.033683480302777  0.8345087114849505  0.6434374578784201  1.0000
  C   C8        1.0  0.4663164904316943  0.1654915234810801  0.1434368962573558  1.0000
  C   C9        1.0  0.9256607242711041  0.6491570641640223  0.2603984139821165  1.0000
  C   C10       1.0  0.5743379909784068  0.3508431708020154  0.7603984139821165  1.0000
  C   C11       1.0  0.0743392171978527  0.1491558901790455  0.2396015860178835  1.0000
  C   C12       1.0  0.4256607535366257  0.8508432882850272  0.7396010243968192  1.0000
  C   C13       1.0  0.0743368232900039  0.3508431708020154  0.7396010243968192  1.0000
  C   C14       1.0  0.4256619504905502  0.6491570641640223  0.2396015860178835  1.0000
  C   C15       1.0  0.9256619212250288  0.8508432882850272  0.7603989756031808  1.0000
  C   C16       1.0  0.5743379909784068  0.1491558901790455  0.2603984139821165  1.0000
  C   C17       1.0  0.8452996318945696  0.5255516173801738  0.24070629464887364  1.0000
  C   C18       1.0  0.6546978864010172  0.4744496740878219  0.7407068562699378  1.0000
  C   C19       1.0  0.1547003095743804  0.025550443395197  0.25929370535112634  1.0000
  C   C20       1.0  0.3453020550679398  0.9744497915708408  0.7592931437300621  1.0000
  C   C21       1.0  0.15469791566653876  0.47444861758586393  0.7592931437300621  1.0000
  C   C22       1.0  0.3453020550679398  0.5255505608782087  0.25929314373006207  1.0000
  C   C23       1.0  0.8453020258024182  0.9744497915708408  0.7407068562699378  1.0000
  C   C24       1.0  0.6546978864010172  0.025550443395197  0.24070629464887364  1.0000
  C   C25       1.0  0.8647285879471198  0.4782742111822103  0.16719964505548998  1.0000
  C   C26       1.0  0.6352713242563086  0.5217249672818696  0.66719964505549  1.0000
  C   C27       1.0  0.13527255047575446  0.9782743286652291  0.33280035494451  1.0000
  C   C28       1.0  0.3647286172126414  0.0217248497988507  0.83280035494451  1.0000
  C   C29       1.0  0.13527135352183717  0.5217249672818696  0.83280035494451  1.0000
  C   C30       1.0  0.3647298141665659  0.4782742111822103  0.3327997933234457  1.0000
  C   C31       1.0  0.8647285879471198  0.0217248497988507  0.66719964505549  1.0000
  C   C32       1.0  0.6352713242563086  0.978275385167187  0.16719964505548998  1.0000
  C   C33       1.0  0.13710987474514275  0.7331880605386303  0.0878234937323086  1.0000
  C   C34       1.0  0.3628900959893357  0.2668121744274075  0.5878234937323086  1.0000
  C   C35       1.0  0.8628900667238144  0.23318794305561139  0.4121765062676914  1.0000
  C   C36       1.0  0.6371098454796211  0.7668112354084613  0.9121765062676915  1.0000
  C   C37       1.0  0.8628900667238144  0.2668111179254424  0.9121765062676915  1.0000
  C   C38       1.0  0.6371098454796211  0.7331880605386303  0.4121765062676914  1.0000
  C   C39       1.0  0.13710987474514275  0.7668112354084613  0.5878234937323086  1.0000
  C   C40       1.0  0.3628900959893357  0.2331889995575693  0.0878234937323086  1.0000
  N   N1        1.0  0.1460738626626821  0.681168017043241  0.0173052298153422  1.0000
  N   N2        1.0  0.3539261080717965  0.3188322179227967  0.5173046681942779  1.0000
  N   N3        1.0  0.8539260788062748  0.1811678995602222  0.4826947701846578  1.0000
  N   N4        1.0  0.6460738333971605  0.8188323354058156  0.9826947701846577  1.0000
  N   N5        1.0  0.8539248818523506  0.3188322179227967  0.9826947701846577  1.0000
  N   N6        1.0  0.6460738333971605  0.681168017043241  0.4826953318057221  1.0000
  N   N7        1.0  0.1460738626626821  0.8188323354058156  0.5173052298153422  1.0000
  N   N8        1.0  0.3539261080717965  0.1811678995602222  0.0173052298153422  1.0000
  N   N9        1.0  0.24992637270106852  0.7613374987548696  0.9803494406254245  1.0000
  N   N10       1.0  0.2500724010794855  0.23866167970920318  0.48034944062542445  1.0000
  N   N11       1.0  0.7500735687678812  0.2613373812718507  0.5196505593745755  1.0000
  N   N12       1.0  0.7499275403894714  0.7386628536941799  0.0196505593745755  1.0000
  N   N13       1.0  0.7500723718139639  0.23866273621116818  0.0196505593745755  1.0000
  N   N14       1.0  0.7499263434355472  0.7613374987548696  0.5196505593745755  1.0000
  N   N15       1.0  0.249927569654993  0.7386628536941799  0.48034944062542445  1.0000
  N   N16       1.0  0.2500735980334028  0.2613373812718507  0.9803494406254245  1.0000
  N   N17       1.0  0.3023649239986312  0.8590047659242898  0.0281175585209112  1.0000
  N   N18       1.0  0.1976350467358401  0.1409965255437058  0.5281181201419756  1.0000
  N   N19       1.0  0.697636214424243  0.359004648441271  0.4718824414790888  1.0000
  N   N20       1.0  0.8023648947331097  0.6409966430267247  0.9718824414790888  1.0000
  N   N21       1.0  0.6976350174703188  0.1409965255437058  0.971883003100146  1.0000
  N   N22       1.0  0.8023648947331097  0.859003709422332  0.4718824414790888  1.0000
  N   N23       1.0  0.3023649239986312  0.6409955865247596  0.5281175585209184  1.0000
  N   N24       1.0  0.1976350467358401  0.359004648441271  0.0281175585209112  1.0000
  N   N25       1.0  0.2346269076774377  0.8447916450594377  0.0959394797142465  1.0000
  N   N26       1.0  0.2653742600109652  0.1552085899065929  0.5959394797142465  1.0000
  N   N27       1.0  0.7653730337915192  0.3447904710744609  0.4040605202857535  1.0000
  N   N28       1.0  0.7346268784119092  0.6552087073896118  0.9040605202857535  1.0000
  N   N29       1.0  0.7653742307454365  0.155207533404635  0.9040610819068178  1.0000
  N   N30       1.0  0.7346268784119092  0.8447905885574798  0.4040605202857535  1.0000
  N   N31       1.0  0.2346269076774377  0.6552087073896118  0.5959394797142465  1.0000
  N   N32       1.0  0.2653742600109652  0.3447915275764259  0.0959394797142465  1.0000
  N   N33       1.0  0.9585901236033861  0.5476715989119754  0.11866210630363129  1.0000
  N   N34       1.0  0.5414109855539664  0.45232757955209724  0.6186621063036384  1.0000
  N   N35       1.0  0.0414098178655706  0.0476714814289565  0.3813378936963687  1.0000
  N   N36       1.0  0.4585901528689078  0.9523276970351162  0.8813378936963685  1.0000
  N   N37       1.0  0.0414098178655706  0.45232757955209724  0.8813384553174258  1.0000
  N   N38       1.0  0.4585901528689078  0.5476715989119754  0.3813378936963687  1.0000
  N   N39       1.0  0.9585901236033861  0.9523266405331582  0.6186621063036384  1.0000
  N   N40       1.0  0.541409788600042  0.0476725379309144  0.11866154468257409  1.0000
  N   N41       1.0  0.0203314593092969  0.7198824748572292  0.2123955384822764  1.0000
  N   N42       1.0  0.4796673144712571  0.2801177601088085  0.7123961001033408  1.0000
  N   N43       1.0  0.9796684821596529  0.21988235737421039  0.2876044615177236  1.0000
  N   N44       1.0  0.5203326269976998  0.7801189340937853  0.787603338275602  1.0000
  N   N45       1.0  0.9796660882518111  0.2801177601088085  0.7876044615177236  1.0000
  N   N46       1.0  0.5203338239516173  0.7198803618533063  0.28760389989665913  1.0000
  N   N47       1.0  0.020332656263221307  0.7801189340937853  0.7123961001033408  1.0000
  N   N48       1.0  0.4796661175173327  0.21988130087225238  0.2123961001033408  1.0000
