data_image0
_chemical_formula_structural       Ag4H24C28N4O8
_chemical_formula_sum              "Ag4 H24 C28 N4 O8"
_cell_length_a       4.869476633807695
_cell_length_b       5.888432348350214
_cell_length_c       23.880158551039273
_cell_angle_alpha    90.00046599420956
_cell_angle_beta     90.00044297976662
_cell_angle_gamma    90.00024082793831

_space_group_name_H-M_alt    "P 1"
_space_group_IT_number       1

loop_
  _space_group_symop_operation_xyz
  'x, y, z'

loop_
  _atom_site_type_symbol
  _atom_site_label
  _atom_site_symmetry_multiplicity
  _atom_site_fract_x
  _atom_site_fract_y
  _atom_site_fract_z
  _atom_site_occupancy
  Ag  Ag1       1.0  0.6331043760419205  0.283389326023915  0.2673933201847163  1.0000
  Ag  Ag2       1.0  0.1330907005276458  0.7166354630250849  0.7326072525032217  1.0000
  Ag  Ag3       1.0  0.6330860571527095  0.7833847799476384  0.2326170179204183  1.0000
  Ag  Ag4       1.0  0.1330823228365858  0.21662472453811424  0.767387323546579  1.0000
  H   H1        1.0  0.15547821439394477  0.9644656269654702  0.20216162887724212  1.0000
  H   H2        1.0  0.6554588374863356  0.03552952316304919  0.7978449029146617  1.0000
  H   H3        1.0  0.1554772010886438  0.46451068500813614  0.2978479119072546  1.0000
  H   H4        1.0  0.6554906539628647  0.5355252233769078  0.7021535948123301  1.0000
  H   H5        1.0  0.2155320169563737  0.7375351875171461  0.1631488757283037  1.0000
  H   H6        1.0  0.7155082920376614  0.2624284919064832  0.8368566587658962  1.0000
  H   H7        1.0  0.21550937982683388  0.23760126408338061  0.3368631163403962  1.0000
  H   H8        1.0  0.715522712676737  0.7624439309014902  0.6631419992854859  1.0000
  H   H9        1.0  0.6719065846699692  0.8110329008976435  0.0991468507344564  1.0000
  H   H10       1.0  0.17187178005500667  0.1889187768132387  0.9008580768812563  1.0000
  H   H11       1.0  0.6718965395488609  0.31108861702870166  0.40086275409339583  1.0000
  H   H12       1.0  0.1719146805157408  0.6889598611485395  0.5991388234212991  1.0000
  H   H13       1.0  0.7911200522028635  0.0655459141012145  0.0194876824444066  1.0000
  H   H14       1.0  0.2911048834714265  0.9343665608832196  0.9805114779352663  1.0000
  H   H15       1.0  0.7911276804669782  0.5656315507105558  0.48051587723093553  1.0000
  H   H16       1.0  0.29116296733324276  0.43441338875973645  0.5194837018970944  1.0000
  H   H17       1.0  0.5567405026940122  0.4423522122251241  0.0098239139238316  1.0000
  H   H18       1.0  0.056717423673632104  0.557548828694898  0.9901616730887427  1.0000
  H   H19       1.0  0.5567458077678537  0.9424541323509527  0.4901702383823476  1.0000
  H   H20       1.0  0.0568004199996821  0.05758616743502638  0.5098337740001639  1.0000
  H   H21       1.0  0.20361454904185897  0.5547383392176426  0.0797099139062354  1.0000
  H   H22       1.0  0.7035792554980417  0.44520276700799116  0.9202804939244659  1.0000
  H   H23       1.0  0.20359780139529704  0.05480116047237967  0.4202902995740773  1.0000
  H   H24       1.0  0.7036535017963885  0.9452265581937168  0.5797147648009613  1.0000
  C   C1        1.0  0.3696015785434382  0.038191118794394185  0.1333516267391772  1.0000
  C   C2        1.0  0.8695745145888836  0.9617721666330962  0.8666495469959372  1.0000
  C   C3        1.0  0.3696103269514239  0.5382479923168261  0.3666539465906312  1.0000
  C   C4        1.0  0.869617104345224  0.46179680990871214  0.6333468084045535  1.0000
  C   C5        1.0  0.5681706488390718  0.9740568865600492  0.09388181958210849  1.0000
  C   C6        1.0  0.0681439419779792  0.025888784227930693  0.9061197294501399  1.0000
  C   C7        1.0  0.5681830464119741  0.47412673357415963  0.4061223599636605  1.0000
  C   C8        1.0  0.0682034180560933  0.5259242298664616  0.5938787703458317  1.0000
  C   C9        1.0  0.635793606598554  0.1179062355109366  0.0497052614518765  1.0000
  C   C10       1.0  0.1357778201810547  0.8820252615510854  0.9502919728721723  1.0000
  C   C11       1.0  0.6358143985692165  0.617993840605031  0.4502962528415182  1.0000
  C   C12       1.0  0.1358555983562368  0.38205653590461  0.549706006651796  1.0000
  C   C13       1.0  0.5057374173776097  0.32861638077076083  0.0442541907804923  1.0000
  C   C14       1.0  0.0057115987529669995  0.6713182052219365  0.9557391326613783  1.0000
  C   C15       1.0  0.5057436824510189  0.8286943599837995  0.45574544478689927  1.0000
  C   C16       1.0  0.005789528702742099  0.17135061421526385  0.5442583476528782  1.0000
  C   C17       1.0  0.31003454902138117  0.39267213890101965  0.0834188461822905  1.0000
  C   C18       1.0  0.8099993773256101  0.6072716893683604  0.9165741143115085  1.0000
  C   C19       1.0  0.3100336913281438  0.8927392729085921  0.41658147451256156  1.0000
  C   C20       1.0  0.8100638943581514  0.10729965887189506  0.5834206986792267  1.0000
  C   C21       1.0  0.23848564576380943  0.25175942214396224  0.1285575813384625  1.0000
  C   C22       1.0  0.7384569272915015  0.7481916241027305  0.8714384207073849  1.0000
  C   C23       1.0  0.23849426039826233  0.7518252827123959  0.371444427158572  1.0000
  C   C24       1.0  0.7385017038936111  0.24822596130680805  0.6285557624650551  1.0000
  C   C25       1.0  0.0225254174973983  0.337805357600402  0.1682104394634294  1.0000
  C   C26       1.0  0.5225042085446461  0.6621672872116234  0.8317837938493541  1.0000
  C   C27       1.0  0.022518708577230498  0.8378569259583485  0.3317954667250831  1.0000
  C   C28       1.0  0.5225293980236572  0.16218704595508623  0.6682071417000089  1.0000
  N   N1        1.0  0.30405503473495793  0.8855670055314345  0.17798799529102644  1.0000
  N   N2        1.0  0.8040433162458456  0.11441393683653438  0.8220162458852656  1.0000
  N   N3        1.0  0.30405540143654974  0.38561116811497687  0.322019853486573  1.0000
  N   N4        1.0  0.8040634842129675  0.6144275148532328  0.6779814563643498  1.0000
  O   O1        1.0  0.9561521137997672  0.20630971206286827  0.2096260626183408  1.0000
  O   O2        1.0  0.4561329312745811  0.7936843402763925  0.7903742280270266  1.0000
  O   O3        1.0  0.9561383447159242  0.7063535989799729  0.2903837503505784  1.0000
  O   O4        1.0  0.45615285998079  0.2936846081786584  0.7096228216230642  1.0000
  O   O5        1.0  0.9211326059897899  0.5315101206716264  0.1600158117837864  1.0000
  O   O6        1.0  0.42110179055953967  0.4684570027336291  0.839975115195756  1.0000
  O   O7        1.0  0.9211119354573682  0.03156802987401619  0.3399896423402566  1.0000
  O   O8        1.0  0.4211368340175951  0.9684857048594534  0.6600117535137571  1.0000
