data_image0
_chemical_formula_structural       V6Zn2H22C30N6O17
_chemical_formula_sum              "V6 Zn2 H22 C30 N6 O17"
_cell_length_a       9.701978813071868
_cell_length_b       10.164584483353213
_cell_length_c       11.11930985949234
_cell_angle_alpha    66.57165620512966
_cell_angle_beta     81.63757915999493
_cell_angle_gamma    74.41788485606418

_space_group_name_H-M_alt    "P 1"
_space_group_IT_number       1

loop_
  _space_group_symop_operation_xyz
  'x, y, z'

loop_
  _atom_site_type_symbol
  _atom_site_label
  _atom_site_symmetry_multiplicity
  _atom_site_fract_x
  _atom_site_fract_y
  _atom_site_fract_z
  _atom_site_occupancy
  V   V1        1.0  0.2767347582133441  0.6771086170216661  0.02846305658818692  1.0000
  V   V2        1.0  0.9953793605864546  0.6905824865217411  0.8752435888452724  1.0000
  V   V3        1.0  0.8688397482380879  0.3868168914702039  0.9743687324028157  1.0000
  V   V4        1.0  0.5449056599090057  0.37523309034612845  0.13996215598542253  1.0000
  V   V5        1.0  0.4138421376835667  0.9718091474260434  0.0028151477996871993  1.0000
  V   V6        1.0  0.7315591222767212  0.9996901511616938  0.8171267307776304  1.0000
  Zn  Zn1       1.0  0.7910830850543322  0.33651401043680806  0.7167500077459649  1.0000
  Zn  Zn2       1.0  0.49632255723374635  0.03356270220778161  0.2469950192481107  1.0000
  H   H1        1.0  0.4889365627459484  0.3252908959784193  0.8766677485912311  1.0000
  H   H2        1.0  0.23137741642407414  0.4383888639364244  0.8275495706464328  1.0000
  H   H3        1.0  0.1673787241426012  0.6039750769451048  0.5961178942965831  1.0000
  H   H4        1.0  0.36367620943015316  0.6391169178983847  0.42025706276455577  1.0000
  H   H5        1.0  0.5421159913896716  0.6557054915040014  0.28265496316060984  1.0000
  H   H6        1.0  0.7663066073363182  0.658292541532319  0.14342147242518868  1.0000
  H   H7        1.0  0.0011294875878036118  0.5228353553146476  0.24527833566082086  1.0000
  H   H8        1.0  0.18995392476635686  0.4128945661943177  0.3526654674926847  1.0000
  H   H9        1.0  0.3972036118424356  0.25343990503762365  0.4873341705213576  1.0000
  H   H10       1.0  0.35506532962298826  0.11696777240972979  0.7296901237718955  1.0000
  H   H11       1.0  0.10267323185579609  0.1526828085980725  0.8259850334477149  1.0000
  H   H12       1.0  0.17956500082543406  0.211285928507003  0.14979159779171175  1.0000
  H   H13       1.0  0.9301690105768046  0.2304815064132342  0.2535211689205923  1.0000
  H   H14       1.0  0.8987513888069929  0.0844093216170521  0.4957299944359974  1.0000
  H   H15       1.0  0.1138960178643701  0.9304029559106721  0.6218904486241783  1.0000
  H   H16       1.0  0.30794475067618526  0.8187222683514008  0.7220598699871913  1.0000
  H   H17       1.0  0.5484938736907097  0.6872988849097723  0.813609169807215  1.0000
  H   H18       1.0  0.7669293577022531  0.7069201728612526  0.6669863813595074  1.0000
  H   H19       1.0  0.9376295689313849  0.7281787240945621  0.5227167439093562  1.0000
  H   H20       1.0  0.12448683384916853  0.761288510124416  0.33842119707842494  1.0000
  H   H21       1.0  0.05004990546786555  0.9301166244027858  0.11043481820071574  1.0000
  H   H22       1.0  0.7907599999606633  0.0500144804272509  0.0737544525884601  1.0000
  C   C1        1.0  0.456837750806443  0.3967448726115493  0.7770530721123663  1.0000
  C   C2        1.0  0.31312152462195536  0.46120049287559095  0.7489056159377228  1.0000
  C   C3        1.0  0.2787788623179423  0.5508103512781304  0.6196975933958271  1.0000
  C   C4        1.0  0.38784294742530545  0.5715667194320134  0.5222793744565379  1.0000
  C   C5        1.0  0.5294503375863541  0.5030888967712388  0.5575969536847722  1.0000
  C   C6        1.0  0.653698249298735  0.5168979411475262  0.4623755935709397  1.0000
  C   C7        1.0  0.6443921464326722  0.5952305727473615  0.3271072118798983  1.0000
  C   C8        1.0  0.7705887288214585  0.5970906678632558  0.24900235326458645  1.0000
  C   C9        1.0  0.9022852424039696  0.5213775696698735  0.30566156680146145  1.0000
  C   C10       1.0  0.904330763558221  0.446643016508368  0.4420335428343447  1.0000
  C   C11       1.0  0.03550090491487623  0.3611826709570991  0.5164429450788788  1.0000
  C   C12       1.0  0.17311084275900873  0.35135407535985047  0.4569403258204687  1.0000
  C   C13       1.0  0.2896631090291066  0.2619261584158963  0.5335190396715319  1.0000
  C   C14       1.0  0.2660538789645344  0.1866096900367111  0.6672662672649353  1.0000
  C   C15       1.0  0.1262269273314871  0.20465273420791164  0.7210433680078979  1.0000
  C   C16       1.0  0.1603488616076589  0.1537747732821586  0.2546860996157463  1.0000
  C   C17       1.0  0.022255490077128598  0.1628672648334089  0.3127010292095918  1.0000
  C   C18       1.0  0.004729185418220499  0.0819064008480126  0.4462857709825343  1.0000
  C   C19       1.0  0.12558594713757995  0.9956024988305502  0.5179514881107607  1.0000
  C   C20       1.0  0.260856609579264  0.9936978686713968  0.4543751573343829  1.0000
  C   C21       1.0  0.3957356067697475  0.9099032155671197  0.5233854903924706  1.0000
  C   C22       1.0  0.4040966062070268  0.8274863221458872  0.658248981571745  1.0000
  C   C23       1.0  0.5389055023446476  0.7541369786759232  0.7092869406191653  1.0000
  C   C24       1.0  0.6618715160145001  0.7640343268199175  0.6270802977553204  1.0000
  C   C25       1.0  0.6461081265661548  0.8481638828450287  0.49326501529924366  1.0000
  C   C26       1.0  0.7656453129667824  0.8662519410785022  0.3930815193532098  1.0000
  C   C27       1.0  0.9085785291932212  0.7958591269776535  0.4218785162718957  1.0000
  C   C28       1.0  0.012429640144766631  0.8166929919642314  0.3195539017656941  1.0000
  C   C29       1.0  0.9720189972765783  0.9084955046167661  0.19245322037998136  1.0000
  C   C30       1.0  0.8273946611884354  0.9761983418542007  0.17142567035646264  1.0000
  N   N1        1.0  0.5616405214170825  0.4183295135784704  0.683659872654296  1.0000
  N   N2        1.0  0.7817295534752945  0.44673703726684294  0.5154817669872641  1.0000
  N   N3        1.0  0.013689996189029326  0.28957565758647513  0.6471688921716066  1.0000
  N   N4        1.0  0.2765731772750756  0.07132536515104702  0.3240972958655846  1.0000
  N   N5        1.0  0.5153427840362781  0.9178091092022813  0.4460412210765126  1.0000
  N   N6        1.0  0.7272409887056883  0.9544447242826877  0.2691619480548225  1.0000
  O   O1        1.0  0.5072052253368325  0.3646589693412423  0.2899584978447293  1.0000
  O   O2        1.0  0.7463325935168683  0.030142065943813603  0.6617276584010412  1.0000
  O   O3        1.0  0.43947204579716725  0.5498880301849524  0.02621455472282726  1.0000
  O   O4        1.0  0.8607523748209404  0.82846113820208  0.9072923958278309  1.0000
  O   O5        1.0  0.9666232631200912  0.5172200628768523  0.978353563574622  1.0000
  O   O6        1.0  0.30682777039776005  0.8488168666574935  0.0020300849404364606  1.0000
  O   O7        1.0  0.5537860103993423  0.9783413022983112  0.8769083798329689  1.0000
  O   O8        1.0  0.7976870883740262  0.4466105002065247  0.8270618362409294  1.0000
  O   O9        1.0  0.9790551725024131  0.22803039229840746  0.002168672395740108  1.0000
  O   O10       1.0  0.3124785255058882  0.13553194872031332  0.9715055706138147  1.0000
  O   O11       1.0  0.5058872854854782  0.23272923915781257  0.12139316471458271  1.0000
  O   O12       1.0  0.4832428842439215  0.9097717848781032  0.15129856437091863  1.0000
  O   O13       1.0  0.7319754007223339  0.3723683320210824  0.10335511242359273  1.0000
  O   O14       1.0  0.7699007071599056  0.1394141303672143  0.8410760457015414  1.0000
  O   O15       1.0  0.9914432758952358  0.7109906297482809  0.7239778298815905  1.0000
  O   O16       1.0  0.16981420888163973  0.7043755159146984  0.8983655106874763  1.0000
  O   O17       1.0  0.19277146390506059  0.6159862898925824  0.16857751386645253  1.0000
