data_image0
_chemical_formula_structural       Mn2V8H36C8N8O24
_chemical_formula_sum              "Mn2 V8 H36 C8 N8 O24"
_cell_length_a       5.787107644380111
_cell_length_b       8.325508023198342
_cell_length_c       17.503105557132034
_cell_angle_alpha    90.00043946420455
_cell_angle_beta     89.99998437459983
_cell_angle_gamma    100.68859198561151

_space_group_name_H-M_alt    "P 1"
_space_group_IT_number       1

loop_
  _space_group_symop_operation_xyz
  'x, y, z'

loop_
  _atom_site_type_symbol
  _atom_site_label
  _atom_site_symmetry_multiplicity
  _atom_site_fract_x
  _atom_site_fract_y
  _atom_site_fract_z
  _atom_site_occupancy
  Mn  Mn1       1.0  1.8069222563000003e-06  2.1872209146000007e-06  0.9999991111902133  1.0000
  Mn  Mn2       1.0  0.49999584754626614  0.5000009193190209  0.4999995896175164  1.0000
  V   V1        1.0  0.7800340493544053  0.8638619285926978  0.1767564613686545  1.0000
  V   V2        1.0  0.719967446813186  0.6361464304764582  0.6767518910843007  1.0000
  V   V3        1.0  0.21997006559408314  0.13614110061379853  0.823243289195247  1.0000
  V   V4        1.0  0.2800225215201024  0.3638554126850125  0.323245574169256  1.0000
  V   V5        1.0  0.7820700160894347  0.2923816397577497  0.8873784562999487  1.0000
  V   V6        1.0  0.7179150984813774  0.20761799010781354  0.3873824624888229  1.0000
  V   V7        1.0  0.21793376629886305  0.7076201671261729  0.11262186558892749  1.0000
  V   V8        1.0  0.28207281054443456  0.7923826353114407  0.6126207160344348  1.0000
  H   H1        1.0  0.6243350773124517  0.759224899899742  0.0167195341961772  1.0000
  H   H2        1.0  0.8756665900601917  0.7407771300077285  0.5167221888259093  1.0000
  H   H3        1.0  0.3756704318301089  0.24077690243703395  0.9832796450382588  1.0000
  H   H4        1.0  0.12433480044948911  0.25922223675921435  0.48327813305861866  1.0000
  H   H5        1.0  0.810862797988669  0.6787684847365724  0.9642700849556576  1.0000
  H   H6        1.0  0.6891390992778028  0.821236088251581  0.4642733643892284  1.0000
  H   H7        1.0  0.1891399227637578  0.3212357713301587  0.0357290942833544  1.0000
  H   H8        1.0  0.31086262379405133  0.17876450084742151  0.5357275288246939  1.0000
  H   H9        1.0  0.7096796113074433  0.8108076926406937  0.851987397864896  1.0000
  H   H10       1.0  0.790317443349629  0.6891913577753215  0.351989617405053  1.0000
  H   H11       1.0  0.29031759661603473  0.18919535471643914  0.1480123526993111  1.0000
  H   H12       1.0  0.20968155528142057  0.3108055688746489  0.6480107044751264  1.0000
  H   H13       1.0  0.5229336111088898  0.9105653480856971  0.9078959508618352  1.0000
  H   H14       1.0  0.9770633058825807  0.589433408471791  0.4078989354491753  1.0000
  H   H15       1.0  0.4770622665708402  0.08943280996690113  0.0921043710207101  1.0000
  H   H16       1.0  0.022935692750458297  0.4105635181876578  0.5921025290853663  1.0000
  H   H17       1.0  0.28509405248838243  0.6297247035870087  0.9431600478134641  1.0000
  H   H18       1.0  0.21490962191298016  0.8702750362994677  0.4431612185166074  1.0000
  H   H19       1.0  0.7149080670939866  0.3702709916603196  0.056840274064349196  1.0000
  H   H20       1.0  0.7850900418394459  0.12972433500038963  0.556838532040814  1.0000
  H   H21       1.0  0.44983120941387966  0.5429319844796084  0.8729140635977615  1.0000
  H   H22       1.0  0.050170493359026076  0.9570665933906284  0.3729161343314686  1.0000
  H   H23       1.0  0.5501715752878764  0.45706615540812123  0.1270845443029316  1.0000
  H   H24       1.0  0.9498288378322145  0.0429315555819088  0.6270836162237358  1.0000
  H   H25       1.0  0.17518674764579603  0.8066943629863772  0.8475710518301154  1.0000
  H   H26       1.0  0.3248134725849354  0.693305020869488  0.3475715697096504  1.0000
  H   H27       1.0  0.8248170347434963  0.1933074439022846  0.15242984138594548  1.0000
  H   H28       1.0  0.6751861911674907  0.30669435043036936  0.6524281808477708  1.0000
  H   H29       1.0  0.07625714490497161  0.6091380456955874  0.8252935064434579  1.0000
  H   H30       1.0  0.42374127091340347  0.890860972749735  0.32529530734654327  1.0000
  H   H31       1.0  0.923744578163898  0.39086254338918275  0.1747056727889174  1.0000
  H   H32       1.0  0.5762580602788319  0.1091371762275486  0.6747050145358457  1.0000
  H   H33       1.0  0.3111103659715154  0.7159664903127306  0.7779992276363712  1.0000
  H   H34       1.0  0.18888994429730835  0.7840329605075596  0.278000086330536  1.0000
  H   H35       1.0  0.6888951431740367  0.2840353120382773  0.2220016655796186  1.0000
  H   H36       1.0  0.8111114462123651  0.21596640625938326  0.7220002355539918  1.0000
  C   C1        1.0  0.5923765331355638  0.7973553480765646  0.9018579564101045  1.0000
  C   C2        1.0  0.9076206953686918  0.7026445305351744  0.4018607872257647  1.0000
  C   C3        1.0  0.4076220689819792  0.20264647241084793  0.0981412228246299  1.0000
  C   C4        1.0  0.092378635824538  0.2973536184468557  0.5981401059838163  1.0000
  C   C5        1.0  0.3889457141339392  0.654142901048367  0.8906768305399027  1.0000
  C   C6        1.0  0.11105983663101429  0.845857185048537  0.3906779203334096  1.0000
  C   C7        1.0  0.6110608566454941  0.3458564521103398  0.1093240626715826  1.0000
  C   C8        1.0  0.8889412213174808  0.1541409593910927  0.6093224015489084  1.0000
  N   N1        1.0  0.7333877150154536  0.7802397343972202  0.9701932215820079  1.0000
  N   N2        1.0  0.7666097517030365  0.7197612790502959  0.4701966969059868  1.0000
  N   N3        1.0  0.2666122812951741  0.2197608592157252  0.029804814996069198  1.0000
  N   N4        1.0  0.23338957949019348  0.280236869931734  0.529804196303587  1.0000
  N   N5        1.0  0.22723401648519834  0.6972570812015206  0.8308029690837059  1.0000
  N   N6        1.0  0.27276269178407386  0.8027420332829537  0.3308056034214529  1.0000
  N   N7        1.0  0.7727680391458519  0.3027447302153162  0.1691967814780639  1.0000
  N   N8        1.0  0.727236639410158  0.1972561157038157  0.6691958611152982  1.0000
  O   O1        1.0  0.8605548644822746  0.013051541233629402  0.11054837266290457  1.0000
  O   O2        1.0  0.6394475503059311  0.4869471129087586  0.6105445145594927  1.0000
  O   O3        1.0  0.13945097722445607  0.9869514834446989  0.8894525205552952  1.0000
  O   O4        1.0  0.3605497215638849  0.5130498182551477  0.3894529506848413  1.0000
  O   O5        1.0  0.793796398593031  0.1577748159660572  0.9586118553553148  1.0000
  O   O6        1.0  0.7061986596976909  0.3422235249252381  0.4586094966309844  1.0000
  O   O7        1.0  0.20620359772157568  0.8422257776658668  0.041388466531501  1.0000
  O   O8        1.0  0.29379104002872936  0.6577709797536427  0.5413902539179603  1.0000
  O   O9        1.0  0.7228292478494466  0.9485251197104815  0.2572257661878439  1.0000
  O   O10       1.0  0.7771653531974393  0.5514772553621797  0.7572231685315244  1.0000
  O   O11       1.0  0.27717074846415807  0.051475473916696005  0.7427739843717873  1.0000
  O   O12       1.0  0.2228370989391522  0.4485196621792582  0.24277315405822006  1.0000
  O   O13       1.0  0.02421931198351505  0.7565319246080762  0.1886473277449596  1.0000
  O   O14       1.0  0.4757881950005541  0.7434745850131106  0.6886448425328664  1.0000
  O   O15       1.0  0.9757813494524683  0.24347111367373492  0.811352422819098  1.0000
  O   O16       1.0  0.524202233801546  0.2565162481603807  0.3113566219909173  1.0000
  O   O17       1.0  0.5217983058708738  0.7291220901072036  0.1429587951483668  1.0000
  O   O18       1.0  0.9782137655913274  0.7708869028528936  0.6429615514998943  1.0000
  O   O19       1.0  0.4782095951483213  0.27088215233705887  0.8570392414360555  1.0000
  O   O20       1.0  0.0217789271867588  0.2291186027765946  0.3570387703961515  1.0000
  O   O21       1.0  0.8745207005433855  0.47705519529339574  0.9208362801360721  1.0000
  O   O22       1.0  0.6254665899838726  0.022946208021807  0.42084419165663417  1.0000
  O   O23       1.0  0.12548202021202573  0.5229490607875605  0.0791646130844939  1.0000
  O   O24       1.0  0.3745255016311262  0.9770507368214895  0.5791612721684913  1.0000
