data_image0
_chemical_formula_structural       Zn4H48C36N8O16
_chemical_formula_sum              "Zn4 H48 C36 N8 O16"
_cell_length_a       7.4222984206394615
_cell_length_b       7.945903866043906
_cell_length_c       18.637420873332808
_cell_angle_alpha    88.5281958060962
_cell_angle_beta     86.59255986345342
_cell_angle_gamma    83.9405602447628

_space_group_name_H-M_alt    "P 1"
_space_group_IT_number       1

loop_
  _space_group_symop_operation_xyz
  'x, y, z'

loop_
  _atom_site_type_symbol
  _atom_site_label
  _atom_site_symmetry_multiplicity
  _atom_site_fract_x
  _atom_site_fract_y
  _atom_site_fract_z
  _atom_site_occupancy
  Zn  Zn1       1.0  0.807745724752465  0.1894382202188822  0.1646100804698349  1.0000
  Zn  Zn2       1.0  0.1922531810115231  0.8105606064382515  0.8353893284442364  1.0000
  Zn  Zn3       1.0  0.2892950712780332  0.019214106900463396  0.30371944461712985  1.0000
  Zn  Zn4       1.0  0.7107004528150468  0.9807910607048099  0.6962810459034046  1.0000
  H   H1        1.0  0.3858001843726626  0.7810726058105005  0.1404381247730058  1.0000
  H   H2        1.0  0.6142018389545996  0.21892241914903107  0.859561788471936  1.0000
  H   H3        1.0  0.4057381259295311  0.9100467452748616  0.0608033805873305  1.0000
  H   H4        1.0  0.5942667353550418  0.0899470070793029  0.9391964771986919  1.0000
  H   H5        1.0  0.2324640613616963  0.9662702056798338  0.1304039307046736  1.0000
  H   H6        1.0  0.7675407921737117  0.0337235415951795  0.8695948542177944  1.0000
  H   H7        1.0  0.43532607666495676  0.6686408926161321  0.2696025819886572  1.0000
  H   H8        1.0  0.564668617848426  0.33135919480364623  0.7303936973626222  1.0000
  H   H9        1.0  0.5821049188083265  0.559365429196383  0.3330190134978537  1.0000
  H   H10       1.0  0.4178857294422045  0.44063467094716907  0.6669779029920803  1.0000
  H   H11       1.0  0.38249413817759853  0.4737526075127789  0.3090044110450734  1.0000
  H   H12       1.0  0.6174962304669762  0.5262500217230084  0.690991945655071  1.0000
  H   H13       1.0  0.7973638943245687  0.7339559304022174  0.2868910840414216  1.0000
  H   H14       1.0  0.20263785714589486  0.2660416287287077  0.7131093422772921  1.0000
  H   H15       1.0  0.9446086828700188  0.6361313744742176  0.21849686841927962  1.0000
  H   H16       1.0  0.05539428465514361  0.3638674496174445  0.7815040490832459  1.0000
  H   H17       1.0  0.7723592080214131  0.8020605650073023  0.19587889463529962  1.0000
  H   H18       1.0  0.22764133126892713  0.1979357317024437  0.8041215769313794  1.0000
  H   H19       1.0  0.858682695709362  0.4658177034753521  0.35980282419249215  1.0000
  H   H20       1.0  0.1413263234782249  0.5342001001843714  0.6402003988701139  1.0000
  H   H21       1.0  0.0712592048751475  0.5482302869617468  0.363904289974748  1.0000
  H   H22       1.0  0.9287546877694338  0.4517799090787804  0.6360983660232193  1.0000
  H   H23       1.0  0.9620301418030904  0.46061766393504666  0.44336839262484773  1.0000
  H   H24       1.0  0.03798091288417279  0.5393938047108549  0.5566343188320388  1.0000
  H   H25       1.0  0.3600683174312707  0.4438828121536956  0.0395012866812863  1.0000
  H   H26       1.0  0.6399366894681506  0.5561096794637166  0.9604996556473042  1.0000
  H   H27       1.0  0.28202628854434403  0.3715738063464117  0.916679429346452  1.0000
  H   H28       1.0  0.717976954712192  0.6284224861134434  0.08332151151408601  1.0000
  H   H29       1.0  0.0046113152589058  0.21439567374775237  0.903715352903177  1.0000
  H   H30       1.0  0.9953901527310121  0.7856044119358285  0.096283977193977  1.0000
  H   H31       1.0  0.8193740622156226  0.14772628806791488  0.014725947562887105  1.0000
  H   H32       1.0  0.1806247018080995  0.8522738018655502  0.9852729132404078  1.0000
  H   H33       1.0  0.8237588577131731  0.8867413770599343  0.4715632758776849  1.0000
  H   H34       1.0  0.17623775380710066  0.1132536538598004  0.5284351623477619  1.0000
  H   H35       1.0  0.6625007529293682  0.6786790254445734  0.5460849185035244  1.0000
  H   H36       1.0  0.33749424056288285  0.3213185455808514  0.45391460279643076  1.0000
  H   H37       1.0  0.3457301011903056  0.6261043014335713  0.5172916616809217  1.0000
  H   H38       1.0  0.6542674506532932  0.37389452607872187  0.4827072443703385  1.0000
  H   H39       1.0  0.20878187198699288  0.7818589420441879  0.41214962904548  1.0000
  H   H40       1.0  0.7912156798566057  0.21813988546810487  0.5878492770057733  1.0000
  H   H41       1.0  0.11600479479679389  0.32511504242161476  0.2034158717014094  1.0000
  H   H42       1.0  0.8839927686705452  0.6748837927094016  0.7965846436451827  1.0000
  H   H43       1.0  0.2954068320215554  0.4215605418767722  0.16362863047285  1.0000
  H   H44       1.0  0.7045920814915902  0.5784382898595126  0.836371851304783  1.0000
  H   H45       1.0  0.6312123243706791  0.11641228143327001  0.3167960581820068  1.0000
  H   H46       1.0  0.368787525591216  0.8835903443559944  0.6832043549896483  1.0000
  H   H47       1.0  0.8081073905242988  0.09143367529616601  0.375517149206253  1.0000
  H   H48       1.0  0.1918900428265146  0.9085664307299056  0.6244844273248873  1.0000
  C   C1        1.0  0.5005639981151545  0.0120576571831705  0.1554177919119724  1.0000
  C   C2        1.0  0.4994353289950695  0.9879373771054035  0.844582724902665  1.0000
  C   C3        1.0  0.37286750238567373  0.9118235977029414  0.11880889476972098  1.0000
  C   C4        1.0  0.6271345209415882  0.08817142725659012  0.8811910184752278  1.0000
  C   C5        1.0  0.5936109990864651  0.4459174089680573  0.2280516616346873  1.0000
  C   C6        1.0  0.4063811448247279  0.5540814270440108  0.7719463058288483  1.0000
  C   C7        1.0  0.49488705204920086  0.5451238957630764  0.2886808013559019  1.0000
  C   C8        1.0  0.5051019742987178  0.4548787419465867  0.7113166617767632  1.0000
  C   C9        1.0  0.002463246507765873  0.8830609381575486  0.2464029684625473  1.0000
  C   C10       1.0  0.9975355291396963  0.1169391593946401  0.7535975016360794  1.0000
  C   C11       1.0  0.8703254236051235  0.7569015840840692  0.23528930164741982  1.0000
  C   C12       1.0  0.12967618999964256  0.24309724086275253  0.7647111129922948  1.0000
  C   C13       1.0  0.0765743101721483  0.2736146755544269  0.3674811594559841  1.0000
  C   C14       1.0  0.9234278495317766  0.7263917561305462  0.6325223701314115  1.0000
  C   C15       1.0  0.9895356472817055  0.4492307727296207  0.3851550923186267  1.0000
  C   C16       1.0  0.010473919494053506  0.5507819651269088  0.61484764102822  1.0000
  C   C17       1.0  0.12989578531002616  0.337237887563532  0.0922123777995623  1.0000
  C   C18       1.0  0.8701048879714219  0.6627571407907382  0.9077875690143388  1.0000
  C   C19       1.0  0.24139489682666238  0.3785409070180633  0.031161001120878502  1.0000
  C   C20       1.0  0.7586084765464136  0.6214541145467363  0.9688388785551042  1.0000
  C   C21       1.0  0.19761735036642136  0.3365065338954238  0.963517015630302  1.0000
  C   C22       1.0  0.802387239061346  0.6634897526301275  0.03648335522949961  1.0000
  C   C23       1.0  0.043453412053217684  0.25096766567966716  0.955880716377706  1.0000
  C   C24       1.0  0.9565483355426634  0.7490298909116718  0.0441191735092303  1.0000
  C   C25       1.0  0.9400647706426354  0.2140415861034768  0.016932695741196793  1.0000
  C   C26       1.0  0.05993697695324577  0.7859559704878691  0.9830671941457397  1.0000
  C   C27       1.0  0.6021679527437841  0.9431430923140667  0.4006299243862088  1.0000
  C   C28       1.0  0.39783095302020394  0.0568557343430669  0.5993694845278696  1.0000
  C   C29       1.0  0.6889291584640133  0.8574933794945637  0.45921251563815696  1.0000
  C   C30       1.0  0.311071093471206  0.14250544122826617  0.540786323275178  1.0000
  C   C31       1.0  0.5983546862612455  0.7433496120384574  0.5004529593047451  1.0000
  C   C32       1.0  0.40164314131373396  0.2566466838420283  0.49954597010452056  1.0000
  C   C33       1.0  0.42180113036241806  0.7126326479359263  0.48470662747832444  1.0000
  C   C34       1.0  0.57819790164352  0.2873649052865801  0.5152911838194143  1.0000
  C   C35       1.0  0.34536721628970907  0.7987429481073464  0.427056355025222  1.0000
  C   C36       1.0  0.6546318234653938  0.2012546101943116  0.5729425291360783  1.0000
  N   N1        1.0  0.9798182615523456  0.25652328036862565  0.0838615903732887  1.0000
  N   N2        1.0  0.020182277737994494  0.7434730163411203  0.9161388811933833  1.0000
  N   N3        1.0  0.16929439229009793  0.3820023874724683  0.158647464514857  1.0000
  N   N4        1.0  0.8307033051683489  0.6179951793030655  0.8413525260789568  1.0000
  N   N5        1.0  0.4324442506972019  0.9102855826255476  0.3850234925112588  1.0000
  N   N6        1.0  0.5675543793354052  0.08971577566340018  0.6149758930448073  1.0000
  N   N7        1.0  0.686422390096041  0.05746394816291199  0.3604745660862321  1.0000
  N   N8        1.0  0.31357786958833594  0.9425348776390691  0.6395253456906644  1.0000
  O   O1        1.0  0.6357908828517154  0.05968698884883139  0.1172266706856107  1.0000
  O   O2        1.0  0.36421086861874125  0.9403105702820865  0.882773755633103  1.0000
  O   O3        1.0  0.47752630789146616  0.04394370170027881  0.2222598218439344  1.0000
  O   O4        1.0  0.5224727357382121  0.9560538591409511  0.7777395987491431  1.0000
  O   O5        1.0  0.7316150034688603  0.34061286193640683  0.24488610937397226  1.0000
  O   O6        1.0  0.26837728605718786  0.659384713338902  0.7551129426321239  1.0000
  O   O7        1.0  0.5392390156124165  0.4612014512160414  0.1652274579749573  1.0000
  O   O8        1.0  0.4607556866501312  0.538798641282888  0.8347698942398765  1.0000
  O   O9        1.0  0.13340207184940311  0.8359706371410309  0.2864401388829947  1.0000
  O   O10       1.0  0.8665950857700294  0.16403200051684763  0.7135614142901403  1.0000
  O   O11       1.0  0.9887228657837424  0.029790721806257598  0.2168371232797384  1.0000
  O   O12       1.0  0.011276043854820696  0.970208107390448  0.7831628220661172  1.0000
  O   O13       1.0  0.20187772940131052  0.2622263650109104  0.3154111517123823  1.0000
  O   O14       1.0  0.7981206365236628  0.7377775325285683  0.6845898197810101  1.0000
  O   O15       1.0  0.026796440163984397  0.14608867542245454  0.4012462016620901  1.0000
  O   O16       1.0  0.9732008538321182  0.8539253689608587  0.5987589678534988  1.0000
