data_image0
_chemical_formula_structural       Li4H32C44N4O16
_chemical_formula_sum              "Li4 H32 C44 N4 O16"
_cell_length_a       4.955976638001262
_cell_length_b       14.177042297516422
_cell_length_c       14.448431845396842
_cell_angle_alpha    112.51374963379993
_cell_angle_beta     89.99997727916175
_cell_angle_gamma    90.00008138340444

_space_group_name_H-M_alt    "P 1"
_space_group_IT_number       1

loop_
  _space_group_symop_operation_xyz
  'x, y, z'

loop_
  _atom_site_type_symbol
  _atom_site_label
  _atom_site_symmetry_multiplicity
  _atom_site_fract_x
  _atom_site_fract_y
  _atom_site_fract_z
  _atom_site_occupancy
  Li  Li1       1.0  0.6683209167284689  0.3007238289396383  0.06325493971410617  1.0000
  Li  Li2       1.0  0.16831986173984606  0.1992756650671907  0.9367477594908209  1.0000
  Li  Li3       1.0  0.33167919566076887  0.6992762961834063  0.9367460396373489  1.0000
  Li  Li4       1.0  0.8316782328818277  0.8007236924640468  0.06325361990820262  1.0000
  H   H1        1.0  0.1438266953361662  0.21585872383112564  0.150494275698783  1.0000
  H   H2        1.0  0.6438287836195402  0.2841407776763418  0.8495049690918253  1.0000
  H   H3        1.0  0.8561734170525102  0.7841406458317198  0.8495050319373192  1.0000
  H   H4        1.0  0.35617334653628774  0.7158593555346189  0.1504946290843777  1.0000
  H   H5        1.0  0.9270869403366151  0.18805156328416933  0.23487780547215922  1.0000
  H   H6        1.0  0.42708856183318744  0.3119488488539589  0.7651217469288838  1.0000
  H   H7        1.0  0.07291317205385893  0.811948573969957  0.7651211021163178  1.0000
  H   H8        1.0  0.5729135683226405  0.6880512843570019  0.23487785124731891  1.0000
  H   H9        1.0  0.8328699383612774  0.469298844127259  0.2684663891233612  1.0000
  H   H10       1.0  0.3328744899343619  0.030702282636937608  0.7315334481399063  1.0000
  H   H11       1.0  0.16712613849725244  0.5307012890821313  0.7315332090526567  1.0000
  H   H12       1.0  0.6671276402228516  0.9692986141216126  0.26846644057632574  1.0000
  H   H13       1.0  0.5093588502354436  0.10932823581451605  0.18700686910509753  1.0000
  H   H14       1.0  0.009358718526293303  0.39067195941739646  0.8129926581218854  1.0000
  H   H15       1.0  0.4906412621546111  0.8906718973959188  0.8129927290710341  1.0000
  H   H16       1.0  0.9906413938637686  0.6093281737930454  0.18700694005424617  1.0000
  H   H17       1.0  0.2777131788973081  0.07856873542014141  0.2649432281235562  1.0000
  H   H18       1.0  0.7777139416406699  0.42143083560768  0.7350560247355561  1.0000
  H   H19       1.0  0.722286933492754  0.9214313977902935  0.7350563700525756  1.0000
  H   H20       1.0  0.22228818851515092  0.5785692976032807  0.2649435734406396  1.0000
  H   H21       1.0  0.9898275242669357  0.3755994636680315  0.5889288203483077  1.0000
  H   H22       1.0  0.48982677762406024  0.1243994458650164  0.4110715359289259  1.0000
  H   H23       1.0  0.010168552591594004  0.6244006695413518  0.4110707778277103  1.0000
  H   H24       1.0  0.5101713169998165  0.8756006833012011  0.5889287528348106  1.0000
  H   H25       1.0  0.19109457403222768  0.03640254311261511  0.042410848564252  1.0000
  H   H26       1.0  0.6910932310879758  0.4635977464854478  0.9575886896148377  1.0000
  H   H27       1.0  0.8089095738847975  0.9635952954123894  0.957588568579574  1.0000
  H   H28       1.0  0.3089068813048499  0.5364039138201804  0.042411489641359816  1.0000
  H   H29       1.0  0.9642538737106465  0.0008645231922628  0.11678468988634451  1.0000
  H   H30       1.0  0.4642541015332926  0.49913590824446896  0.8832148647544926  1.0000
  H   H31       1.0  0.035746238677617705  0.9991348424268834  0.8832153083374195  1.0000
  H   H32       1.0  0.5357460108581478  0.5008649885135625  0.11678502396167537  1.0000
  C   C1        1.0  0.1378762258245345  0.1964394191822763  0.21694447045143053  1.0000
  C   C2        1.0  0.6378784706414039  0.3035608427830354  0.7830550645206102  1.0000
  C   C3        1.0  0.8621259043299008  0.8035599504810947  0.7830548371847357  1.0000
  C   C4        1.0  0.36212365951539743  0.6964400499318231  0.21694551478327634  1.0000
  C   C5        1.0  0.44911496480653323  0.45641872573347814  0.4600780216945353  1.0000
  C   C6        1.0  0.9491144173422656  0.0435809262071771  0.5399226226692306  1.0000
  C   C7        1.0  0.5508851475831168  0.543581403433265  0.5399222670692652  1.0000
  C   C8        1.0  0.050885695045586515  0.9564184353682776  0.460078066142195  1.0000
  C   C9        1.0  0.45719799808053113  0.33794504623842414  0.2805357477103243  1.0000
  C   C10       1.0  0.9571936878569931  0.16205384635077993  0.7194646066004112  1.0000
  C   C11       1.0  0.5428021143091187  0.6620550829283118  0.7194645410534689  1.0000
  C   C12       1.0  0.04280440676550511  0.8379455192678409  0.28053539162328894  1.0000
  C   C13       1.0  0.555947594986556  0.43040776033470246  0.3626147475394177  1.0000
  C   C14       1.0  0.05594636134415513  0.06959321859206821  0.6373857636228593  1.0000
  C   C15       1.0  0.4440525174026818  0.5695923647883419  0.6373862318120375  1.0000
  C   C16       1.0  0.9440537510472852  0.930407678165956  0.3626141250933087  1.0000
  C   C17       1.0  0.24390603659816187  0.3971439332580786  0.4795670942235262  1.0000
  C   C18       1.0  0.7438996998030378  0.1028548485785166  0.5204332472333064  1.0000
  C   C19       1.0  0.7560960935558686  0.6028554323615866  0.5204329040003018  1.0000
  C   C20       1.0  0.2560963770536945  0.8971445170395784  0.47956675099033674  1.0000
  C   C21       1.0  0.7555592414149005  0.4903289786270833  0.3445987890276285  1.0000
  C   C22       1.0  0.2555617784220274  0.009671340401645502  0.6554014436241361  1.0000
  C   C23       1.0  0.2444388532089833  0.509671150539134  0.6554014997361008  1.0000
  C   C24       1.0  0.7444383339676223  0.9903287887650978  0.34459884513965733  1.0000
  C   C25       1.0  0.13071933318323664  0.30813093148017867  0.3965776470762209  1.0000
  C   C26       1.0  0.6307213329333763  0.19186856322125578  0.603421596924484  1.0000
  C   C27       1.0  0.8692787614406473  0.6918691976860388  0.6034226416875158  1.0000
  C   C28       1.0  0.3692787794566784  0.808131569989179  0.3965780012516547  1.0000
  C   C29       1.0  0.2946140636058631  0.09817928161188409  0.19850558758218986  1.0000
  C   C30       1.0  0.7946146690544255  0.4018210576955923  0.8014946474231267  1.0000
  C   C31       1.0  0.705386048783787  0.9018208475548519  0.8014947011816105  1.0000
  C   C32       1.0  0.2053854433356292  0.5981790755148424  0.19850495075301208  1.0000
  C   C33       1.0  0.14536844261731835  0.42347276803096184  0.5761968791191805  1.0000
  C   C34       1.0  0.6453681646617043  0.0765259626414547  0.4238034563995541  1.0000
  C   C35       1.0  0.8546276342407921  0.5765273611347298  0.423803409644492  1.0000
  C   C36       1.0  0.3546319477265599  0.9234734029776918  0.5761965418242171  1.0000
  C   C37       1.0  0.32356063998592793  0.9106942132548357  0.07321956370410024  1.0000
  C   C38       1.0  0.8235598274331939  0.589305771177088  0.9267800953522  1.0000
  C   C39       1.0  0.6764435079362202  0.08930667541685013  0.9267817061875121  1.0000
  C   C40       1.0  0.17644230272222222  0.41069435799017384  0.07322019341165738  1.0000
  C   C41       1.0  0.17951856663812296  0.0129764817433795  0.1067550332727834  1.0000
  C   C42       1.0  0.6795173940766334  0.4870238018438755  0.8932445042086954  1.0000
  C   C43       1.0  0.8204835635159073  0.987022883876293  0.8932449649510447  1.0000
  C   C44       1.0  0.3204827183138407  0.5129763354102508  0.10675440337978158  1.0000
  N   N1        1.0  0.2451367489048978  0.28471832220418497  0.301279004167057  1.0000
  N   N2        1.0  0.7451346972648241  0.2152812278638692  0.6987209373164376  1.0000
  N   N3        1.0  0.7548633634833666  0.7152810434149613  0.698720994056707  1.0000
  N   N4        1.0  0.25486541512620436  0.7847196648504706  0.3012796419873851  1.0000
  O   O1        1.0  0.5555055510402624  0.3071899108399662  0.1954240063910433  1.0000
  O   O2        1.0  0.05550260611574491  0.1928095367179523  0.8045766142521416  1.0000
  O   O3        1.0  0.4444925435858239  0.6928109899612309  0.8045751917374061  1.0000
  O   O4        1.0  0.9444954885063414  0.8071898248569765  0.1954240745592272  1.0000
  O   O5        1.0  0.18645332612077686  0.8315476662923516  0.020009078148923592  1.0000
  O   O6        1.0  0.6864547913878385  0.6684514833994512  0.9799902821047651  1.0000
  O   O7        1.0  0.813548804025807  0.16844937633498347  0.9799955731560814  1.0000
  O   O8        1.0  0.31354733876839463  0.33154865385520077  0.02000862548377569  1.0000
  O   O9        1.0  0.9433057798073038  0.25651507842492555  0.4082142608729171  1.0000
  O   O10       1.0  0.4433032892955  0.2434861056813773  0.5917855830454429  1.0000
  O   O11       1.0  0.05669029705399711  0.743486581879651  0.5917859183831594  1.0000
  O   O12       1.0  0.5566968230959476  0.7565147910766541  0.4082143056707253  1.0000
  O   O13       1.0  0.5690964841291476  0.9080460918216174  0.0960321214384193  1.0000
  O   O14       1.0  0.06909704835205592  0.591953760479875  0.9039675222828691  1.0000
  O   O15       1.0  0.43090766379603457  0.09195557657244541  0.9039666766425825  1.0000
  O   O16       1.0  0.9309030640380059  0.4080463727305599  0.09603207589326959  1.0000
