data_image0
_chemical_formula_structural       Cu3H18C14N6O14
_chemical_formula_sum              "Cu3 H18 C14 N6 O14"
_cell_length_a       7.256964813790385
_cell_length_b       8.59907558767617
_cell_length_c       9.390855991816593
_cell_angle_alpha    72.9761833593833
_cell_angle_beta     76.80410769022298
_cell_angle_gamma    82.45383725381924

_space_group_name_H-M_alt    "P 1"
_space_group_IT_number       1

loop_
  _space_group_symop_operation_xyz
  'x, y, z'

loop_
  _atom_site_type_symbol
  _atom_site_label
  _atom_site_symmetry_multiplicity
  _atom_site_fract_x
  _atom_site_fract_y
  _atom_site_fract_z
  _atom_site_occupancy
  Cu  Cu1       1.0  0.4988671461501327  0.9986294527485384  0.9986307318595137  1.0000
  Cu  Cu2       1.0  0.6383631093995846  0.7131454641301997  0.676677979357521  1.0000
  Cu  Cu3       1.0  0.36053457525117244  0.2820259916361395  0.32786321053684725  1.0000
  H   H1        1.0  0.030865790885336298  0.5827798102869222  0.7232214525016617  1.0000
  H   H2        1.0  0.9756078503390243  0.4153180519769392  0.28419009573400433  1.0000
  H   H3        1.0  0.7011859742780829  0.5671677677414878  0.4195514924371224  1.0000
  H   H4        1.0  0.3040678554627689  0.43227140919515256  0.5882004780284049  1.0000
  H   H5        1.0  0.05765006231757041  0.0987444430867725  0.6336139442634945  1.0000
  H   H6        1.0  0.9430662981444017  0.9017166868778331  0.36197683975991174  1.0000
  H   H7        1.0  0.8049302203091032  0.8228397301606092  0.8317683204761153  1.0000
  H   H8        1.0  0.1944221551687306  0.18012953974368875  0.16607925766614076  1.0000
  H   H9        1.0  0.8299393087817039  0.9378530174677664  0.6592849153615533  1.0000
  H   H10       1.0  0.1686498570793944  0.065912113784222  0.3386913383735433  1.0000
  H   H11       1.0  0.5681026996666176  0.3995435357536152  0.8276748515821596  1.0000
  H   H12       1.0  0.40698181956838664  0.6066693313800327  0.15414011223892748  1.0000
  H   H13       1.0  0.1700506361294316  0.7647635053654155  0.15376933929410094  1.0000
  H   H14       1.0  0.8178991111359722  0.2298708857856155  0.8502662775889505  1.0000
  H   H15       1.0  0.27601217534857614  0.7919518212650516  0.2775064973132473  1.0000
  H   H16       1.0  0.7200216078425824  0.20407408221164047  0.722786599446252  1.0000
  H   H17       1.0  0.4670059528444311  0.5072025064019671  0.9386244655567141  1.0000
  H   H18       1.0  0.6049133012423198  0.5048818611498546  0.12055433948539467  1.0000
  C   C1        1.0  0.23904031442808105  0.06420800407016708  0.8054605790600817  1.0000
  C   C2        1.0  0.7577136231097015  0.9329587535370221  0.19321242330025262  1.0000
  C   C3        1.0  0.1779916433537707  0.03949954512206941  0.6834547391851942  1.0000
  C   C4        1.0  0.8223178993509491  0.9605028534810527  0.3124172811133692  1.0000
  C   C5        1.0  0.3095199668038191  0.9198160180819174  0.63911439795055  1.0000
  C   C6        1.0  0.6934295699451737  0.08263710433841  0.35425611976187094  1.0000
  C   C7        1.0  0.16540454635102012  0.16683450273328757  0.9101143041720618  1.0000
  C   C8        1.0  0.827306888670151  0.8254108993305634  0.09319247670572402  1.0000
  C   C9        1.0  0.3340406404389142  0.834806321624832  0.5199528035292361  1.0000
  C   C10       1.0  0.6716956042276508  0.17183359939854628  0.46937889717518294  1.0000
  C   C11       1.0  0.017754949277254194  0.5446497425644026  0.6256779498040856  1.0000
  C   C12       1.0  0.9874805210304629  0.45394582010586493  0.3817312468162869  1.0000
  C   C13       1.0  0.8364569382928622  0.5367793280583584  0.45616639265443837  1.0000
  C   C14       1.0  0.16906545500014394  0.461879492541108  0.5510457008635896  1.0000
  N   N1        1.0  0.39888722542529814  0.9654859782534047  0.8301373441592546  1.0000
  N   N2        1.0  0.5981794054602646  0.03161681266535509  0.16798037529926546  1.0000
  N   N3        1.0  0.4404365054270301  0.8779934461345178  0.7302929312522011  1.0000
  N   N4        1.0  0.5604630190323121  0.12320120296849515  0.26491182238554956  1.0000
  N   N5        1.0  0.8521639274904373  0.5820068203613928  0.5778806781920948  1.0000
  N   N6        1.0  0.1529295589115449  0.4162130284664016  0.42951959465717954  1.0000
  O   O1        1.0  0.2747325352809256  0.1586036903520593  0.005664227136087199  1.0000
  O   O2        1.0  0.7169438651606227  0.8302397667700203  0.998931889564318  1.0000
  O   O3        1.0  0.012533589787246092  0.2523675823207512  0.9092329755236718  1.0000
  O   O4        1.0  0.9774247575034068  0.7363100086458018  0.09755950160103309  1.0000
  O   O5        1.0  0.47238217096932544  0.7262060221420441  0.5162940767814704  1.0000
  O   O6        1.0  0.5384461374117536  0.2873159621735796  0.46563287182507906  1.0000
  O   O7        1.0  0.22041230598184575  0.8708573628950658  0.42782455091444405  1.0000
  O   O8        1.0  0.7797968034345502  0.13557839316040796  0.5646928083569378  1.0000
  O   O9        1.0  0.49736499895481495  0.5078362337527125  0.8301876269273337  1.0000
  O   O10       1.0  0.4689150082479756  0.49882430152522517  0.13285912923864632  1.0000
  O   O11       1.0  0.841625990201585  0.8220345492327609  0.7212887549048831  1.0000
  O   O12       1.0  0.1579317721492046  0.1825456533933121  0.27682074305550947  1.0000
  O   O13       1.0  0.29727249126487004  0.7663793256032321  0.1773948261954246  1.0000
  O   O14       1.0  0.6927971746433388  0.22513496107575287  0.8246509335920962  1.0000
