data_image0
_chemical_formula_structural       Zn2H16C26S2N6Cl2O6
_chemical_formula_sum              "Zn2 H16 C26 S2 N6 Cl2 O6"
_cell_length_a       7.1347840289323585
_cell_length_b       8.423912523959872
_cell_length_c       11.805694052218644
_cell_angle_alpha    89.99974450507202
_cell_angle_beta     89.9994083371718
_cell_angle_gamma    108.91975539852551

_space_group_name_H-M_alt    "P 1"
_space_group_IT_number       1

loop_
  _space_group_symop_operation_xyz
  'x, y, z'

loop_
  _atom_site_type_symbol
  _atom_site_label
  _atom_site_symmetry_multiplicity
  _atom_site_fract_x
  _atom_site_fract_y
  _atom_site_fract_z
  _atom_site_occupancy
  Zn  Zn1       1.0  0.23324094836276998  0.5011809509241799  0.3611156678309727  1.0000
  Zn  Zn2       1.0  0.733227960048069  0.501173424808485  0.638885843580475  1.0000
  H   H1        1.0  0.9060034300915731  0.4078492444213141  0.23560457681166722  1.0000
  H   H2        1.0  0.4059866904578443  0.40783582678458435  0.7644019742738309  1.0000
  H   H3        1.0  0.8709702093574379  0.5227600630223393  0.33370886879247763  1.0000
  H   H4        1.0  0.37095590242056176  0.5227490453551552  0.6663009444886044  1.0000
  H   H5        1.0  0.24807654762509662  0.8130470495815275  0.5086955995007258  1.0000
  H   H6        1.0  0.7480801822573042  0.8130512360645596  0.4913175200483267  1.0000
  H   H7        1.0  0.4133048206174763  0.12837638344718272  0.49667480658855834  1.0000
  H   H8        1.0  0.913312770295441  0.12837412024783385  0.5033444450166941  1.0000
  H   H9        1.0  0.6376161456747197  0.2451369579426483  0.33569559656892534  1.0000
  H   H10       1.0  0.13761573546566552  0.2451183503054608  0.6643150129521587  1.0000
  H   H11       1.0  0.7406263974259913  0.6796910126255966  0.9398758845156224  1.0000
  H   H12       1.0  0.2406345734113843  0.6796455268414763  0.06010467710277821  1.0000
  H   H13       1.0  0.5594441470614698  0.3711145786477417  0.9816729329861006  1.0000
  H   H14       1.0  0.05945894440500872  0.371080867682771  0.0182963063456327  1.0000
  H   H15       1.0  0.3576911990263056  0.29854477218993475  0.15714703870486352  1.0000
  H   H16       1.0  0.8576894242775808  0.29852724522075386  0.8428373230495513  1.0000
  C   C1        1.0  0.3474170527737714  0.8721149537523446  0.4395776687410944  1.0000
  C   C2        1.0  0.8474208478846066  0.8721258697477836  0.5604278029522761  1.0000
  C   C3        1.0  0.44033794855319286  0.045151969721274596  0.4330360636698103  1.0000
  C   C4        1.0  0.9403461015788679  0.0451527283824404  0.5669739502260854  1.0000
  C   C5        1.0  0.565853674731862  0.11021480402521891  0.34250294342729154  1.0000
  C   C6        1.0  0.06585499555800571  0.1102075836882435  0.6575102841818463  1.0000
  C   C7        1.0  0.5963726394414907  0.0016457208474846988  0.2604027985004365  1.0000
  C   C8        1.0  0.0963821252315782  0.0016374932968971998  0.7396037894673031  1.0000
  C   C9        1.0  0.49644480770355404  0.8287053015543577  0.2729584745949509  1.0000
  C   C10       1.0  0.9964603594060649  0.8286953377889714  0.7270325584179602  1.0000
  C   C11       1.0  0.5220044079819247  0.7079977452212844  0.19023663220572468  1.0000
  C   C12       1.0  0.021982084304340836  0.7079825641677432  0.8097639770595251  1.0000
  C   C13       1.0  0.6431533196657853  0.7614183268730343  0.09428327973063942  1.0000
  C   C14       1.0  0.14316738028622208  0.7613779455115264  0.9057078556171801  1.0000
  C   C15       1.0  0.6546941640580284  0.6392556882933035  0.016789473575400404  1.0000
  C   C16       1.0  0.15469585433901775  0.6392081699895515  0.9831985842616079  1.0000
  C   C17       1.0  0.5553684689764394  0.4708782721233646  0.039117445316208  1.0000
  C   C18       1.0  0.055365137846592895  0.4708385856851577  0.9608633623247445  1.0000
  C   C19       1.0  0.44020359990864216  0.4288291008875689  0.13705878280975986  1.0000
  C   C20       1.0  0.9402092005882849  0.428802499374683  0.8629262899236069  1.0000
  C   C21       1.0  0.7289510985997795  0.0678325386368002  0.16281204086668313  1.0000
  C   C22       1.0  0.22895236906905578  0.0678106302226453  0.8371925774360278  1.0000
  C   C23       1.0  0.7512476381009636  0.94264315773885  0.0731860193769762  1.0000
  C   C24       1.0  0.25123665445411814  0.9426076824013095  0.9268173472536178  1.0000
  C   C25       1.0  0.09270229280048169  0.11109643136851588  0.3003715096560171  1.0000
  C   C26       1.0  0.5927017326176626  0.11109441465493569  0.6996305189357132  1.0000
  S   S1        1.0  0.010655343448498  0.9197290319919704  0.2558081061453308  1.0000
  S   S2        1.0  0.5106715971975789  0.9197251492947274  0.7442020696867505  1.0000
  N   N1        1.0  0.37608055631240234  0.7667097257988402  0.36132143298844716  1.0000
  N   N2        1.0  0.8760794486211125  0.766714715872233  0.6386799429183371  1.0000
  N   N3        1.0  0.42146306733656064  0.5449473795669562  0.20969310389750723  1.0000
  N   N4        1.0  0.9214661082050029  0.5449329616500621  0.7903001974708844  1.0000
  N   N5        1.0  0.15046095111690505  0.25119178746255943  0.33376514282285547  1.0000
  N   N6        1.0  0.6504409145102699  0.2511852319577983  0.6662326533858265  1.0000
  Cl  Cl1       1.0  0.12569731026557923  0.4998125482148979  0.5512505620441885  1.0000
  Cl  Cl2       1.0  0.6256915737977593  0.4998197971529238  0.4487542341219141  1.0000
  O   O1        1.0  0.8135862366928777  0.22000110486795418  0.1489173642035055  1.0000
  O   O2        1.0  0.31358121373772013  0.21998157897144208  0.8510887277047843  1.0000
  O   O3        1.0  0.8461250516452877  0.9928056841064149  0.9858663884761967  1.0000
  O   O4        1.0  0.34611104338367227  0.9927734236012499  0.014137012863564303  1.0000
  O   O5        1.0  0.9700687689159294  0.5138661946012847  0.27717734674094885  1.0000
  O   O6        1.0  0.47005662745286975  0.5138557579640023  0.7228326607373391  1.0000
