data_image0
_chemical_formula_structural       Zn4H36C48I4N8O16
_chemical_formula_sum              "Zn4 H36 C48 I4 N8 O16"
_cell_length_a       7.800583814343304
_cell_length_b       12.063506969552641
_cell_length_c       13.874964654002161
_cell_angle_alpha    90.00006309703448
_cell_angle_beta     89.99998986668649
_cell_angle_gamma    89.9697895545482

_space_group_name_H-M_alt    "P 1"
_space_group_IT_number       1

loop_
  _space_group_symop_operation_xyz
  'x, y, z'

loop_
  _atom_site_type_symbol
  _atom_site_label
  _atom_site_symmetry_multiplicity
  _atom_site_fract_x
  _atom_site_fract_y
  _atom_site_fract_z
  _atom_site_occupancy
  Zn  Zn1       1.0  0.6059284313272926  0.7527747183343648  0.4369945960473487  1.0000
  Zn  Zn2       1.0  0.10592715241007508  0.25277445482964106  0.0630049607652907  1.0000
  Zn  Zn3       1.0  0.39407149388650703  0.2472243305515534  0.5630047759866414  1.0000
  Zn  Zn4       1.0  0.8940715202797874  0.7472262617573406  0.9369965734372273  1.0000
  H   H1        1.0  0.18516284487324697  0.49893670439563925  0.8848788799186239  1.0000
  H   H2        1.0  0.6851629575653461  0.9989373985303514  0.6151220104179558  1.0000
  H   H3        1.0  0.8148383915595473  0.5010639923405621  0.11512337500631281  1.0000
  H   H4        1.0  0.314837011670221  0.0010641370171384982  0.38487808233977466  1.0000
  H   H5        1.0  0.12171885253610529  0.24202701487960349  0.2805918154360114  1.0000
  H   H6        1.0  0.6217189325133033  0.7420278412648073  0.2194077295183732  1.0000
  H   H7        1.0  0.8782810286556993  0.757969547345681  0.7194082773193458  1.0000
  H   H8        1.0  0.37827975485073745  0.2579737042082968  0.7805923632394283  1.0000
  H   H9        1.0  0.9907339440922128  0.129337875980994  0.4123196212206679  1.0000
  H   H10       1.0  0.4907346591923697  0.6293387355640903  0.08767977904303591  1.0000
  H   H11       1.0  0.009265937099591802  0.8706586862442904  0.5876804715346893  1.0000
  H   H12       1.0  0.5092627609742307  0.3706636487212124  0.9123195929926666  1.0000
  H   H13       1.0  0.7003395050399276  0.9561153082968378  0.1941746105286626  1.0000
  H   H14       1.0  0.20034327743564967  0.4561153130207741  0.3058244105914554  1.0000
  H   H15       1.0  0.2996591089545361  0.04388209274018349  0.8058240407820421  1.0000
  H   H16       1.0  0.799661775264127  0.5438836961631212  0.6941756821648113  1.0000
  H   H17       1.0  0.8411487016548804  0.07604465926833369  0.0712837794879704  1.0000
  H   H18       1.0  0.34114928042342996  0.5760442935605353  0.4287148640469809  1.0000
  H   H19       1.0  0.15885250543055918  0.9239543796915156  0.928714871823388  1.0000
  H   H20       1.0  0.6588557576025025  0.423953886735866  0.5712845079863342  1.0000
  H   H21       1.0  0.23428580389079198  0.5893872730347524  0.5947880916302778  1.0000
  H   H22       1.0  0.7342915443997525  0.08938884147140412  0.9052131228223175  1.0000
  H   H23       1.0  0.7657102757080949  0.41061180562941507  0.4052134425715863  1.0000
  H   H24       1.0  0.26571355232190536  0.9106126543735868  0.0947869699351358  1.0000
  H   H25       1.0  0.1146291988601007  0.46399903503652234  0.7247436840267554  1.0000
  H   H26       1.0  0.6146305285148443  0.9639990934340188  0.7752579006735942  1.0000
  H   H27       1.0  0.8853707703750117  0.5360025005127865  0.2752592916212038  1.0000
  H   H28       1.0  0.3853707225922419  0.036002432187835595  0.22474219208406512  1.0000
  H   H29       1.0  0.3463015432038148  0.6462069858051365  0.9408358415880188  1.0000
  H   H30       1.0  0.8463009829114297  0.1462081650295204  0.5591639745562631  1.0000
  H   H31       1.0  0.6536997225771158  0.35379536870421907  0.0591649718925922  1.0000
  H   H32       1.0  0.1536989863242511  0.8537933705175008  0.4408353974789136  1.0000
  H   H33       1.0  0.47982325727205216  0.7783171787764972  0.8205177537410934  1.0000
  H   H34       1.0  0.9798264901761654  0.2783176519181083  0.6794821753956768  1.0000
  H   H35       1.0  0.5201715844776514  0.22168439647256116  0.1794808975717999  1.0000
  H   H36       1.0  0.020176028128602797  0.7216830348906452  0.32051719663895994  1.0000
  C   C1        1.0  0.026269593433546796  0.17868515357713483  0.2647171548855809  1.0000
  C   C2        1.0  0.5262709356282828  0.6786851612815212  0.2352830597592117  1.0000
  C   C3        1.0  0.9737290205606968  0.8213122474608027  0.7352829378702381  1.0000
  C   C4        1.0  0.4737290189332126  0.32131554537938456  0.7647177537206815  1.0000
  C   C5        1.0  0.9515762986682786  0.1162974347361612  0.33785312093664294  1.0000
  C   C6        1.0  0.45157696106006984  0.6162967309801245  0.1621469914941969  1.0000
  C   C7        1.0  0.048421018780480586  0.8836991473403658  0.6621469718188495  1.0000
  C   C8        1.0  0.5484204444324517  0.38370482441860077  0.8378531012636685  1.0000
  C   C9        1.0  0.8312378891138578  0.035024674456749894  0.313900594640721  1.0000
  C   C10       1.0  0.3312410930606617  0.5350231523381838  0.18610017282119173  1.0000
  C   C11       1.0  0.16875689393977916  0.9649735852450901  0.6860994981157021  1.0000
  C   C12       1.0  0.6687601286983947  0.46497671551006886  0.8139006406582326  1.0000
  C   C13       1.0  0.790841495984317  0.0196502256196069  0.2165987198150319  1.0000
  C   C14       1.0  0.290847218476479  0.5196479781554046  0.28340131626085  1.0000
  C   C15       1.0  0.20915458361503167  0.9803488530427273  0.7833999314966035  1.0000
  C   C16       1.0  0.7091591014208659  0.48035019221583747  0.7165987764949547  1.0000
  C   C17       1.0  0.8699162139933847  0.08536790126937181  0.14767749063082652  1.0000
  C   C18       1.0  0.369919365795802  0.5853665899452878  0.3523218796650411  1.0000
  C   C19       1.0  0.1300824440228538  0.9146319864292136  0.8523218814036184  1.0000
  C   C20       1.0  0.6300843903584905  0.41463160027719675  0.6476782130908986  1.0000
  C   C21       1.0  0.7509889456510804  0.9634089158105894  0.3911423204575328  1.0000
  C   C22       1.0  0.25099404703362893  0.46340783193781493  0.1088567025708187  1.0000
  C   C23       1.0  0.24900328833358287  0.03659019262907041  0.6088570515768624  1.0000
  C   C24       1.0  0.749005907528094  0.5365928747221744  0.8911426694639601  1.0000
  C   C25       1.0  0.4555833747540134  0.7665712810850632  0.6239637351097472  1.0000
  C   C26       1.0  0.9555878278702749  0.2665719935600208  0.8760354644956223  1.0000
  C   C27       1.0  0.5444127195190659  0.23342862646521922  0.37603635764739357  1.0000
  C   C28       1.0  0.04441595763205438  0.7334278544360725  0.12396390753855263  1.0000
  C   C29       1.0  0.36675141637665826  0.6938528101707458  0.6981361459825663  1.0000
  C   C30       1.0  0.8667558780869271  0.1938525996975571  0.8018637136834742  1.0000
  C   C31       1.0  0.6332472416394664  0.3061470775282872  0.30186394677443934  1.0000
  C   C32       1.0  0.13324790741551598  0.8061472482980817  0.1981349376281401  1.0000
  C   C33       1.0  0.2613467170185046  0.6054344891317172  0.6703500922434316  1.0000
  C   C34       1.0  0.7613511993599217  0.10543597167026059  0.8296511348496552  1.0000
  C   C35       1.0  0.7386481100569  0.3945662572316807  0.3296507212367388  1.0000
  C   C36       1.0  0.2386513336186908  0.8945655440259799  0.1703489579079402  1.0000
  C   C37       1.0  0.19355459896937788  0.5360564591663602  0.7400302399651579  1.0000
  C   C38       1.0  0.6935578066240424  0.03605703437922609  0.7599716482787144  1.0000
  C   C39       1.0  0.806444073720371  0.4639442574210833  0.2599720149599136  1.0000
  C   C40       1.0  0.30644472635456305  0.963944481317014  0.24002844447887384  1.0000
  C   C41       1.0  0.32667250268276854  0.6399275388655069  0.8635505976409306  1.0000
  C   C42       1.0  0.8266757490862986  0.13992795743551056  0.6364499351833076  1.0000
  C   C43       1.0  0.6733249174834838  0.36007484542117385  0.1364509365624471  1.0000
  C   C44       1.0  0.17332678389231396  0.8600735582607227  0.3635501575742808  1.0000
  C   C45       1.0  0.3975730132117404  0.7110837492193905  0.7961897358016117  1.0000
  C   C46       1.0  0.8975775203555115  0.21108424328730283  0.7038108579836901  1.0000
  C   C47       1.0  0.6024243629329715  0.28891614840481583  0.2038096362329043  1.0000
  C   C48       1.0  0.10242627982077579  0.7889164335958229  0.2961885140508755  1.0000
  I   I1        1.0  0.870009968862675  0.6452512268599762  0.496993242823649  1.0000
  I   I2        1.0  0.37001127251024707  0.14525086741680576  0.0030061847357317002  1.0000
  I   I3        1.0  0.1299887038272942  0.35474948972655074  0.5030075706563082  1.0000
  I   I4        1.0  0.6299899639229949  0.854749829317562  0.9969931872989762  1.0000
  N   N1        1.0  0.9859306402428842  0.16376434983583724  0.1711197441974122  1.0000
  N   N2        1.0  0.4859312503299903  0.6637638575222979  0.3288804101941524  1.0000
  N   N3        1.0  0.014069284970801703  0.836234699050543  0.8288803485591317  1.0000
  N   N4        1.0  0.5140686895575398  0.33623602025157595  0.6711204032853431  1.0000
  N   N5        1.0  0.22876550388001246  0.5546394978443342  0.8337508462001609  1.0000
  N   N6        1.0  0.7287687409351874  0.054639954205228485  0.666250335571526  1.0000
  N   N7        1.0  0.771233183483801  0.44536204762968606  0.16625068800274787  1.0000
  N   N8        1.0  0.271233777369467  0.94536073260398  0.3337497571856645  1.0000
  O   O1        1.0  0.6577790183943435  0.8831704218378748  0.3578463460738064  1.0000
  O   O2        1.0  0.15777771464821197  0.3831702587043963  0.1421526095396786  1.0000
  O   O3        1.0  0.3422183430765243  0.11682864689883839  0.642152305237758  1.0000
  O   O4        1.0  0.8422235071109582  0.6168296091433944  0.8578474832171851  1.0000
  O   O5        1.0  0.42427072058011106  0.7393447445144474  0.5355310659451931  1.0000
  O   O6        1.0  0.9242712856662932  0.23934477002486423  0.9644681107530175  1.0000
  O   O7        1.0  0.5757305158529035  0.26065595222083715  0.4644697475346292  1.0000
  O   O8        1.0  0.07573248516218459  0.7606542490837354  0.0355305405582058  1.0000
  O   O9        1.0  0.7801095617081796  0.9832635414461774  0.4776751615469408  1.0000
  O   O10       1.0  0.28011594275967167  0.4832606801382581  0.022325319001431896  1.0000
  O   O11       1.0  0.21988268695032787  0.016736395880975898  0.522324931210406  1.0000
  O   O12       1.0  0.7198814480590058  0.5167400463729805  0.9776740530334821  1.0000
  O   O13       1.0  0.5521442991517916  0.8420145842427259  0.6524604155275284  1.0000
  O   O14       1.0  0.052150592856513384  0.34201296424218697  0.847540338034186  1.0000
  O   O15       1.0  0.4478505425975711  0.1579869910077036  0.3475403979530327  1.0000
  O   O16       1.0  0.9478531926459226  0.6579868837534449  0.15245831327743536  1.0000
