data_image0
_chemical_formula_structural       Cd2H36C56N8O12
_chemical_formula_sum              "Cd2 H36 C56 N8 O12"
_cell_length_a       9.470824989552607
_cell_length_b       11.039728499020281
_cell_length_c       12.629
_cell_angle_alpha    68.00602331862312
_cell_angle_beta     79.9470580327943
_cell_angle_gamma    77.83426211985618

_space_group_name_H-M_alt    "P 1"
_space_group_IT_number       1

loop_
  _space_group_symop_operation_xyz
  'x, y, z'

loop_
  _atom_site_type_symbol
  _atom_site_label
  _atom_site_symmetry_multiplicity
  _atom_site_fract_x
  _atom_site_fract_y
  _atom_site_fract_z
  _atom_site_occupancy
  Cd  Cd1       1.0  0.5428688880332189  0.913775646596939  0.6601059503457949  1.0000
  Cd  Cd2       1.0  0.4571324968229433  0.0862225572894459  0.33989619840211577  1.0000
  H   H1        1.0  0.5803431853204373  0.4422094852954785  0.6245043623710984  1.0000
  H   H2        1.0  0.4196549825218482  0.5577887185909063  0.3754974156741612  1.0000
  H   H3        1.0  0.43607638423466705  0.315465274908469  0.5732314547911558  1.0000
  H   H4        1.0  0.5639214377178661  0.6845349080574294  0.4267689287941679  1.0000
  H   H5        1.0  0.19574904966041373  0.6187928551430844  0.7833573398068623  1.0000
  H   H6        1.0  0.8042455552782428  0.3812073278228212  0.2166426730758105  1.0000
  H   H7        1.0  0.0490896377781453  0.4800732346025569  0.7426567314983075  1.0000
  H   H8        1.0  0.9509074577261812  0.5199249692838279  0.25734281143719784  1.0000
  H   H9        1.0  0.2589132024933107  0.3250618314833247  0.4715599847533341  1.0000
  H   H10       1.0  0.7410876635282192  0.6749393410223377  0.5284388845621565  1.0000
  H   H11       1.0  0.10935753635806121  0.2389787992997796  0.5209562364023199  1.0000
  H   H12       1.0  0.8906447478911873  0.761020394126362  0.479042303341231  1.0000
  H   H13       1.0  0.6967079917196841  0.1614562755642766  0.47933236970293797  1.0000
  H   H14       1.0  0.3032814244740507  0.8385429178618651  0.5206686463716893  1.0000
  H   H15       1.0  0.8379454956524625  0.3272348607922879  0.48226742458344063  1.0000
  H   H16       1.0  0.1620410840858497  0.672768290792888  0.5177310833217561  1.0000
  H   H17       1.0  0.8948101171138558  0.3186595092478868  0.673520533055715  1.0000
  H   H18       1.0  0.105188258342011  0.6813436423372892  0.32647326340863  1.0000
  H   H19       1.0  0.0411866605900144  0.353476465639524  0.9603023848168349  1.0000
  H   H20       1.0  0.9588213659074826  0.646526685945652  0.0396980665537683  1.0000
  H   H21       1.0  0.17788240186744278  0.4104056774675017  0.08200170696974847  1.0000
  H   H22       1.0  0.8221246905682662  0.5895905473393697  0.9180035098469547  1.0000
  H   H23       1.0  0.017586142222427298  0.10436774783523362  0.3802921980917376  1.0000
  H   H24       1.0  0.9824089815508541  0.8956294665113944  0.6197071350816972  1.0000
  H   H25       1.0  0.8775229009166168  0.0508346364573313  0.2606751528698297  1.0000
  H   H26       1.0  0.1224760280425841  0.949171483747115  0.7393183911002056  1.0000
  H   H27       1.0  0.6547542173846351  0.8265595913902786  0.15567116653575408  1.0000
  H   H28       1.0  0.3452498656507785  0.1734415811153767  0.8443288653107148  1.0000
  H   H29       1.0  0.5110683380415821  0.6778515565306691  0.12577355280237873  1.0000
  H   H30       1.0  0.488936090883584  0.3221476368954725  0.874229457160702  1.0000
  H   H31       1.0  0.46687793449250836  0.7140786070777168  0.9248681757449903  1.0000
  H   H32       1.0  0.5331231044739013  0.2859215758881888  0.0751333703713044  1.0000
  H   H33       1.0  0.7877818919361202  0.991571283305703  0.15432506440602362  1.0000
  H   H34       1.0  0.212221845209541  0.0084318682794731  0.8456727811521674  1.0000
  H   H35       1.0  0.26497913785716776  0.3380831851612385  0.2719800677155746  1.0000
  H   H36       1.0  0.7350218664405404  0.661911060566112  0.7280258021557843  1.0000
  C   C1        1.0  0.4875187848290564  0.6266250623290901  0.7210405729810887  1.0000
  C   C2        1.0  0.5124806282960606  0.3733721520175308  0.2789605741764164  1.0000
  C   C3        1.0  0.39771637278771266  0.5396682665390813  0.7056579775190244  1.0000
  C   C4        1.0  0.6022794774337825  0.4603309268870674  0.2943445717892176  1.0000
  C   C5        1.0  0.46368971380297114  0.4515616255500561  0.6492360387909529  1.0000
  C   C6        1.0  0.5363055829151833  0.5484345992568151  0.3507667630116132  1.0000
  C   C7        1.0  0.38171469628668586  0.3793954805255879  0.6208910588121483  1.0000
  C   C8        1.0  0.6182834715555999  0.6206027233607969  0.3791107192331182  1.0000
  C   C9        1.0  0.2476048650872187  0.5501801473902503  0.7393466737661072  1.0000
  C   C10       1.0  0.7523909851342694  0.4498190460358984  0.2606542918854799  1.0000
  C   C11       1.0  0.1654225635494484  0.4744694709519734  0.7160121834939376  1.0000
  C   C12       1.0  0.8345736325617992  0.5255277433946546  0.2839878011325965  1.0000
  C   C13       1.0  0.2317173995619513  0.3917756124402061  0.653534299409408  1.0000
  C   C14       1.0  0.7682814947285409  0.6082245705256994  0.3464675274573422  1.0000
  C   C15       1.0  0.20147680496032191  0.2608149731435887  0.548784757573884  1.0000
  C   C16       1.0  0.7985253063440467  0.7391852098223168  0.4512142726821866  1.0000
  C   C17       1.0  0.3015079954462081  0.1313030200529468  0.6013472713050022  1.0000
  C   C18       1.0  0.6984937699684154  0.8686991419924723  0.3986511563194525  1.0000
  C   C19       1.0  0.7231883626605153  0.1605478780662608  0.5604732488554023  1.0000
  C   C20       1.0  0.2768039246573509  0.8394532944393943  0.4395275352902603  1.0000
  C   C21       1.0  0.8024469330470083  0.2534290483885187  0.5628284448263514  1.0000
  C   C22       1.0  0.1975485712847345  0.7465721241171437  0.4371695427086237  1.0000
  C   C23       1.0  0.8324136775092229  0.24949463830998303  0.6676273556032515  1.0000
  C   C24       1.0  0.16758397149843768  0.7505065341956723  0.33237193483793004  1.0000
  C   C25       1.0  0.7844095808328718  0.1518884156424107  0.7694209800034885  1.0000
  C   C26       1.0  0.21559145813353808  0.8481117673234877  0.2305789824561444  1.0000
  C   C27       1.0  0.8136998852102977  0.1371234929105754  0.8813405514788144  1.0000
  C   C28       1.0  0.1863036443217823  0.8628747109758096  0.11865814920530948  1.0000
  C   C29       1.0  0.9527106232372518  0.19610303111750943  0.10046609860454941  1.0000
  C   C30       1.0  0.04729204157045071  0.8039001204676666  0.8995318873288697  1.0000
  C   C31       1.0  0.0351103407557716  0.2999888730905056  0.05265005722093012  1.0000
  C   C32       1.0  0.9648957140106802  0.7000132889549135  0.9473501843876092  1.0000
  C   C33       1.0  0.11231095202393959  0.3313246286128546  0.12055204720348203  1.0000
  C   C34       1.0  0.8876947221840583  0.6686735752735302  0.8794511237001715  1.0000
  C   C35       1.0  0.11089238600291652  0.2566965086700321  0.23859889024934228  1.0000
  C   C36       1.0  0.8891082724050389  0.7432997161368321  0.7614040015054117  1.0000
  C   C37       1.0  0.021591959571338703  0.1585598926920753  0.2880411300602859  1.0000
  C   C38       1.0  0.9784062082709468  0.8414383111943096  0.711959064328312  1.0000
  C   C39       1.0  0.9442849738454059  0.1285332982697938  0.22005870299918942  1.0000
  C   C40       1.0  0.05571357455534096  0.8714688637756183  0.7799393539226216  1.0000
  C   C41       1.0  0.8841763910791586  0.1556941855523775  0.027168207466310396  1.0000
  C   C42       1.0  0.11582520139058519  0.8443089660327985  0.9728283351856819  1.0000
  C   C43       1.0  0.7657724831876465  0.0345933204062874  0.9782645246719285  1.0000
  C   C44       1.0  0.2342280369441383  0.9654098311788886  0.021732158355291572  1.0000
  C   C45       1.0  0.6851986665015416  0.9420517451869942  0.973693898199592  1.0000
  C   C46       1.0  0.31480327185795426  0.057949427318661206  0.02630562256900502  1.0000
  C   C47       1.0  0.633352178466069  0.8393602777021272  0.06972515929975745  1.0000
  C   C48       1.0  0.3666495869485473  0.160641884343292  0.9302748519813593  1.0000
  C   C49       1.0  0.5540358736329978  0.7570374965996791  0.05353688142236732  1.0000
  C   C50       1.0  0.4459669641195774  0.24296466544574  0.9464645731401831  1.0000
  C   C51       1.0  0.5284570341680989  0.7770845825606899  0.9415615002913214  1.0000
  C   C52       1.0  0.4715440047983179  0.22291560040520864  0.05844083765330768  1.0000
  C   C53       1.0  0.6534235454659906  0.956658341557521  0.8627619360582203  1.0000
  C   C54       1.0  0.3465796381763369  0.0433418414083775  0.137240121135946  1.0000
  C   C55       1.0  0.7042087278446871  0.060987314376284  0.760319504528738  1.0000
  C   C56       1.0  0.29579213817685  0.9390138581293783  0.23968015661508704  1.0000
  N   N1        1.0  0.5764091258351414  0.8736201232099106  0.8502392265498813  1.0000
  N   N2        1.0  0.42359101373818925  0.1263790702162311  0.14976196942912173  1.0000
  N   N3        1.0  0.6758042156278562  0.0682604315989224  0.6562097606706346  1.0000
  N   N4        1.0  0.32419377926955667  0.9317387618272192  0.3437917160588242  1.0000
  N   N5        1.0  0.8118121025180827  0.0478838288984349  0.06960568855713233  1.0000
  N   N6        1.0  0.18819056228961978  0.9521193226867412  0.9303899218912977  1.0000
  N   N7        1.0  0.8870357592113436  0.21130434088269823  0.9126764699945868  1.0000
  N   N8        1.0  0.1129674244309911  0.7886958420832002  0.08732004440126673  1.0000
  O   O1        1.0  0.6173818562824208  0.5790450221364196  0.7438054695288301  1.0000
  O   O2        1.0  0.382614685718579  0.42095021313068776  0.2562006605276395  1.0000
  O   O3        1.0  0.4244591543727125  0.7463168228595336  0.7055569779396011  1.0000
  O   O4        1.0  0.5755443751593674  0.2536813810268512  0.294436179946203  1.0000
  O   O5        1.0  0.1411561146695988  0.3285064193815543  0.626683549649613  1.0000
  O   O6        1.0  0.8588420531726868  0.6714917845048305  0.37331664473898474  1.0000
  O   O7        1.0  0.3784974812216504  0.0764389777002989  0.5321252046467393  1.0000
  O   O8        1.0  0.6215103723309738  0.9235651634246338  0.4678741535797288  1.0000
  O   O9        1.0  0.308345063422216  0.0818141576667415  0.7080111053344709  1.0000
  O   O10       1.0  0.6916559755442008  0.9181860252991568  0.29198806529683463  1.0000
  O   O11       1.0  0.19336003193588167  0.2710873853732778  0.30915197980620945  1.0000
  O   O12       1.0  0.8066391735756611  0.7289048812745591  0.6908547734472281  1.0000
