data_image0
_chemical_formula_structural       Zn2H32C64N8Cl8O8
_chemical_formula_sum              "Zn2 H32 C64 N8 Cl8 O8"
_cell_length_a       9.085577371141047
_cell_length_b       10.014018329156249
_cell_length_c       16.790428350505447
_cell_angle_alpha    95.39385087307201
_cell_angle_beta     90.74119734615245
_cell_angle_gamma    106.4600066842755

_space_group_name_H-M_alt    "P 1"
_space_group_IT_number       1

loop_
  _space_group_symop_operation_xyz
  'x, y, z'

loop_
  _atom_site_type_symbol
  _atom_site_label
  _atom_site_symmetry_multiplicity
  _atom_site_fract_x
  _atom_site_fract_y
  _atom_site_fract_z
  _atom_site_occupancy
  Zn  Zn1       1.0  0.9456114880235091  0.713947375814172  0.7563643453647586  1.0000
  Zn  Zn2       1.0  0.0543806840986747  0.2860412243595434  0.2436320666830198  1.0000
  H   H1        1.0  0.6620644891997857  0.7630488452363268  0.8507929100582956  1.0000
  H   H2        1.0  0.3379267380837803  0.23693658533080256  0.1492009481801873  1.0000
  H   H3        1.0  0.4962553490879102  0.9257319940252204  0.8461477371421894  1.0000
  H   H4        1.0  0.5037387946762663  0.07425240980366972  0.1538484944868017  1.0000
  H   H5        1.0  0.5682113419846146  0.1205204512113696  0.7569381652891353  1.0000
  H   H6        1.0  0.43179139998111554  0.8794776132185196  0.24306423008160752  1.0000
  H   H7        1.0  0.7416413720394814  0.2339997887484273  0.650425854396815  1.0000
  H   H8        1.0  0.25837021446667313  0.7660056276044999  0.34958060751849734  1.0000
  H   H9        1.0  0.9667915853935583  0.24103801060241642  0.5657614061642635  1.0000
  H   H10       1.0  0.03322315785160167  0.758970561569335  0.4342470449827758  1.0000
  H   H11       1.0  0.18951232354867642  0.15404120139421454  0.5299771930750694  1.0000
  H   H12       1.0  0.8105112799454447  0.8459673082393664  0.47002840392849526  1.0000
  H   H13       1.0  0.3509959026884888  0.993745873730696  0.557755198064136  1.0000
  H   H14       1.0  0.6490107542471505  0.006246896944851702  0.4422434163188598  1.0000
  H   H15       1.0  0.2657447870161249  0.8244624765974251  0.6598802142897924  1.0000
  H   H16       1.0  0.734254918117486  0.1755218742941906  0.34011311631234525  1.0000
  H   H17       1.0  0.025630240095253467  0.9611096626621104  0.9101863249037551  1.0000
  H   H18       1.0  0.9743308673453728  0.0388674596502767  0.08980549636917352  1.0000
  H   H19       1.0  0.19650060775383338  0.011379961310275601  0.0345639063121936  1.0000
  H   H20       1.0  0.8034551472005305  0.988611902505788  0.965433336533536  1.0000
  H   H21       1.0  0.3707172332365334  0.8604702712435927  0.0539168677624389  1.0000
  H   H22       1.0  0.6292417669466629  0.1395290195942493  0.9460891301542134  1.0000
  H   H23       1.0  0.47781119765194546  0.6687591553201743  0.996796975860498  1.0000
  H   H24       1.0  0.5221744813541704  0.3312516187930258  0.0032129544866635043  1.0000
  H   H25       1.0  0.499980008248329  0.5026171576243499  0.8797091473932355  1.0000
  H   H26       1.0  0.5000250153797765  0.49739566284291936  0.12030175811069202  1.0000
  H   H27       1.0  0.4250177847704606  0.405144989726054  0.7376113883050055  1.0000
  H   H28       1.0  0.5749993600439752  0.5948677807636359  0.2623984974383334  1.0000
  H   H29       1.0  0.23949859361230355  0.37601925119597723  0.6191123271459986  1.0000
  H   H30       1.0  0.7605318605466422  0.6239934144057314  0.38089238363239286  1.0000
  H   H31       1.0  0.035410462215409666  0.4999736949740877  0.6291834085598609  1.0000
  H   H32       1.0  0.964612733626886  0.500029489383394  0.3708147699457954  1.0000
  C   C1        1.0  0.6898602364344982  0.8498888710229839  0.8137743563514519  1.0000
  C   C2        1.0  0.3101370104598615  0.1501018023343406  0.1862216360254365  1.0000
  C   C3        1.0  0.5972686229823482  0.9406766397849825  0.8100107943412098  1.0000
  C   C4        1.0  0.4027290346249828  0.05931195177439722  0.18998629167871434  1.0000
  C   C5        1.0  0.6358317034063816  0.04670851026921241  0.7601964390293788  1.0000
  C   C6        1.0  0.36417008107334675  0.953286391941255  0.23980399836523247  1.0000
  C   C7        1.0  0.7661611433699563  0.060405013007383  0.713132567037981  1.0000
  C   C8        1.0  0.23384895152455  0.9395919897215994  0.2868704767349399  1.0000
  C   C9        1.0  0.8547334776174581  0.9659550579640951  0.722245419080366  1.0000
  C   C10       1.0  0.1452716057417902  0.03403983464548331  0.2777550651976242  1.0000
  C   C11       1.0  0.8101034756624514  0.16166193969365142  0.6566036235434539  1.0000
  C   C12       1.0  0.18990824033681974  0.8383403186267132  0.34340149185668883  1.0000
  C   C13       1.0  0.9343957457326515  0.16722818987717866  0.6106426335948074  1.0000
  C   C14       1.0  0.06562189175950552  0.8327719632565975  0.3893630577541813  1.0000
  C   C15       1.0  0.02853985847035291  0.07629741039641402  0.6201713698880269  1.0000
  C   C16       1.0  0.9714774725071892  0.9237016812770662  0.3798330729690775  1.0000
  C   C17       1.0  0.9901876209986825  0.9765451541937085  0.6766391659723682  1.0000
  C   C18       1.0  0.009825083861812802  0.023449760336738706  0.3233650026991768  1.0000
  C   C19       1.0  0.1608717767646581  0.08125775319161481  0.5757377269884643  1.0000
  C   C20       1.0  0.8391472795160055  0.9187434508150074  0.4242686326470277  1.0000
  C   C21       1.0  0.24840291562814812  0.993091363627663  0.590825288169583  1.0000
  C   C22       1.0  0.7516069769501  0.0069014343827831  0.4091763522626266  1.0000
  C   C23       1.0  0.20088211163729852  0.8975435896493097  0.6482265535781693  1.0000
  C   C24       1.0  0.7991180137955212  0.10244607913125492  0.35177359968871263  1.0000
  C   C25       1.0  0.10534679750606564  0.8999320672220464  0.919619427237386  1.0000
  C   C26       1.0  0.8946198682428418  0.10005240922711071  0.080375817863569  1.0000
  C   C27       1.0  0.2016275901132971  0.9278741786895353  0.9891766987755659  1.0000
  C   C28       1.0  0.7983388864532017  0.07212706073681123  0.010819377395137105  1.0000
  C   C29       1.0  0.2995186709571484  0.8467468869466115  0.9993377703773945  1.0000
  C   C30       1.0  0.7004551807717334  0.15326068307855686  0.0006640873840381986  1.0000
  C   C31       1.0  0.30595494180764865  0.7419180640955859  0.938108424128636  1.0000
  C   C32       1.0  0.6940236811980897  0.2580874334919302  0.06189637728650871  1.0000
  C   C33       1.0  0.20574263224796144  0.7226812876166238  0.8697306425761653  1.0000
  C   C34       1.0  0.7942436153201768  0.2773168248177172  0.13027151837765422  1.0000
  C   C35       1.0  0.4087615987348201  0.6574984476523298  0.9417308082564376  1.0000
  C   C36       1.0  0.5912308520325311  0.3425196109129161  0.05827719904805661  1.0000
  C   C37       1.0  0.4194576145284259  0.5652506848396472  0.8781875250401259  1.0000
  C   C38       1.0  0.5805439331986688  0.4347579257356601  0.1218207385733763  1.0000
  C   C39       1.0  0.32419286039237244  0.5472973035566825  0.8071230283520023  1.0000
  C   C40       1.0  0.6758102482637297  0.4527091924717583  0.1928839611996622  1.0000
  C   C41       1.0  0.21206422641533618  0.6207227692356201  0.8042644104036968  1.0000
  C   C42       1.0  0.7879380921900321  0.379277384379364  0.19573748715717446  1.0000
  C   C43       1.0  0.335459014665716  0.4583567513302428  0.7382653271852888  1.0000
  C   C44       1.0  0.6645600861240197  0.5416549143627664  0.2617403621559333  1.0000
  C   C45       1.0  0.23409618956263506  0.4422952574931785  0.6735659194184791  1.0000
  C   C46       1.0  0.7659295216335167  0.5577163816108949  0.326439267856351  1.0000
  C   C47       1.0  0.12027614775769285  0.5129467096614919  0.6779703791256821  1.0000
  C   C48       1.0  0.8797435438276722  0.487059686652387  0.32203267401074953  1.0000
  C   C49       1.0  0.7996328009499507  0.6319695979866324  0.5839941104740447  1.0000
  C   C50       1.0  0.2003781569021257  0.3680324640807696  0.415994901802847  1.0000
  C   C51       1.0  0.6434350226898075  0.5638023317062777  0.5411211401384365  1.0000
  C   C52       1.0  0.3565732462926903  0.43620494704358503  0.4588657104223373  1.0000
  C   C53       1.0  0.6130327468687398  0.43075994959536246  0.4993010277273343  1.0000
  C   C54       1.0  0.3869778291127518  0.5692577475045015  0.5006822046289372  1.0000
  C   C55       1.0  0.4709066449639039  0.3675865623173138  0.45873153272941647  1.0000
  C   C56       1.0  0.5291088287682583  0.6324289884733147  0.5412486849489184  1.0000
  C   C57       1.0  0.7703739023041365  0.4774669028412077  0.8693365608059054  1.0000
  C   C58       1.0  0.22961460775392345  0.522531166256748  0.1306626522376746  1.0000
  C   C59       1.0  0.8932440748068872  0.492470820648393  0.9355888631415115  1.0000
  C   C60       1.0  0.10674230225438212  0.5075241337533855  0.06441195129713152  1.0000
  C   C61       1.0  0.9897228543982238  0.405104897275507  0.9326171035027573  1.0000
  C   C62       1.0  0.010265605070308914  0.5948932013710789  0.06738449287348659  1.0000
  C   C63       1.0  0.09420609124309463  0.4119989687151461  0.9963229973630591  1.0000
  C   C64       1.0  0.905782368225438  0.5879991299314399  0.003678599013184706  1.0000
  N   N1        1.0  0.8155447891603699  0.8633445229978703  0.7718276508254647  1.0000
  N   N2        1.0  0.1844538765224968  0.1366472012323001  0.2281690098379343  1.0000
  N   N3        1.0  0.07470231618859914  0.8881303441536943  0.6890228412641335  1.0000
  N   N4        1.0  0.9253024480086438  0.11186349438273882  0.3109769903551509  1.0000
  N   N5        1.0  0.1054342940363355  0.7989158129332027  0.862353129520514  1.0000
  N   N6        1.0  0.8945432511318927  0.20107178215838672  0.1376430225403951  1.0000
  N   N7        1.0  0.11083122879772135  0.6005314544336999  0.7410918058115783  1.0000
  N   N8        1.0  0.8891738166193832  0.3994634603373442  0.2589104659659114  1.0000
  Cl  Cl1       1.0  0.7550782147404433  0.3474380028786613  0.49664315692826483  1.0000
  Cl  Cl2       1.0  0.24493309413532677  0.6525755823354302  0.5033464335462341  1.0000
  Cl  Cl3       1.0  0.434780798700629  0.20282672836319188  0.4076356853197325  1.0000
  Cl  Cl4       1.0  0.5652349592706969  0.7971868145010745  0.5923515843332865  1.0000
  Cl  Cl5       1.0  0.9786196901882749  0.2877686129189955  0.8491795322272395  1.0000
  Cl  Cl6       1.0  0.021371208791677445  0.7122336618840635  0.1508217112458183  1.0000
  Cl  Cl7       1.0  0.2108606934259996  0.3020589208172453  0.9899448684147032  1.0000
  Cl  Cl8       1.0  0.7891259238936712  0.6979402161415964  0.010055561865165409  1.0000
  O   O1        1.0  0.8033572422603044  0.6095842269013262  0.6574031562581838  1.0000
  O   O2        1.0  0.1966410001040515  0.3904052636008829  0.34258206992398504  1.0000
  O   O3        1.0  0.9042039955759337  0.6992987027915661  0.5433547509008817  1.0000
  O   O4        1.0  0.09581592668160968  0.3007044763924895  0.45664218905506  1.0000
  O   O5        1.0  0.7897169302909289  0.5752560525005634  0.8238804112329704  1.0000
  O   O6        1.0  0.2102710835836419  0.42473674303140285  0.1761155541448574  1.0000
  O   O7        1.0  0.6565846150846183  0.3713852334480238  0.8680529373838227  1.0000
  O   O8        1.0  0.34340166079758927  0.6286097800510149  0.13195264372014753  1.0000
