data_image0
_chemical_formula_structural       Bi2H12C28N4Cl2O8
_chemical_formula_sum              "Bi2 H12 C28 N4 Cl2 O8"
_cell_length_a       8.841560256109567
_cell_length_b       9.054443176965217
_cell_length_c       9.872791823735025
_cell_angle_alpha    111.15016039417836
_cell_angle_beta     115.35478671244368
_cell_angle_gamma    92.68049715330841

_space_group_name_H-M_alt    "P 1"
_space_group_IT_number       1

loop_
  _space_group_symop_operation_xyz
  'x, y, z'

loop_
  _atom_site_type_symbol
  _atom_site_label
  _atom_site_symmetry_multiplicity
  _atom_site_fract_x
  _atom_site_fract_y
  _atom_site_fract_z
  _atom_site_occupancy
  Bi  Bi1       1.0  0.3756289673651025  0.19226422677272126  0.4833601152193551  1.0000
  Bi  Bi2       1.0  0.6243717987267273  0.8077344209080052  0.5166402966625085  1.0000
  H   H1        1.0  0.9060468226111951  0.6081602331908512  0.9868051517508007  1.0000
  H   H2        1.0  0.09395173993922155  0.3918396267913308  0.0131927926613286  1.0000
  H   H3        1.0  0.654035815385342  0.7211090348918391  0.870533584925063  1.0000
  H   H4        1.0  0.3459630575115398  0.2788920445590506  0.12946487697018938  1.0000
  H   H5        1.0  0.5842504786862719  0.2750290520395281  0.9935974178123174  1.0000
  H   H6        1.0  0.41574808986751316  0.7249708140284027  0.006401543781528449  1.0000
  H   H7        1.0  0.5377750689839828  0.975472756993781  0.8702617702809619  1.0000
  H   H8        1.0  0.46222630579404717  0.024528317452876498  0.1297376422037217  1.0000
  H   H9        1.0  0.7889945775805102  0.5553255267711349  0.20793428533292505  1.0000
  H   H10       1.0  0.21100525392057531  0.4446743489661741  0.7920671859190733  1.0000
  H   H11       1.0  0.08585349284339826  0.7129624752349029  0.4354681309759484  1.0000
  H   H12       1.0  0.9141491388785637  0.28703860279538407  0.5645327739851709  1.0000
  C   C1        1.0  0.23266800179461458  0.785640497507046  0.23920543630392632  1.0000
  C   C2        1.0  0.7673327642972153  0.2143581501736803  0.7607949755779372  1.0000
  C   C3        1.0  0.0727848705407226  0.8458777223877759  0.17052619404957167  1.0000
  C   C4        1.0  0.9272133816632364  0.15412091812568463  0.8294712328794276  1.0000
  C   C5        1.0  0.9157705624457293  0.7389451488979759  0.03859741609917216  1.0000
  C   C6        1.0  0.08422894069880023  0.2610534891133724  0.9614004861245391  1.0000
  C   C7        1.0  0.7760064463457823  0.8025445609433602  0.9745312428826833  1.0000
  C   C8        1.0  0.22399243255446066  0.19745652459327795  0.02546823619428545  1.0000
  C   C9        1.0  0.7935910983106849  0.9731516360452582  0.041061261794545945  1.0000
  C   C10       1.0  0.20640747024310002  0.026848230022672195  0.9589376997992929  1.0000
  C   C11       1.0  0.9559201113668296  0.07099036559004898  0.17684125386425367  1.0000
  C   C12       1.0  0.04408001847399125  0.9290107174444696  0.8231587005074272  1.0000
  C   C13       1.0  0.9832634946825608  0.24552954451688444  0.24830677238416138  1.0000
  C   C14       1.0  0.01673757575237288  0.7544703165468076  0.7516931397991156  1.0000
  C   C15       1.0  0.8489196200455141  0.3196092784577259  0.18219834698884088  1.0000
  C   C16       1.0  0.1510814563927808  0.6803905886917148  0.8178025823761457  1.0000
  C   C17       1.0  0.6863761265638502  0.21779027455038857  0.045937829741788505  1.0000
  C   C18       1.0  0.3136236929305056  0.7822095890154229  0.9540616071467696  1.0000
  C   C19       1.0  0.6600840916637053  0.05155679311788928  0.9773994330395793  1.0000
  C   C20       1.0  0.3399160261703855  0.9484442777451388  0.0225984869686682  1.0000
  C   C21       1.0  0.8878211752337392  0.4919488690953101  0.2531147591023738  1.0000
  C   C22       1.0  0.11217865626734637  0.5080510066419989  0.7468867121496244  1.0000
  C   C23       1.0  0.05150922966527812  0.580154763359381  0.3794908297864976  1.0000
  C   C24       1.0  0.9484915424299203  0.4198438904070938  0.6205105992770826  1.0000
  C   C25       1.0  0.17604414330546092  0.49583988422680403  0.437920447666066  1.0000
  C   C26       1.0  0.8239556941989861  0.5041599975962467  0.562082040767649  1.0000
  C   C27       1.0  0.35900322622369163  0.5803008120140162  0.5735469966085843  1.0000
  C   C28       1.0  0.640999429511737  0.41970029035926604  0.4264579770794013  1.0000
  N   N1        1.0  0.0901567166517268  0.0067218509239311  0.2381947012431027  1.0000
  N   N2        1.0  0.9098418519020581  0.9932780151439925  0.761804260350743  1.0000
  N   N3        1.0  0.14047065796474095  0.3336494111559459  0.37398490216797586  1.0000
  N   N4        1.0  0.8595279165924126  0.6663504609977264  0.6260150766075865  1.0000
  Cl  Cl1       1.0  0.2570581316050848  0.1462291483951503  0.6626535086893242  1.0000
  Cl  Cl2       1.0  0.7429401326056038  0.8537695042898149  0.33734595260310835  1.0000
  O   O1        1.0  0.3687880578217744  0.8990914949682249  0.36058544526412817  1.0000
  O   O2        1.0  0.6312102123922756  0.10090716380248212  0.6394150332100282  1.0000
  O   O3        1.0  0.2306799764311691  0.6389361176019718  0.1804872341224523  1.0000
  O   O4        1.0  0.7693198370598253  0.3610637398780908  0.819511185584382  1.0000
  O   O5        1.0  0.4512161822984453  0.4938019560370748  0.6357807812583971  1.0000
  O   O6        1.0  0.5487870796711718  0.5061966805536713  0.3642195640311741  1.0000
  O   O7        1.0  0.409898629090712  0.7304163588765318  0.6147076699906504  1.0000
  O   O8        1.0  0.590103086050604  0.26958596546757707  0.3852973458857463  1.0000
