data_image0
_chemical_formula_structural       Ag4H24C44N4F16
_chemical_formula_sum              "Ag4 H24 C44 N4 F16"
_cell_length_a       10.20478643097639
_cell_length_b       10.494995204135565
_cell_length_c       10.889755294390284
_cell_angle_alpha    75.60033015683196
_cell_angle_beta     69.75494064001616
_cell_angle_gamma    86.00615357618736

_space_group_name_H-M_alt    "P 1"
_space_group_IT_number       1

loop_
  _space_group_symop_operation_xyz
  'x, y, z'

loop_
  _atom_site_type_symbol
  _atom_site_label
  _atom_site_symmetry_multiplicity
  _atom_site_fract_x
  _atom_site_fract_y
  _atom_site_fract_z
  _atom_site_occupancy
  Ag  Ag1       1.0  0.4999997619708196  0.49999960612532857  0.9999997717701347  1.0000
  Ag  Ag2       1.0  0.5709461136908304  0.7330426686080288  0.04313740209605753  1.0000
  Ag  Ag3       1.0  0.4290538143358945  0.26695745573697144  0.9568619419430318  1.0000
  Ag  Ag4       1.0  0.5000003355380258  1.2933963940003329e-07  0.9999993494473927  1.0000
  H   H1        1.0  0.9813668854821177  0.811484210604377  0.12577829331844714  1.0000
  H   H2        1.0  0.0186330239820478  0.18851492746122037  0.8742240472624586  1.0000
  H   H3        1.0  0.5553363617864308  0.8504121920234201  0.5488378273433339  1.0000
  H   H4        1.0  0.4446636043769346  0.14958989932772943  0.4511619526726988  1.0000
  H   H5        1.0  0.534823159149049  0.6365989900054884  0.35037400871528485  1.0000
  H   H6        1.0  0.46517674988160707  0.3634001504398229  0.6496255765539374  1.0000
  H   H7        1.0  0.6526145601686224  0.5162957577099478  0.511285372026215  1.0000
  H   H8        1.0  0.3473853869986741  0.4837053497415128  0.4887146492199576  1.0000
  H   H9        1.0  0.8749678859413523  0.39897357003362544  0.42216344051730903  1.0000
  H   H10       1.0  0.1250320612259443  0.6010275374178349  0.5778365807288564  1.0000
  H   H11       1.0  0.9694804383862204  0.40635465221276956  0.17462273152613506  1.0000
  H   H12       1.0  0.030520534240160702  0.5936454712084042  0.8253771921550949  1.0000
  H   H13       1.0  0.840700110732115  0.5355273232657893  0.026367733374840434  1.0000
  H   H14       1.0  0.15930086189426623  0.4644728001553846  0.9736321903063895  1.0000
  H   H15       1.0  0.8579083168665778  0.9038555818268965  0.8818631562992177  1.0000
  H   H16       1.0  0.14209267446686621  0.09614552708044505  0.11813468927741869  1.0000
  H   H17       1.0  0.05391534748272162  0.9430152803375765  0.6614975916658278  1.0000
  H   H18       1.0  0.9460856249991564  0.05698484387683318  0.33850141357817176  1.0000
  H   H19       1.0  0.04181483504263641  0.8363434586461056  0.4832040199339714  1.0000
  H   H20       1.0  0.9581850929840885  0.16365666569889473  0.5167953241051106  1.0000
  H   H21       1.0  0.8335885289030643  0.6913486459855563  0.5360698931921347  1.0000
  H   H22       1.0  0.16641141811972202  0.3086524622591398  0.4639292096168148  1.0000
  H   H23       1.0  0.6461086296170181  0.6629976906853656  0.7615790901424262  1.0000
  H   H24       1.0  0.35389131740577545  0.33700341755933044  0.23842001266652343  1.0000
  C   C1        1.0  0.35444813858187274  0.6514846562754999  0.04847642970176471  1.0000
  C   C2        1.0  0.645551789444852  0.3485154680695004  0.9515229143373176  1.0000
  C   C3        1.0  0.3068161466823369  0.7245420595093962  0.9467020792827795  1.0000
  C   C4        1.0  0.6931816924340739  0.2754580650967853  0.05329794234646817  1.0000
  C   C5        1.0  0.1749016365828453  0.7798322123288273  0.9728590970806719  1.0000
  C   C6        1.0  0.825096164830434  0.22016594289149793  0.027143243883315953  1.0000
  C   C7        1.0  0.08364585882740272  0.7665630865950419  0.10444541545192003  1.0000
  C   C8        1.0  0.9163519045937392  0.2334331008258985  0.8955574079723475  1.0000
  C   C9        1.0  0.12854161819920054  0.6942907648491145  0.20748261075669197  1.0000
  C   C10       1.0  0.8714582148471804  0.30570443999742025  0.7925179394330967  1.0000
  C   C11       1.0  0.26023374444688596  0.6388098232873534  0.1790952382482657  1.0000
  C   C12       1.0  0.739767190187358  0.36118833233443587  0.820905167893244  1.0000
  C   C13       1.0  0.5275321698135897  0.903004713472754  0.18595651555813217  1.0000
  C   C14       1.0  0.47246779620527246  0.09699737867163802  0.8140423460206702  1.0000
  C   C15       1.0  0.41084750384679586  0.8810218225843446  0.30354172974102056  1.0000
  C   C16       1.0  0.5891524433205008  0.11897928486711613  0.6964582915051523  1.0000
  C   C17       1.0  0.4195041322866332  0.8626844459155123  0.4318906174535541  1.0000
  C   C18       1.0  0.5804968783318857  0.1373176453050462  0.5681088237673961  1.0000
  C   C19       1.0  0.5482187410050159  0.8646833277014778  0.44895261700025196  1.0000
  C   C20       1.0  0.4517822124808007  0.13531581261323572  0.5510466294738875  1.0000
  C   C21       1.0  0.6662722809365677  0.8860283843313966  0.33346328718017293  1.0000
  C   C22       1.0  0.33372766623072186  0.11397272312005673  0.6665367340659998  1.0000
  C   C23       1.0  0.6545940115535062  0.903980971446231  0.2067210135253673  1.0000
  C   C24       1.0  0.3454059546098591  0.09602111990492548  0.7932787664906654  1.0000
  C   C25       1.0  0.6321058742454967  0.5851236783115397  0.3153405885509599  1.0000
  C   C26       1.0  0.36789407292179294  0.41487742913992065  0.6846594326952128  1.0000
  C   C27       1.0  0.697689342143832  0.5176179074506069  0.40464244431100854  1.0000
  C   C28       1.0  0.30231058588288573  0.4823822168943935  0.595356899728081  1.0000
  C   C29       1.0  0.821394079054258  0.45272312066097004  0.35476414271793283  1.0000
  C   C30       1.0  0.1786058681130385  0.5472779867904907  0.6452358785282328  1.0000
  C   C31       1.0  0.8744811928197082  0.457770410077167  0.21717406026488814  1.0000
  C   C32       1.0  0.12551979894725215  0.5422306964504671  0.7828265406234323  1.0000
  C   C33       1.0  0.8029820123427385  0.5289085102535084  0.13461047306635265  1.0000
  C   C34       1.0  0.19701793482455804  0.47109259719795205  0.8653895481798201  1.0000
  C   C35       1.0  0.856523744223871  0.8587089607477552  0.802493120237493  1.0000
  C   C36       1.0  0.1434772472540757  0.1412921473663502  0.19750564377636687  1.0000
  C   C37       1.0  0.9652238904327318  0.8807867436488904  0.6790124487180264  1.0000
  C   C38       1.0  0.034777101045214906  0.11921436446520771  0.3209863152958404  1.0000
  C   C39       1.0  0.9583457252589015  0.8209957791358922  0.580595843581271  1.0000
  C   C40       1.0  0.041655266363548514  0.1790053281849779  0.4194038388698118  1.0000
  C   C41       1.0  0.8429158776768517  0.7405557695060879  0.6096754608250023  1.0000
  C   C42       1.0  0.15708513279716393  0.2594463225077064  0.39032306195871763  1.0000
  C   C43       1.0  0.7385344791991529  0.7242723716684836  0.73522577172497  1.0000
  C   C44       1.0  0.2614665124232971  0.2757287356523861  0.2647739107261202  1.0000
  N   N1        1.0  0.6838656879246443  0.5921429492428489  0.1821783754921  1.0000
  N   N2        1.0  0.3161342590981491  0.4078581590018474  0.8178207273168425  1.0000
  N   N3        1.0  0.744616234073284  0.7817956619163625  0.8308859611025383  1.0000
  N   N4        1.0  0.2553847574046628  0.21820544619774307  0.1691128029113287  1.0000
  F   F1        1.0  0.30070938402632663  0.8438932681810629  0.5418053468590145  1.0000
  F   F2        1.0  0.6992905819925285  0.15610882396332934  0.45819351471978814  1.0000
  F   F3        1.0  0.777339033689806  0.9200519831983203  0.09864581359055075  1.0000
  F   F4        1.0  0.22266089433691147  0.07994814114668002  0.9013535304485387  1.0000
  F   F5        1.0  0.7952344505721598  0.886624715949232  0.3444768920275222  1.0000
  F   F6        1.0  0.2047654964506336  0.11337639229546426  0.65552221078142  1.0000
  F   F7        1.0  0.1338508194343859  0.846344579825754  0.8684768567246053  1.0000
  F   F8        1.0  0.8661480457191219  0.15365455757720528  0.13152674108860643  1.0000
  F   F9        1.0  0.2965191389689893  0.5693843070286136  0.2873337594889022  1.0000
  F   F10       1.0  0.7034839227122092  0.4306158153381361  0.7126664050393927  1.0000
  F   F11       1.0  0.279745289287284  0.8785681496827638  0.29594623666314124  1.0000
  F   F12       1.0  0.7202546580245156  0.12143295697546111  0.7040547030202617  1.0000
  F   F13       1.0  0.39055555031151107  0.7418461241235266  0.8142284000200701  1.0000
  F   F14       1.0  0.6094422508127622  0.2581520326832774  0.1857721040694572  1.0000
  F   F15       1.0  0.0425706214595891  0.677354055808948  0.33822050814027443  1.0000
  F   F16       1.0  0.9574280912918669  0.3226372127761651  0.6617822642023795  1.0000
