data_image0
_chemical_formula_structural       Al2H18C30Cl2O10
_chemical_formula_sum              "Al2 H18 C30 Cl2 O10"
_cell_length_a       6.624493202625767
_cell_length_b       11.159209911829793
_cell_length_c       17.59707831305102
_cell_angle_alpha    82.87532232811246
_cell_angle_beta     82.1922723381134
_cell_angle_gamma    71.21024398454533

_space_group_name_H-M_alt    "P 1"
_space_group_IT_number       1

loop_
  _space_group_symop_operation_xyz
  'x, y, z'

loop_
  _atom_site_type_symbol
  _atom_site_label
  _atom_site_symmetry_multiplicity
  _atom_site_fract_x
  _atom_site_fract_y
  _atom_site_fract_z
  _atom_site_occupancy
  Al  Al1       1.0  0.48606534379944577  0.5010977021745404  0.5020039419464053  1.0000
  Al  Al2       1.0  0.9862524217668637  0.5010457533243623  0.5002909590762241  1.0000
  H   H1        1.0  0.3011630558786038  0.3455587905157813  0.5430222890616461  1.0000
  H   H2        1.0  0.6681067166301633  0.6582283985678499  0.46501510733533263  1.0000
  H   H3        1.0  0.588072758729545  0.5856270752327433  0.2747132610490154  1.0000
  H   H4        1.0  0.6755548563057732  0.5840461786025556  0.13170844358590017  1.0000
  H   H5        1.0  0.07442032644109994  0.43380370886335834  0.2622310290087739  1.0000
  H   H6        1.0  0.908235635470952  0.576341904208064  0.7334165137722193  1.0000
  H   H7        1.0  0.3968197836982911  0.41738182350938746  0.7329734546406852  1.0000
  H   H8        1.0  0.3284089582328845  0.41909955468047133  0.8764619597695781  1.0000
  H   H9        1.0  0.22676278415677587  0.2347026276116821  0.3949016926509329  1.0000
  H   H10       1.0  0.4281375658824159  0.7658343343142774  0.40025396705091487  1.0000
  H   H11       1.0  0.7480017807554662  0.8863745259557232  0.5514529840483033  1.0000
  H   H12       1.0  0.6354399088086566  0.12345242238054506  0.5428526102678928  1.0000
  H   H13       1.0  0.7634942425808404  0.10408564171241613  0.32832543998508606  1.0000
  H   H14       1.0  0.5343264186563845  0.2381580122449307  0.3135921680096698  1.0000
  H   H15       1.0  0.6200680357263764  0.1173810887296156  0.2484931008204611  1.0000
  H   H16       1.0  0.7176062176724969  0.8829675887739228  0.25174390033893695  1.0000
  H   H17       1.0  0.7473135548112709  0.7535950650971159  0.3241882076969204  1.0000
  H   H18       1.0  0.8634940584406081  0.8746289301939923  0.33012948284028437  1.0000
  C   C1        1.0  0.8557303355488629  0.2758147607708423  0.4863642648148171  1.0000
  C   C2        1.0  0.6987921944384681  0.4924103429114694  0.6398485175591302  1.0000
  C   C3        1.0  0.12218149192465695  0.7281274397034848  0.50203226751114  1.0000
  C   C4        1.0  0.27611894986933544  0.512329322322742  0.3616255086372958  1.0000
  C   C5        1.0  0.3254984608294649  0.5109330238052506  0.276518339312922  1.0000
  C   C6        1.0  0.49598054871056946  0.5525326143075873  0.23992645161707313  1.0000
  C   C7        1.0  0.544726806758952  0.5512021579542007  0.16091871050106474  1.0000
  C   C8        1.0  0.42812595740991793  0.5053419678432362  0.1161429242352767  1.0000
  C   C9        1.0  0.2586189107498242  0.46188881868517484  0.15436127658663418  1.0000
  C   C10       1.0  0.20597190892621606  0.46628386252750426  0.23341574037932122  1.0000
  C   C11       1.0  0.48120478838504255  0.5035100654543568  0.03594761402957398  1.0000
  C   C12       1.0  0.5298399235058325  0.5039304870330527  0.9665235702627012  1.0000
  C   C13       1.0  0.5752937640633037  0.5017151258368883  0.8860401408158436  1.0000
  C   C14       1.0  0.7384546489199975  0.5472338558163798  0.8443660746897093  1.0000
  C   C15       1.0  0.7809622183409033  0.5426218358270702  0.765008392593401  1.0000
  C   C16       1.0  0.6571630069209959  0.49565032999043973  0.725147936783628  1.0000
  C   C17       1.0  0.4924969547770105  0.45219651174479464  0.7652259401926924  1.0000
  C   C18       1.0  0.45421094213436664  0.4536877495290952  0.8444983617486057  1.0000
  C   C19       1.0  0.930219965298086  0.13583146366301685  0.4807582963000384  1.0000
  C   C20       1.0  0.13352753645006737  0.0694642155709602  0.4425270180900183  1.0000
  C   C21       1.0  0.7919468589264513  0.0703260142703215  0.516344644569358  1.0000
  C   C22       1.0  0.2722283512169453  0.13147889249506764  0.3978390620984625  1.0000
  C   C23       1.0  0.4612762708533964  0.0656839033396466  0.3571028431288425  1.0000
  C   C24       1.0  0.05549635757116528  0.869219185867685  0.4889344199460267  1.0000
  C   C25       1.0  0.8545174466811929  0.9372738071886529  0.5209662789752583  1.0000
  C   C26       1.0  0.19527834665205993  0.9332320883039953  0.4457148306189394  1.0000
  C   C27       1.0  0.38761341276688904  0.8681806212824197  0.4021769299698902  1.0000
  C   C28       1.0  0.5202013312066641  0.9302428401342906  0.3590377105428003  1.0000
  C   C29       1.0  0.6012532662820363  0.1353899942021783  0.3095953008003675  1.0000
  C   C30       1.0  0.7220422044275877  0.85619475732161  0.31402244698329435  1.0000
  Cl  Cl1       1.0  0.11562301560274346  0.4023614687432796  0.10191172286885569  1.0000
  Cl  Cl2       1.0  0.8859373660000003  0.6097031921262895  0.8929900433967004  1.0000
  O   O1        1.0  0.6578234864434265  0.3332367751973067  0.47975385258332165  1.0000
  O   O2        1.0  0.8716677333839513  0.5105980245609699  0.6073558330204702  1.0000
  O   O3        1.0  0.9838793761944161  0.6740448771667998  0.4949332413051264  1.0000
  O   O4        1.0  0.4127035381889071  0.535551621036568  0.3972757730732183  1.0000
  O   O5        1.0  0.3113677130981429  0.6708268378905443  0.5200119965211198  1.0000
  O   O6        1.0  0.10364190214668417  0.49139754820976106  0.3923773584520943  1.0000
  O   O7        1.0  0.989937836184346  0.3283526651038144  0.500379868388478  1.0000
  O   O8        1.0  0.5574153399061289  0.47022987128953264  0.6060744718589176  1.0000
  O   O9        1.0  0.25842093619250767  0.43713763032072694  0.532806224925423  1.0000
  O   O10       1.0  0.7126738738991207  0.5659307044005075  0.46908519004931987  1.0000
