data_image0
_chemical_formula_structural       Zn4H36C48S4N4O16
_chemical_formula_sum              "Zn4 H36 C48 S4 N4 O16"
_cell_length_a       8.43865859922065
_cell_length_b       9.663858923794216
_cell_length_c       15.366830233008947
_cell_angle_alpha    89.99992580350509
_cell_angle_beta     90.00010558239072
_cell_angle_gamma    96.01239396849827

_space_group_name_H-M_alt    "P 1"
_space_group_IT_number       1

loop_
  _space_group_symop_operation_xyz
  'x, y, z'

loop_
  _atom_site_type_symbol
  _atom_site_label
  _atom_site_symmetry_multiplicity
  _atom_site_fract_x
  _atom_site_fract_y
  _atom_site_fract_z
  _atom_site_occupancy
  Zn  Zn1       1.0  0.03138239836518861  0.5791855323058499  0.0780061089671591  1.0000
  Zn  Zn2       1.0  0.4686154168347941  0.4208124543006305  0.5780041084065815  1.0000
  Zn  Zn3       1.0  0.968616032572811  0.4208140074632354  0.9219965774678515  1.0000
  Zn  Zn4       1.0  0.531384081168305  0.579186050442317  0.4219933720110519  1.0000
  H   H1        1.0  0.761590077903584  0.7305933063883714  0.7604230130613985  1.0000
  H   H2        1.0  0.7384130831434773  0.26940705533561266  0.2604196168542003  1.0000
  H   H3        1.0  0.2384165340743962  0.26940523112116205  0.239579022625847  1.0000
  H   H4        1.0  0.261589023358141  0.7305935413159546  0.7395778635638948  1.0000
  H   H5        1.0  0.6072180665492014  0.9157383163023595  0.7029204353439623  1.0000
  H   H6        1.0  0.8927883515096723  0.08426112360603358  0.2029205987204605  1.0000
  H   H7        1.0  0.39278973108698517  0.084260226670672  0.2970796480869993  1.0000
  H   H8        1.0  0.10721731197888568  0.9157394894291212  0.7970788339562986  1.0000
  H   H9        1.0  0.6735112448010909  0.136519519739899  0.9466210107315123  1.0000
  H   H10       1.0  0.8264879981367628  0.8634825698801195  0.4466211259912712  1.0000
  H   H11       1.0  0.32648493339821977  0.8634810496004945  0.0533790726927776  1.0000
  H   H12       1.0  0.1735141083679395  0.13651802676971408  0.5533783066837046  1.0000
  H   H13       1.0  0.8226232128879687  0.9472900320031454  0.0040197274528282  1.0000
  H   H14       1.0  0.6773733296295745  0.052711799033943386  0.5040183825600337  1.0000
  H   H15       1.0  0.17737308390137937  0.05271157782863159  0.9959816574756817  1.0000
  H   H16       1.0  0.3226239156399586  0.9472877352774205  0.49597974860833466  1.0000
  H   H17       1.0  0.5812904347229731  0.14384465260465623  0.6451918487083788  1.0000
  H   H18       1.0  0.9187075016054108  0.8561548517675702  0.1451927136462174  1.0000
  H   H19       1.0  0.418710248943455  0.8561538575989049  0.3548069332144266  1.0000
  H   H20       1.0  0.081289862256213  0.14384572303401905  0.8548080205309604  1.0000
  H   H21       1.0  0.32810509903502794  0.441072098883275  0.7692620803269677  1.0000
  H   H22       1.0  0.17189379382791972  0.5589297094557965  0.2692609852307513  1.0000
  H   H23       1.0  0.6718945175622012  0.55892744634874  0.2307393046040573  1.0000
  H   H24       1.0  0.828103688617574  0.4410719058406514  0.7307371459368923  1.0000
  H   H25       1.0  0.47726211774251937  0.7568929249561405  0.9303388378490569  1.0000
  H   H26       1.0  0.0227420258772  0.2431086186801963  0.4303384992780367  1.0000
  H   H27       1.0  0.5227412930124729  0.2431087176474307  0.06966124557844472  1.0000
  H   H28       1.0  0.9772624519490449  0.7568919888937626  0.5696602826458347  1.0000
  H   H29       1.0  0.4576234453364876  0.6408558121869772  0.8391990642092111  1.0000
  H   H30       1.0  0.042370569728909395  0.3591427284133957  0.3391966990611905  1.0000
  H   H31       1.0  0.5423701243683965  0.35914266524248006  0.16080362222378144  1.0000
  H   H32       1.0  0.9576241856290507  0.6408557544824589  0.6608007813540553  1.0000
  H   H33       1.0  0.5406867190973443  0.5883810073208905  0.938256641304406  1.0000
  H   H34       1.0  0.9593184257605856  0.4116211244885831  0.43825595549006385  1.0000
  H   H35       1.0  0.4593168102466549  0.41162167577463993  0.0617440928750241  1.0000
  H   H36       1.0  0.04068735631492609  0.5883805290396892  0.5617428264340419  1.0000
  C   C1        1.0  0.88222522763364  0.7096552591546867  0.9233402202594121  1.0000
  C   C2        1.0  0.6177677763695116  0.2903447635948737  0.4233314794126173  1.0000
  C   C3        1.0  0.1177697649167087  0.2903453047169932  0.0766676721917818  1.0000
  C   C4        1.0  0.38222697898434177  0.7096537193033042  0.5766633979934639  1.0000
  C   C5        1.0  0.8015733930709105  0.8271855959533098  0.8859498574749695  1.0000
  C   C6        1.0  0.6984244728163916  0.17281659613901468  0.3859471500482313  1.0000
  C   C7        1.0  0.19842646070330971  0.1728160302632062  0.1140521782076149  1.0000
  C   C8        1.0  0.30157395811237825  0.8271829436352788  0.6140496796161444  1.0000
  C   C9        1.0  0.7429660057979248  0.8205522653745447  0.8004357733881591  1.0000
  C   C10       1.0  0.7570372814690245  0.179448025167666  0.3004331196770451  1.0000
  C   C11       1.0  0.25703953910674937  0.17944730716574495  0.1995662622981271  1.0000
  C   C12       1.0  0.24296458785664038  0.8205504904988244  0.699564360741775  1.0000
  C   C13       1.0  0.6565511029380745  0.9243141997097554  0.7684785441707761  1.0000
  C   C14       1.0  0.8434519649363847  0.07568510718866857  0.2684780140079255  1.0000
  C   C15       1.0  0.3434531377152865  0.07568432687738637  0.23152219001069346  1.0000
  C   C16       1.0  0.15655239430187612  0.9243144598927487  0.7315207679163082  1.0000
  C   C17       1.0  0.6272397363611191  0.0380419592109718  0.8213173719486592  1.0000
  C   C18       1.0  0.872759941208514  0.961957237303416  0.3213174539893231  1.0000
  C   C19       1.0  0.37276094730530923  0.9619565509925888  0.1786814099741463  1.0000
  C   C20       1.0  0.12724216529721838  0.03804335934583489  0.6786826294379367  1.0000
  C   C21       1.0  0.6882961229579933  0.045461331310519895  0.9066173594471466  1.0000
  C   C22       1.0  0.8117031123777281  0.9545418699670235  0.40661738594214114  1.0000
  C   C23       1.0  0.3117013594916145  0.9545402839836041  0.0933833747296617  1.0000
  C   C24       1.0  0.18829780846774463  0.0454587212198874  0.59338334823682  1.0000
  C   C25       1.0  0.7746415667687713  0.9414170979165135  0.9381746212876791  1.0000
  C   C26       1.0  0.7253577681100225  0.0585860472236632  0.4381726844211968  1.0000
  C   C27       1.0  0.22535721993214958  0.05858556333077299  0.061827414393945915  1.0000
  C   C28       1.0  0.2746419670700604  0.9414145385037856  0.561825446748003  1.0000
  C   C29       1.0  0.5409645360788744  0.1491538397030396  0.7867037689636407  1.0000
  C   C30       1.0  0.9590411977871584  0.8508475266807805  0.2867046788705423  1.0000
  C   C31       1.0  0.4590411274086463  0.850846773332691  0.21329501296082753  1.0000
  C   C32       1.0  0.04096090871754399  0.1491530699690529  0.7132947538044334  1.0000
  C   C33       1.0  0.5298029847649274  0.19064419373237476  0.7013256965086612  1.0000
  C   C34       1.0  0.9701964328839026  0.8093562567347732  0.2013260005671071  1.0000
  C   C35       1.0  0.4701979360784918  0.8093563974556872  0.2986737361657107  1.0000
  C   C36       1.0  0.0298022352259579  0.1906453640217052  0.7986740828580068  1.0000
  C   C37       1.0  0.39569597943326323  0.35183888999293333  0.7634014754457681  1.0000
  C   C38       1.0  0.1043015906962239  0.648161882815991  0.26340219207909854  1.0000
  C   C39       1.0  0.6043036371629427  0.648160655239657  0.2365992587329657  1.0000
  C   C40       1.0  0.8956971959995597  0.35184077843418743  0.7365965898410709  1.0000
  C   C41       1.0  0.28712780959241974  0.5912011727583745  0.9431085214236887  1.0000
  C   C42       1.0  0.21287281731886049  0.40880033177931097  0.4431043356527482  1.0000
  C   C43       1.0  0.7128720441869375  0.4088004534552495  0.05689676802036561  1.0000
  C   C44       1.0  0.787129407767665  0.5912013053665389  0.5568911925081039  1.0000
  C   C45       1.0  0.4494446691482707  0.6483961613366347  0.9100842027271341  1.0000
  C   C46       1.0  0.05055703925324201  0.3516054074101334  0.4100818519441845  1.0000
  C   C47       1.0  0.5505575559485152  0.3516054758034243  0.089917832956651  1.0000
  C   C48       1.0  0.9494437629991167  0.6483941432871204  0.5899156284736762  1.0000
  S   S1        1.0  0.44299411103605013  0.2592758045527788  0.8521439761824041  1.0000
  S   S2        1.0  0.05700468751337698  0.740722734863567  0.3521445700500081  1.0000
  S   S3        1.0  0.5570053869711488  0.7407227001878524  0.1478561072443938  1.0000
  S   S4        1.0  0.9429961147420585  0.25927681583195294  0.6478548626247334  1.0000
  N   N1        1.0  0.449779889599533  0.30547666366402376  0.6892775816555885  1.0000
  N   N2        1.0  0.05022112228272137  0.6945252978851355  0.18927950765898066  1.0000
  N   N3        1.0  0.5502210312438862  0.6945239275240381  0.3107218510187835  1.0000
  N   N4        1.0  0.9497777830030998  0.3054784038564193  0.8107205757654086  1.0000
  O   O1        1.0  0.9338997047231103  0.724524089680642  0.0010992976059967  1.0000
  O   O2        1.0  0.5660930344166459  0.27547564918453565  0.5010944060683613  1.0000
  O   O3        1.0  0.0660941021608181  0.2754764687321583  0.9989053410831447  1.0000
  O   O4        1.0  0.433902195073685  0.7245165962184359  0.4989024235973574  1.0000
  O   O5        1.0  0.8900588227900101  0.6027942714513159  0.8755210368485464  1.0000
  O   O6        1.0  0.609933674606296  0.3972027148885502  0.3755128521818989  1.0000
  O   O7        1.0  0.10993439115914329  0.3972010844958902  0.1244868556038625  1.0000
  O   O8        1.0  0.3900622664098634  0.6027957734708167  0.6244826759770632  1.0000
  O   O9        1.0  0.24810041199046398  0.6297019824139198  0.0187968496659039  1.0000
  O   O10       1.0  0.25190444898748854  0.37029718278912327  0.5187920685615168  1.0000
  O   O11       1.0  0.7519026430087975  0.3702965387074002  0.9812084397810212  1.0000
  O   O12       1.0  0.7481008587289111  0.6297003087730386  0.481202158097986  1.0000
  O   O13       1.0  0.20146515723478592  0.5075973898154302  0.8940398370446163  1.0000
  O   O14       1.0  0.2985330621566575  0.4924052315824666  0.3940356698327463  1.0000
  O   O15       1.0  0.7985324438079288  0.4924052659683439  0.1059641508932927  1.0000
  O   O16       1.0  0.70146584312198  0.5075984701631385  0.6059598583255976  1.0000
