data_image0
_chemical_formula_structural       Zn4H8C16O16
_chemical_formula_sum              "Zn4 H8 C16 O16"
_cell_length_a       10.9527014960022
_cell_length_b       10.884733314198241
_cell_length_c       10.992171551113785
_cell_angle_alpha    98.40491001642131
_cell_angle_beta     99.84995037740815
_cell_angle_gamma    90.97680348756265

_space_group_name_H-M_alt    "P 1"
_space_group_IT_number       1

loop_
  _space_group_symop_operation_xyz
  'x, y, z'

loop_
  _atom_site_type_symbol
  _atom_site_label
  _atom_site_symmetry_multiplicity
  _atom_site_fract_x
  _atom_site_fract_y
  _atom_site_fract_z
  _atom_site_occupancy
  Zn  Zn1       1.0  0.6082865020357744  0.39631352210462717  0.6021332698478546  1.0000
  Zn  Zn2       1.0  0.42370627734292293  0.6223331866447379  0.6099212984855313  1.0000
  Zn  Zn3       1.0  0.37420640666710625  0.39796167359111223  0.3755206037143708  1.0000
  Zn  Zn4       1.0  0.6084746196065183  0.5856467080242567  0.41126179123254764  1.0000
  H   H1        1.0  0.015981315323124096  0.40488154275271865  0.5976091400359209  1.0000
  H   H2        1.0  0.9907942338289643  0.6041398409211071  0.4216391879287968  1.0000
  H   H3        1.0  0.26124448923906135  0.0238895794721969  0.34659833463121  1.0000
  H   H4        1.0  0.6562546377504717  0.0759513601638417  0.6888163339376163  1.0000
  H   H5        1.0  0.28962381803071935  0.3440820696026279  0.9919095174292636  1.0000
  H   H6        1.0  0.7062898988366227  0.6334090358691711  0.9677889850047805  1.0000
  H   H7        1.0  0.626583106755426  0.6837474538295254  0.09426539511510157  1.0000
  H   H8        1.0  0.7163381351991873  0.5522315857743365  0.0995987965588014  1.0000
  C   C1        1.0  0.5336286738274723  0.8288262663671659  0.5153640148459006  1.0000
  C   C2        1.0  0.9728812485023397  0.47045429005815  0.5390042449320376  1.0000
  C   C3        1.0  0.03790802159321059  0.538695397769473  0.478393949411668  1.0000
  C   C4        1.0  0.4487576385313119  0.029820660268214307  0.4588627494589232  1.0000
  C   C5        1.0  0.33392545196759477  0.9635006758987074  0.3854821547854215  1.0000
  C   C6        1.0  0.6608421757702702  0.028471634899347002  0.5931087879897916  1.0000
  C   C7        1.0  0.3544819855474231  0.38881888710947266  0.9428178238279658  1.0000
  C   C8        1.0  0.6548523067628552  0.6021823295709865  0.035686454723396786  1.0000
  C   C9        1.0  0.5404673767190146  0.9672963168818712  0.5187213366856369  1.0000
  C   C10       1.0  0.4603243593443693  0.4623604027406643  0.02438154999534702  1.0000
  C   C11       1.0  0.5433452641557962  0.522055507448357  0.9712369422395142  1.0000
  C   C12       1.0  0.463163279833239  0.16732106027092897  0.4662568741254489  1.0000
  C   C13       1.0  0.5279347750359591  0.5127028118949611  0.8313366343686965  1.0000
  C   C14       1.0  0.4706801077647498  0.4687237160970382  0.16196411622579623  1.0000
  C   C15       1.0  0.17437860523796192  0.5307180692657312  0.48324308284852446  1.0000
  C   C16       1.0  0.8370824459728395  0.4803920705467988  0.529072705149666  1.0000
  O   O1        1.0  0.5008834605339203  0.49930928557215976  0.5000291245430617  1.0000
  O   O2        1.0  0.24261961705262547  0.6080736836350198  0.5658683040444714  1.0000
  O   O3        1.0  0.7831899810835806  0.5520897442092049  0.45622582214783586  1.0000
  O   O4        1.0  0.20807231824261407  0.448199565118678  0.40267158982076984  1.0000
  O   O5        1.0  0.7847063755848751  0.4150536485371673  0.5949338867459559  1.0000
  O   O6        1.0  0.31862952408443596  0.8499805131174155  0.369293188816286  1.0000
  O   O7        1.0  0.7574247724447218  0.015944936250846798  0.5526640572476609  1.0000
  O   O8        1.0  0.33745247133166606  0.37717803877715267  0.8281079023233175  1.0000
  O   O9        1.0  0.5890688944903032  0.4290766489601694  0.7782157036479163  1.0000
  O   O10       1.0  0.5612444448483772  0.53398172520194  0.23077091866655763  1.0000
  O   O11       1.0  0.48536615477731715  0.7922101519507195  0.6017395539024619  1.0000
  O   O12       1.0  0.3809856163555949  0.22024952948253673  0.3977961989303296  1.0000
  O   O13       1.0  0.5877224158501447  0.766478129198006  0.4353847077173967  1.0000
  O   O14       1.0  0.5583387831296349  0.2196856788549724  0.5406155247046556  1.0000
  O   O15       1.0  0.4713839079569411  0.6009825748442523  0.7857368404369254  1.0000
  O   O16       1.0  0.38793471461134743  0.40756688119982704  0.20090795973133882  1.0000
