data_image0
_chemical_formula_structural       Zn4H32C76Br8N8Cl8O16
_chemical_formula_sum              "Zn4 H32 C76 Br8 N8 Cl8 O16"
_cell_length_a       21.51277590814
_cell_length_b       21.684701779709563
_cell_length_c       21.76214922823783
_cell_angle_alpha    60.15965415223653
_cell_angle_beta     63.75161974957121
_cell_angle_gamma    90.02422699838246

_space_group_name_H-M_alt    "P 1"
_space_group_IT_number       1

loop_
  _space_group_symop_operation_xyz
  'x, y, z'

loop_
  _atom_site_type_symbol
  _atom_site_label
  _atom_site_symmetry_multiplicity
  _atom_site_fract_x
  _atom_site_fract_y
  _atom_site_fract_z
  _atom_site_occupancy
  Zn  Zn1       1.0  0.5502154134575932  0.04792024091138099  0.9038747005520237  1.0000
  Zn  Zn2       1.0  0.458824416903056  0.9557538526926163  0.08817005209394324  1.0000
  Zn  Zn3       1.0  0.9709209767840434  0.4557773709857782  0.0888648029344026  1.0000
  Zn  Zn4       1.0  0.03201063056597762  0.54072355554144  0.916010612393194  1.0000
  H   H1        1.0  0.8269351240090118  0.3901764097035282  0.2149358148068005  1.0000
  H   H2        1.0  0.7472021038857406  0.31091384761170093  0.37029777491752475  1.0000
  H   H3        1.0  0.5936449436886662  0.19596200744528142  0.6004284151409893  1.0000
  H   H4        1.0  0.7884650165080344  0.21038028719803484  0.6109935920737188  1.0000
  H   H5        1.0  0.17600519679054114  0.6036154713583811  0.787459547870313  1.0000
  H   H6        1.0  0.2554551293109312  0.6828705951318877  0.6317907092486906  1.0000
  H   H7        1.0  0.404597856786367  0.7662367708994252  0.4007231884673175  1.0000
  H   H8        1.0  0.21427277123392222  0.8172683047107935  0.3899989502640154  1.0000
  H   H9        1.0  0.7109198358561314  0.3039569134435495  0.9192620198995485  1.0000
  H   H10       1.0  0.7051931931578608  0.20556665609063166  0.158813677354914  1.0000
  H   H11       1.0  0.9080545520534358  0.41404310164252667  0.8951562408092079  1.0000
  H   H12       1.0  0.8265736432226518  0.3345946124416698  0.8932492171138692  1.0000
  H   H13       1.0  0.6116817277473601  0.03506690662598539  0.13669329899595792  1.0000
  H   H14       1.0  0.6949170203946479  0.11444969471919113  0.13693888269705914  1.0000
  H   H15       1.0  0.3739837769940875  0.8059453010089538  0.8853018392891203  1.0000
  H   H16       1.0  0.12931476233246283  0.7119394271138546  0.09794677930798211  1.0000
  H   H17       1.0  0.23132409428539794  0.6810449946745932  0.8653866767969447  1.0000
  H   H18       1.0  0.3104270313916544  0.7581989877589093  0.8701716577878215  1.0000
  H   H19       1.0  0.27119723062561707  0.8418306705533565  0.11414284059042497  1.0000
  H   H20       1.0  0.18987343933479645  0.7730480180828464  0.10347569327383609  1.0000
  H   H21       1.0  0.37433257292195776  0.3236926882962052  0.8461438161279489  1.0000
  H   H22       1.0  0.1425226091476546  0.19039342956573074  0.050925611307789595  1.0000
  H   H23       1.0  0.2307945350448363  0.4629677221726422  0.9013092658510262  1.0000
  H   H24       1.0  0.3193820829716926  0.3897847077282534  0.8946965315088209  1.0000
  H   H25       1.0  0.3082544286215025  0.07130988139197568  0.088071187235343  1.0000
  H   H26       1.0  0.21869545419269795  0.14354306850182036  0.09418372699811073  1.0000
  H   H27       1.0  0.7476415121994575  0.7969510072650859  0.8834927386251369  1.0000
  H   H28       1.0  0.6962184044984665  0.6356447382061317  0.14185761392064242  1.0000
  H   H29       1.0  0.9306207295971375  0.7007776622500257  0.8978322533559366  1.0000
  H   H30       1.0  0.8543833003389166  0.7872813957180254  0.8840478825460993  1.0000
  H   H31       1.0  0.6037018108148189  0.8324076362540537  0.10793623646517155  1.0000
  H   H32       1.0  0.6822882696591248  0.7485085571801232  0.12465774600124757  1.0000
  C   C1        1.0  0.41113775270282094  0.9113774471747574  0.01351936708020658  1.0000
  C   C2        1.0  0.4383864044063229  0.1038506709963372  0.9694000170964615  1.0000
  C   C3        1.0  0.5723745250126697  0.07005315298203388  0.026517928373209477  1.0000
  C   C4        1.0  0.5886719754668163  0.9185045100783001  0.9819280956682092  1.0000
  C   C5        1.0  0.08803810099156806  0.41712569485437706  0.9884483493622016  1.0000
  C   C6        1.0  0.09445973646757005  0.5978244315175303  0.9766669102900707  1.0000
  C   C7        1.0  0.9093567275883885  0.5734294275797325  0.026125799741300988  1.0000
  C   C8        1.0  0.9073894013796888  0.4078464907169986  0.01855727037967373  1.0000
  C   C9        1.0  0.8491254982436729  0.37042734365650176  0.2554605736213774  1.0000
  C   C10       1.0  0.8058440353212006  0.3274356967744508  0.34016739354743925  1.0000
  C   C11       1.0  0.8387736595954535  0.30437430557912387  0.3879606165238345  1.0000
  C   C12       1.0  0.9146708190574343  0.32543540470401666  0.3484184944068078  1.0000
  C   C13       1.0  0.9546546454747115  0.3686117145920632  0.26158732154672754  1.0000
  C   C14       1.0  0.6212007095679725  0.18157465398487452  0.6351490547986884  1.0000
  C   C15       1.0  0.6961413801960319  0.20787975600851635  0.5950076717501249  1.0000
  C   C16       1.0  0.7302461444529057  0.18956883770906063  0.6411079273099036  1.0000
  C   C17       1.0  0.686836970011214  0.14528063212839018  0.7263473301759833  1.0000
  C   C18       1.0  0.5831126312104686  0.13525799624308374  0.7209454377237281  1.0000
  C   C19       1.0  0.1536305949455396  0.6236987716401072  0.7471152616568448  1.0000
  C   C20       1.0  0.19676361091974556  0.666628939507731  0.6622364842645683  1.0000
  C   C21       1.0  0.16348171729549674  0.6906119005796397  0.6147980751941874  1.0000
  C   C22       1.0  0.08758465506546285  0.6696449052533281  0.6549299157429473  1.0000
  C   C23       1.0  0.04797535999007601  0.6258115614968529  0.7417228052952682  1.0000
  C   C24       1.0  0.37862575040107055  0.7956879919871652  0.3660872403617503  1.0000
  C   C25       1.0  0.30427451762624697  0.785955132720481  0.40632216276289046  1.0000
  C   C26       1.0  0.27211840065618986  0.8240605643757133  0.3601484814819075  1.0000
  C   C27       1.0  0.31688764559120125  0.8701824963499403  0.27509433732998184  1.0000
  C   C28       1.0  0.4181976666786794  0.844625196428204  0.28051818621641894  1.0000
  C   C29       1.0  0.6175141073586872  0.12276507171170435  0.02652842365599637  1.0000
  C   C30       1.0  0.8541713390896035  0.35581635285217317  0.02605281470422941  1.0000
  C   C31       1.0  0.6461239246164395  0.19929964986704357  0.9653788865436611  1.0000
  C   C32       1.0  0.6914259621688926  0.24463075659365072  0.9661390271422192  1.0000
  C   C33       1.0  0.7963059914652675  0.2954627186701586  0.1003922528406349  1.0000
  C   C34       1.0  0.7499754305628201  0.25069994207808577  0.09999246302346894  1.0000
  C   C35       1.0  0.862699220432006  0.36811663664103367  0.9525253374289662  1.0000
  C   C36       1.0  0.8168253462997511  0.3238489092798318  0.9517868262744146  1.0000
  C   C37       1.0  0.6347419166507251  0.09421285216542687  0.08879625488698657  1.0000
  C   C38       1.0  0.6805754252990255  0.13892890343823436  0.08927169869460283  1.0000
  C   C39       1.0  0.7100422861683525  0.21517507726040458  0.027358690294150372  1.0000
  C   C40       1.0  0.7592716182693594  0.2638051731893327  0.026181465577948766  1.0000
  C   C41       1.0  0.36680593208512846  0.8656903867932041  0.005468191782426942  1.0000
  C   C42       1.0  0.13740243223956838  0.6502624921999639  0.9790437843400497  1.0000
  C   C43       1.0  0.3944428600256059  0.8542182172094069  0.9412508451276482  1.0000
  C   C44       1.0  0.3490840325276209  0.8140830750292306  0.9354301990813668  1.0000
  C   C45       1.0  0.10982993248989453  0.661285656499153  0.043567355450953464  1.0000
  C   C46       1.0  0.1539221812051962  0.7056972337989077  0.046405746551016765  1.0000
  C   C47       1.0  0.20986970579735237  0.6878420106115825  0.9166739415035609  1.0000
  C   C48       1.0  0.25424267134031436  0.7314390158276038  0.9197864194899737  1.0000
  C   C49       1.0  0.29259767643642925  0.8343002529410268  0.06338483590882758  1.0000
  C   C50       1.0  0.24716639044741112  0.7952082108234108  0.0570675054911333  1.0000
  C   C51       1.0  0.2744655618481389  0.7840824795899691  0.9925074879465401  1.0000
  C   C52       1.0  0.2274620375593273  0.7405416478712467  0.9857930966568206  1.0000
  C   C53       1.0  0.3905073326195064  0.15450064020963333  0.9654951970044865  1.0000
  C   C54       1.0  0.13749612626988744  0.368943693640368  0.9827877701840608  1.0000
  C   C55       1.0  0.40839321539684187  0.22700864530870746  0.8976006226360771  1.0000
  C   C56       1.0  0.3585081016084927  0.26826614593650067  0.9004253146257639  1.0000
  C   C57       1.0  0.11362011299403456  0.29145875581297526  0.02508085609155593  1.0000
  C   C58       1.0  0.16302924408170577  0.25002937652257623  0.0194268242523279  1.0000
  C   C59       1.0  0.21228143896459523  0.4028446254214727  0.9344850092756475  1.0000
  C   C60       1.0  0.26172919272425327  0.36177727159454764  0.9300823446127994  1.0000
  C   C61       1.0  0.321185292160031  0.12665160402092818  0.03515299543195032  1.0000
  C   C62       1.0  0.2713463506497433  0.16713188384455438  0.03815378691302135  1.0000
  C   C63       1.0  0.28939157948708066  0.2393806791115621  0.9702448664282457  1.0000
  C   C64       1.0  0.23774652196060225  0.2842239573702797  0.9729024639871326  1.0000
  C   C65       1.0  0.6337562932531355  0.865141959499894  0.9864010875431578  1.0000
  C   C66       1.0  0.858847987064337  0.6212302920630391  0.026385588696278477  1.0000
  C   C67       1.0  0.6752266648100828  0.8541786295040479  0.9231525688239448  1.0000
  C   C68       1.0  0.7179590430029845  0.8055680982258976  0.9327723084738228  1.0000
  C   C69       1.0  0.7924499657599708  0.6044668733457212  0.0952435735667976  1.0000
  C   C70       1.0  0.7483900847753941  0.651871222821377  0.08781058569681487  1.0000
  C   C71       1.0  0.8790538875836731  0.6877468658589334  0.9509173995020961  1.0000
  C   C72       1.0  0.8359602259116201  0.7354233387029224  0.94330931863761  1.0000
  C   C73       1.0  0.6366580248372384  0.8244651985869705  0.0588944703294346  1.0000
  C   C74       1.0  0.6797441438276904  0.7769084735916746  0.06841120544884666  1.0000
  C   C75       1.0  0.7218114145453356  0.7670633861775683  0.004642085393328516  1.0000
  C   C76       1.0  0.7691568861019674  0.7177703650460499  0.012006810792605972  1.0000
  Br  Br1       1.0  0.05611136126863407  0.3969319504436654  0.20440488591038533  1.0000
  Br  Br2       1.0  0.9603554991692818  0.29797320327679694  0.4107946682475119  1.0000
  Br  Br3       1.0  0.482692687106848  0.09634510662495188  0.7729621777186325  1.0000
  Br  Br4       1.0  0.7330098755853669  0.12460093842967267  0.7878404740829552  1.0000
  Br  Br5       1.0  0.9463594270309486  0.5972328073936237  0.7992547969326439  1.0000
  Br  Br6       1.0  0.04200793781802753  0.6981477948807393  0.5923844991235825  1.0000
  Br  Br7       1.0  0.5191420133370385  0.8587672649537621  0.22871275412911984  1.0000
  Br  Br8       1.0  0.27261926303072664  0.9215067079957819  0.2137010901426422  1.0000
  N   N1        1.0  0.922111043732002  0.3902982413203516  0.21725580093966101  1.0000
  N   N2        1.0  0.7997623923513685  0.2578040157229466  0.47484458049591904  1.0000
  N   N3        1.0  0.7336756321186471  0.2548917516875732  0.5078472205759682  1.0000
  N   N4        1.0  0.6143989556655995  0.11735656026637997  0.7669124218988727  1.0000
  N   N5        1.0  0.08065758052590863  0.6038958357496751  0.7859666880859921  1.0000
  N   N6        1.0  0.20238674525402434  0.7392370753638103  0.5281314130378831  1.0000
  N   N7        1.0  0.2657247995521458  0.7351731170766055  0.49335646239406133  1.0000
  N   N8        1.0  0.3888856255117472  0.8810944782888152  0.2344201365393348  1.0000
  Cl  Cl1       1.0  0.6233161707799297  0.24149959975556354  0.8898270307120769  1.0000
  Cl  Cl2       1.0  0.7777672113788228  0.2703318887349866  0.1972519525780428  1.0000
  Cl  Cl3       1.0  0.4858412170307814  0.8845130818674461  0.8695893677205219  1.0000
  Cl  Cl4       1.0  0.01964158763836813  0.6231126454665981  0.12054297573848761  1.0000
  Cl  Cl5       1.0  0.4919946442529621  0.2714529218736458  0.8075037321001448  1.0000
  Cl  Cl6       1.0  0.022688013382307276  0.2442826973764624  0.08249546309347272  1.0000
  Cl  Cl7       1.0  0.6748593511429704  0.8966067827231257  0.8316784923669688  1.0000
  Cl  Cl8       1.0  0.7587716167770964  0.523540912774031  0.19197784760835662  1.0000
  O   O1        1.0  0.4604005280248558  0.9682979294695356  0.9477205380827342  1.0000
  O   O2        1.0  0.39380826087398185  0.8904591623797129  0.08681413923972775  1.0000
  O   O3        1.0  0.4195644900693906  0.04714149793478129  0.04032901894476741  1.0000
  O   O4        1.0  0.49288592935841535  0.12048489141213281  0.9015802836123612  1.0000
  O   O5        1.0  0.5193134989486837  0.018434152223193192  0.09657083826297709  1.0000
  O   O6        1.0  0.5916876541620296  0.07919626131847217  0.9579594038553197  1.0000
  O   O7        1.0  0.6049999543799983  0.972807914908685  0.9104260425491052  1.0000
  O   O8        1.0  0.5392756247851194  0.9062849751774136  0.05015858714654108  1.0000
  O   O9        1.0  0.035227561983972984  0.3939451400107927  0.05956547452664294  1.0000
  O   O10       1.0  0.10469984793825654  0.47847128985420523  0.9215826090348429  1.0000
  O   O11       1.0  0.10026953839011542  0.6178980160909544  0.9081297432261907  1.0000
  O   O12       1.0  0.05693718843867397  0.5356053157419324  0.04454520477193573  1.0000
  O   O13       1.0  0.9505465984191586  0.5831127671741142  0.9561712524304229  1.0000
  O   O14       1.0  0.9086807509817659  0.5287316976859557  0.0922587502530376  1.0000
  O   O15       1.0  0.8947331416925832  0.40505286398924045  0.08281956509338077  1.0000
  O   O16       1.0  0.9619792114238734  0.4522288006769343  0.9465815746255049  1.0000
