data_image0
_chemical_formula_structural       Co4P4H16C20N4O12
_chemical_formula_sum              "Co4 P4 H16 C20 N4 O12"
_cell_length_a       5.113753218157148
_cell_length_b       8.444130015269462
_cell_length_c       14.998100715017427
_cell_angle_alpha    89.9999447347528
_cell_angle_beta     90.00017079814383
_cell_angle_gamma    94.32181246543838

_space_group_name_H-M_alt    "P 1"
_space_group_IT_number       1

loop_
  _space_group_symop_operation_xyz
  'x, y, z'

loop_
  _atom_site_type_symbol
  _atom_site_label
  _atom_site_symmetry_multiplicity
  _atom_site_fract_x
  _atom_site_fract_y
  _atom_site_fract_z
  _atom_site_occupancy
  Co  Co1       1.0  0.787171736227606  0.5187212593786156  0.7013243934259279  1.0000
  Co  Co2       1.0  0.7128293732256878  0.9812794558244845  0.2013249179942704  1.0000
  Co  Co3       1.0  0.21282874656464665  0.4812789695768841  0.29867512698019977  1.0000
  Co  Co4       1.0  0.28716915527834896  0.0187207824495204  0.7986752691619399  1.0000
  P   P1        1.0  0.7367868397466638  0.8033212464428915  0.8362707090172703  1.0000
  P   P2        1.0  0.7632150938593938  0.6966769192829005  0.336270775881168  1.0000
  P   P3        1.0  0.2632134799216317  0.19667779491754087  0.1637288113890989  1.0000
  P   P4        1.0  0.23678522580890166  0.3033221220775247  0.6637287445252011  1.0000
  H   H1        1.0  0.8601148951995583  0.9371196400473564  0.015012748216165099  1.0000
  H   H2        1.0  0.6398867433827604  0.562882494059231  0.5150133820293376  1.0000
  H   H3        1.0  0.13988200525565023  0.062882982736582  0.9849861054363769  1.0000
  H   H4        1.0  0.3601140656602411  0.43712011008597773  0.4849868051273915  1.0000
  H   H5        1.0  0.2664462152407339  0.6099613838183443  0.8989231216024436  1.0000
  H   H6        1.0  0.23355519849592812  0.8900350230428772  0.398921717614975  1.0000
  H   H7        1.0  0.7335501958539794  0.39003767617865753  0.10107839905519  1.0000
  H   H8        1.0  0.7664470754577409  0.10996400899948361  0.6010764692902197  1.0000
  H   H9        1.0  0.06500860753854451  0.5832642660102678  0.05286523228947  1.0000
  H   H10       1.0  0.4349921366319336  0.9167349536668469  0.5528639719372349  1.0000
  H   H11       1.0  0.9349917121411196  0.41673477534844483  0.9471369551212587  1.0000
  H   H12       1.0  0.5650083461546345  0.0832652752895129  0.4471342149667095  1.0000
  H   H13       1.0  0.2612713399184727  0.7439957605552506  0.1766809656266091  1.0000
  H   H14       1.0  0.23873290343576056  0.7560068526753979  0.6766809269376494  1.0000
  H   H15       1.0  0.738731097173364  0.2560044590800317  0.8233205550337884  1.0000
  H   H16       1.0  0.7612698598926217  0.24399574215174621  0.3233179267178983  1.0000
  C   C1        1.0  0.6852361383482305  0.8564953270073585  0.0195872602977119  1.0000
  C   C2        1.0  0.8147632586872291  0.643504435320665  0.5195866949024079  1.0000
  C   C3        1.0  0.31476043586759067  0.1435049205851442  0.9804135936085883  1.0000
  C   C4        1.0  0.18523738723182254  0.3564969812294764  0.48041349225456287  1.0000
  C   C5        1.0  0.5843028590053053  0.7746705230925243  0.9450697483123847  1.0000
  C   C6        1.0  0.9157040738016774  0.725328671073825  0.4450686218216687  1.0000
  C   C7        1.0  0.4156976237926316  0.22532970586211576  0.0549311055959194  1.0000
  C   C8        1.0  0.08429836327879062  0.2746715485631768  0.5549302318343692  1.0000
  C   C9        1.0  0.355111600911748  0.673911524676015  0.9559543704986666  1.0000
  C   C10       1.0  0.1448881815976861  0.8260836302509987  0.45595357794175567  1.0000
  C   C11       1.0  0.6448848101829654  0.3260875353209868  0.0440471501589741  1.0000
  C   C12       1.0  0.8551119749438171  0.17391422351479238  0.5440452757137704  1.0000
  C   C13       1.0  0.2406989144077585  0.660543009648947  0.0401716935255649  1.0000
  C   C14       1.0  0.25930563013606195  0.8394562077840745  0.5401709629504624  1.0000
  C   C15       1.0  0.7592997772173931  0.33945841622055895  0.9598278268793122  1.0000
  C   C16       1.0  0.7406989243594212  0.1605451901290706  0.4598278907063359  1.0000
  C   C17       1.0  0.35186477624957757  0.7484230686705047  0.1108820126729526  1.0000
  C   C18       1.0  0.14813662563641117  0.7515772636704339  0.6108818837504727  1.0000
  C   C19       1.0  0.6481339153841007  0.25157835719770816  0.8891195079851925  1.0000
  C   C20       1.0  0.8518658114468992  0.24842295596613442  0.3891176366566498  1.0000
  N   N1        1.0  0.5719695094890085  0.8453596180549708  0.10084549428281517  1.0000
  N   N2        1.0  0.9280289522241958  0.6546424238340266  0.6008457053538336  1.0000
  N   N3        1.0  0.428029182136143  0.1546418078145351  0.8991540261220619  1.0000
  N   N4        1.0  0.07196990252207063  0.34536018963097354  0.3991531482997033  1.0000
  O   O1        1.0  0.8298957438143475  0.6412050849121513  0.809178037711227  1.0000
  O   O2        1.0  0.6701041676645972  0.8587943127183806  0.3091785863529424  1.0000
  O   O3        1.0  0.17010278468968926  0.3587951533618536  0.1908221494449833  1.0000
  O   O4        1.0  0.3298941977154898  0.14120473796054972  0.6908216008035168  1.0000
  O   O5        1.0  0.5222510448122152  0.8539089464395032  0.7723571592903439  1.0000
  O   O6        1.0  0.9777487158900302  0.6460916863424513  0.2723561401292827  1.0000
  O   O7        1.0  0.4777494379828796  0.14609128251557021  0.22764302786686835  1.0000
  O   O8        1.0  0.02225176690222242  0.3539085426130485  0.7276433802768381  1.0000
  O   O9        1.0  0.9612556875336438  0.9325702213249302  0.8499385186711094  1.0000
  O   O10       1.0  0.5387463625854849  0.5674279267489908  0.349937760665064  1.0000
  O   O11       1.0  0.038744632140343106  0.06742882003464251  0.1500623352374362  1.0000
  O   O12       1.0  0.4612557482527536  0.432569917697009  0.6500624264936405  1.0000
