data_image0
_chemical_formula_structural       La2Co2H32C24N6O24
_chemical_formula_sum              "La2 Co2 H32 C24 N6 O24"
_cell_length_a       8.592615702614477
_cell_length_b       9.72174303256098
_cell_length_c       12.885121311712961
_cell_angle_alpha    67.82854288984936
_cell_angle_beta     81.05600024604892
_cell_angle_gamma    65.67551620412078

_space_group_name_H-M_alt    "P 1"
_space_group_IT_number       1

loop_
  _space_group_symop_operation_xyz
  'x, y, z'

loop_
  _atom_site_type_symbol
  _atom_site_label
  _atom_site_symmetry_multiplicity
  _atom_site_fract_x
  _atom_site_fract_y
  _atom_site_fract_z
  _atom_site_occupancy
  La  La1       1.0  0.24995368750953173  0.5069011944465275  0.9863805271189958  1.0000
  La  La2       1.0  0.7500492325590998  0.4931010878193831  0.013605951391596724  1.0000
  Co  Co1       1.0  0.2500702890548184  0.6637595957720065  0.6724654602834335  1.0000
  Co  Co2       1.0  0.7499286503368553  0.33624914995893823  0.3275326903252989  1.0000
  H   H1        1.0  0.08045162865714425  0.689402906445224  0.5031710984898083  1.0000
  H   H2        1.0  0.41968184348912985  0.8073551528541643  0.5032122486230719  1.0000
  H   H3        1.0  0.9195489691675293  0.3106001767725885  0.496831554996632  1.0000
  H   H4        1.0  0.5803113390299262  0.19264366020814094  0.4967898252465019  1.0000
  H   H5        1.0  0.6453983388715232  0.16821841268740936  0.7418810039144929  1.0000
  H   H6        1.0  0.8546744275462996  0.08994367704009691  0.7419563227082193  1.0000
  H   H7        1.0  0.3545998808856653  0.8317811522428826  0.258116691358495  1.0000
  H   H8        1.0  0.1453304771100009  0.91004789213072  0.2580446076684453  1.0000
  H   H9        1.0  0.9601944556036702  0.4677643188621941  0.6315138625944527  1.0000
  H   H10       1.0  0.5400944744214229  0.9005678475051796  0.6315108569548612  1.0000
  H   H11       1.0  0.03981334487187384  0.532235250351924  0.3684862952330903  1.0000
  H   H12       1.0  0.4599020707447323  0.09943275226675762  0.3684870016742536  1.0000
  H   H13       1.0  0.8736034855510159  0.6704895971643623  0.6264368941176102  1.0000
  H   H14       1.0  0.6265095404124212  0.7028839020936174  0.6264873559599664  1.0000
  H   H15       1.0  0.12639774621835198  0.3295059043466678  0.3735661246132196  1.0000
  H   H16       1.0  0.3734880052481844  0.2971156345683141  0.37350915131731444  1.0000
  H   H17       1.0  0.2970240283341283  0.49878614292813267  0.4610305459035046  1.0000
  H   H18       1.0  0.20317376993128278  0.04020169275077034  0.46106643325938984  1.0000
  H   H19       1.0  0.7029743825337675  0.5012150359326882  0.5389764462903628  1.0000
  H   H20       1.0  0.7968231094685622  0.9597961702749559  0.5389390412411714  1.0000
  H   H21       1.0  0.20962557368426354  0.3631981374349992  0.5609765197121277  1.0000
  H   H22       1.0  0.29065601908492067  0.07581358859153663  0.5609860847440231  1.0000
  H   H23       1.0  0.7903753691461263  0.6368052941509247  0.43903063882320476  1.0000
  H   H24       1.0  0.7093443499269797  0.9241770827955803  0.43901815970049535  1.0000
  H   H25       1.0  0.6947483129061073  0.9042851476613546  0.8087853129524802  1.0000
  H   H26       1.0  0.8051779386182005  0.2868688397153324  0.8089982595655127  1.0000
  H   H27       1.0  0.30525157336310127  0.0957110685915481  0.1912145520812985  1.0000
  H   H28       1.0  0.19482160803131185  0.7131285707266102  0.1909955450080929  1.0000
  H   H29       1.0  0.6450918360498079  0.9552224208532606  0.9306041917075587  1.0000
  H   H30       1.0  0.8546713025912637  0.11397882095898425  0.9307671351688498  1.0000
  H   H31       1.0  0.35490570422478385  0.04477557325151341  0.0693938709810027  1.0000
  H   H32       1.0  0.14533045231588226  0.8860227048650057  0.06922859738812544  1.0000
  C   C1        1.0  0.015261253501094384  0.5062480484142854  0.7723738603347243  1.0000
  C   C2        1.0  0.48493379373320566  0.7212497836855575  0.7724050785992915  1.0000
  C   C3        1.0  0.9847418576782303  0.4937558477821539  0.22762191509674776  1.0000
  C   C4        1.0  0.5150656124863177  0.27875274871171735  0.22758962931811064  1.0000
  C   C5        1.0  0.4224821822680481  0.37959949697165035  0.6173001955098485  1.0000
  C   C6        1.0  0.07778380115771454  0.003090788894397287  0.6173241712210498  1.0000
  C   C7        1.0  0.5775134130843682  0.6204089017961253  0.38270921473577596  1.0000
  C   C8        1.0  0.9222172740236377  0.9969052069004647  0.382684417087411  1.0000
  C   C9        1.0  0.9890506914607544  0.559125488808867  0.6466055873472385  1.0000
  C   C10       1.0  0.5111275807760548  0.7941590046667245  0.6466324549552026  1.0000
  C   C11       1.0  0.010953085736140627  0.44087612182017477  0.35339370919685814  1.0000
  C   C12       1.0  0.4888723189581796  0.20584106797909402  0.35336352155037076  1.0000
  C   C13       1.0  0.25868542467434014  0.4564280407588088  0.549402645307417  1.0000
  C   C14       1.0  0.24157863510802  0.9941659837817339  0.5494216147217016  1.0000
  C   C15       1.0  0.7413126678746947  0.5435765433161137  0.4506045531170739  1.0000
  C   C16       1.0  0.7584178858210893  0.00582767448295845  0.4505832432581727  1.0000
  C   C17       1.0  0.9095134247454766  0.8107608488326435  0.9135879055661748  1.0000
  C   C18       1.0  0.5902616468116548  0.2755433381328417  0.9136778881912305  1.0000
  C   C19       1.0  0.09048547449430801  0.189240286923166  0.08640942229123989  1.0000
  C   C20       1.0  0.4097400921806483  0.7244575192232502  0.08631002226366752  1.0000
  C   C21       1.0  0.740578170368295  0.9427780017399596  0.8637465171341249  1.0000
  C   C22       1.0  0.7592764477935038  0.19338790483253404  0.8638660692551596  1.0000
  C   C23       1.0  0.2594232206820947  0.05721777676583176  0.13625015431343707  1.0000
  C   C24       1.0  0.24072495133590627  0.806610187508994  0.1361282690754848  1.0000
  N   N1        1.0  0.12895365083942767  0.5942061789694151  0.5763473577282454  1.0000
  N   N2        1.0  0.3712351926653242  0.8294108340463282  0.5763710608900823  1.0000
  N   N3        1.0  0.8710457686019313  0.4057962506171577  0.4236559499968635  1.0000
  N   N4        1.0  0.6287591601580333  0.17058631881145916  0.4236326918577332  1.0000
  N   N5        1.0  0.7499916980479284  0.10096356547196482  0.7981105135457652  1.0000
  N   N6        1.0  0.2500096930024611  0.8990322130338271  0.20188615790178943  1.0000
  O   O1        1.0  0.13705740098308905  0.5273254506795624  0.8022559035746895  1.0000
  O   O2        1.0  0.3631464778276339  0.670238496601698  0.8023096109266133  1.0000
  O   O3        1.0  0.8629462225619875  0.47268138471549986  0.1977356965054824  1.0000
  O   O4        1.0  0.6368522863681748  0.32976930366660173  0.1976870648633096  1.0000
  O   O5        1.0  0.9120310810977017  0.45193679925019836  0.8364515671245343  1.0000
  O   O6        1.0  0.5881884980020473  0.7114779629909977  0.8364550450563185  1.0000
  O   O7        1.0  0.08798056746063321  0.5480597830863515  0.16354797716765287  1.0000
  O   O8        1.0  0.4118135725309387  0.2885193863403116  0.16354125897566973  1.0000
  O   O9        1.0  0.45736553044279293  0.4678955212125688  0.6548773101380406  1.0000
  O   O10       1.0  0.04284069601121837  0.8772435068044686  0.6548979076477153  1.0000
  O   O11       1.0  0.542626721113564  0.5321164897956547  0.3451308714085642  1.0000
  O   O12       1.0  0.9571565257013294  0.1227539333107899  0.3451128496073821  1.0000
  O   O13       1.0  0.5179059052140288  0.23491116004248638  0.6288798747896891  1.0000
  O   O14       1.0  0.9823978045705747  0.13621268022734517  0.6289041913602418  1.0000
  O   O15       1.0  0.4820912189134319  0.765099783281812  0.3711318308548783  1.0000
  O   O16       1.0  0.017609817772907405  0.8637812130419461  0.37110775769004795  1.0000
  O   O17       1.0  0.9084688844137573  0.6682237038097585  0.9534823409299449  1.0000
  O   O18       1.0  0.5912844807428286  0.37820252847296154  0.9535713824205486  1.0000
  O   O19       1.0  0.09153519788015532  0.3317746044158838  0.046508149575814194  1.0000
  O   O20       1.0  0.4087157642403129  0.6218018517445856  0.04641661079800488  1.0000
  O   O21       1.0  0.04101608407108166  0.8362129046411939  0.914557037419449  1.0000
  O   O22       1.0  0.4587784986875646  0.24911071599560622  0.9146478024265862  1.0000
  O   O23       1.0  0.9589838315779959  0.16378783647250827  0.08544676118820149  1.0000
  O   O24       1.0  0.5412208889241159  0.7508903766551923  0.0853398610943756  1.0000
