data_image0
_chemical_formula_structural       Cd2H28C34N16
_chemical_formula_sum              "Cd2 H28 C34 N16"
_cell_length_a       9.837635215216478
_cell_length_b       9.257925109726667
_cell_length_c       12.426464197513774
_cell_angle_alpha    96.61257034205246
_cell_angle_beta     108.71525921911815
_cell_angle_gamma    115.15674775739863

_space_group_name_H-M_alt    "P 1"
_space_group_IT_number       1

loop_
  _space_group_symop_operation_xyz
  'x, y, z'

loop_
  _atom_site_type_symbol
  _atom_site_label
  _atom_site_symmetry_multiplicity
  _atom_site_fract_x
  _atom_site_fract_y
  _atom_site_fract_z
  _atom_site_occupancy
  Cd  Cd1       1.0  0.49969061252669866  0.99960248059547  0.9998413383144114  1.0000
  Cd  Cd2       1.0  0.5006288766261162  0.499374714413541  0.5004790385366251  1.0000
  H   H1        1.0  0.7211942643134606  0.4900355330314382  0.1990176838237475  1.0000
  H   H2        1.0  0.21587397300160657  0.35847557378450995  0.8740394361979967  1.0000
  H   H3        1.0  0.2793341026005436  0.5091901982984979  0.8017499726831547  1.0000
  H   H4        1.0  0.7828387813994979  0.6380690358462572  0.1245257625929171  1.0000
  H   H5        1.0  0.9216092354939818  0.45063673899755924  0.16770679403491343  1.0000
  H   H6        1.0  0.12765788827035598  0.3069725358585272  0.6074322405241191  1.0000
  H   H7        1.0  0.08121797176302441  0.5504794242372952  0.8353344994750247  1.0000
  H   H8        1.0  0.8671101047177671  0.6946501967148179  0.3908198019221915  1.0000
  H   H9        1.0  0.03744905088755957  0.587043439656817  0.3122759404696042  1.0000
  H   H10       1.0  0.25434260182337454  0.24764263254915864  0.7060777441752325  1.0000
  H   H11       1.0  0.963765833044036  0.4164677634032613  0.6899261703697734  1.0000
  H   H12       1.0  0.7433321298062124  0.7538215275541233  0.2893525265030591  1.0000
  H   H13       1.0  0.30475078843635117  0.6980248588506865  0.31029712760624056  1.0000
  H   H14       1.0  0.11735661759706059  0.0017901282952621932  0.7859512972634661  1.0000
  H   H15       1.0  0.6955785392314837  0.30010003569923777  0.6892130459982654  1.0000
  H   H16       1.0  0.8840119387718345  0.0002126642374519972  0.2126754189257555  1.0000
  H   H17       1.0  0.4988870780543733  0.8564901037222153  0.2233500348040067  1.0000
  H   H18       1.0  0.8678577007821103  0.7198453541616698  0.7180639450460761  1.0000
  H   H19       1.0  0.5006895748539719  0.14041392217126963  0.7752730330303452  1.0000
  H   H20       1.0  0.13526441393716473  0.28117028971909247  0.2818787489792599  1.0000
  H   H21       1.0  0.1285769447523889  0.8720859468608209  0.9562000979899994  1.0000
  H   H22       1.0  0.5950896612264741  0.8449601524225013  0.4550123496066193  1.0000
  H   H23       1.0  0.8716972227204565  0.13016554716899978  0.04549650620257498  1.0000
  H   H24       1.0  0.4029334672997321  0.1524711776935206  0.5454061424083536  1.0000
  H   H25       1.0  0.9183213159325092  0.7079674493505193  0.026092711846097096  1.0000
  H   H26       1.0  0.8352447980537434  0.12943284030244226  0.5079624944140733  1.0000
  H   H27       1.0  0.08267070802608596  0.2956139347120155  0.9764149311613936  1.0000
  H   H28       1.0  0.16098409706527403  0.8687780401090845  0.4909967591619165  1.0000
  C   C1        1.0  0.8250918261403439  0.6084650998209397  0.20776056639809334  1.0000
  C   C2        1.0  0.17444058091914627  0.39087833142033895  0.7919827846975951  1.0000
  C   C3        1.0  0.971570480503821  0.5802493755504228  0.22005793678597735  1.0000
  C   C4        1.0  0.14302506682400914  0.2597787428621884  0.6853493017526733  1.0000
  C   C5        1.0  0.029515993840426764  0.42113398201032465  0.7815938651043767  1.0000
  C   C6        1.0  0.8544422705288425  0.741011673651769  0.3125212076066931  1.0000
  C   C7        1.0  0.0938460944375876  0.6898801995659055  0.17670859107887085  1.0000
  C   C8        1.0  0.9963058737764855  0.09087741566687406  0.6528985811990824  1.0000
  C   C9        1.0  0.9068429766131416  0.3110636414195226  0.8244400545659546  1.0000
  C   C10       1.0  0.0022693940917761436  0.9093563284756098  0.34576126911934335  1.0000
  C   C11       1.0  0.26072771703292824  0.7352499021761287  0.23187007704284218  1.0000
  C   C12       1.0  0.003252863695237837  0.9731293595412893  0.7129703776912212  1.0000
  C   C13       1.0  0.7396155543157763  0.2638316849944928  0.7681675698388235  1.0000
  C   C14       1.0  0.9973374573473919  0.02788208039144279  0.2859932043801835  1.0000
  C   C15       1.0  0.3694019935430928  0.824067401644825  0.18447371496494475  1.0000
  C   C16       1.0  0.8649757193056614  0.8162176197200777  0.6757861220864714  1.0000
  C   C17       1.0  0.6305317535419164  0.17435676592069166  0.8150795501047273  1.0000
  C   C18       1.0  0.1365462217954843  0.18422570116045728  0.32395646746343243  1.0000
  C   C19       1.0  0.16268640623199096  0.8315200822512239  0.03489577760251452  1.0000
  C   C20       1.0  0.7129979152931226  0.88562295969092  0.5283652112609618  1.0000
  C   C21       1.0  0.8376615341259209  0.16989435508812523  0.966334787103307  1.0000
  C   C22       1.0  0.2857280220995122  0.11280820728477173  0.4716300725711023  1.0000
  C   C23       1.0  0.04606360588413579  0.7406249749163718  0.07553588539573042  1.0000
  C   C24       1.0  0.8463140066141861  0.043723464564287384  0.5588844438832439  1.0000
  C   C25       1.0  0.9546655476618822  0.2615404305874093  0.9262302791384942  1.0000
  C   C26       1.0  0.15138259872814067  0.9551553731932001  0.44029998475677706  1.0000
  C   C27       1.0  0.7599389279527812  0.24000985391790408  0.2880713188765967  1.0000
  C   C28       1.0  0.5819391597854348  0.5512822270206641  0.7884151140150736  1.0000
  C   C29       1.0  0.2403203341153456  0.7595795787692692  0.7117306538328594  1.0000
  C   C30       1.0  0.4191030671809059  0.4484480537005736  0.21203198940802545  1.0000
  C   C31       1.0  0.7476754932861736  0.3631716024137431  0.4531668816333865  1.0000
  C   C32       1.0  0.6114580514282719  0.7185439528732186  0.9567818375112652  1.0000
  C   C33       1.0  0.25351554348778643  0.63651835532535  0.5470184774709353  1.0000
  C   C34       1.0  0.3887898781454453  0.2815424176171959  0.04318248508637625  1.0000
  N   N1        1.0  0.32203882482701807  0.8726209621366006  0.0876351229374634  1.0000
  N   N2        1.0  0.72176525230509  0.7724306460786037  0.5848547266615611  1.0000
  N   N3        1.0  0.6778985488333545  0.12695396426655486  0.9125097513525946  1.0000
  N   N4        1.0  0.2788218853553203  0.22676455896391443  0.4154152717049514  1.0000
  N   N5        1.0  0.7156286299333486  0.16523535019029365  0.18879725791317267  1.0000
  N   N6        1.0  0.5235289838175063  0.4677256935009239  0.6892309593261532  1.0000
  N   N7        1.0  0.28395031297928586  0.8339130764094302  0.8109779577384942  1.0000
  N   N8        1.0  0.47731763729905924  0.5307208467210742  0.3115471506139472  1.0000
  N   N9        1.0  0.6892325589296462  0.4008427606886399  0.513252875726167  1.0000
  N   N10       1.0  0.5840506988515202  0.7964809293978232  0.02081591739006685  1.0000
  N   N11       1.0  0.312149566113149  0.5983812779134254  0.4873209524806229  1.0000
  N   N12       1.0  0.4152951173216977  0.20264915476569453  0.9790691266555174  1.0000
  N   N13       1.0  0.8253556823860535  0.3261952038866552  0.3982212089763453  1.0000
  N   N14       1.0  0.6585471968200733  0.638481250761451  0.8987277508360877  1.0000
  N   N15       1.0  0.17559846702388873  0.6740003929416502  0.6014963977683508  1.0000
  N   N16       1.0  0.3428819496289606  0.36296385437768197  0.10131613869290852  1.0000
