data_image0
_chemical_formula_structural       Cu4H44C44N4O20
_chemical_formula_sum              "Cu4 H44 C44 N4 O20"
_cell_length_a       7.705176822585519
_cell_length_b       11.448983431375645
_cell_length_c       14.547874125320831
_cell_angle_alpha    89.99935298530728
_cell_angle_beta     90.00058291556357
_cell_angle_gamma    107.86680355737683

_space_group_name_H-M_alt    "P 1"
_space_group_IT_number       1

loop_
  _space_group_symop_operation_xyz
  'x, y, z'

loop_
  _atom_site_type_symbol
  _atom_site_label
  _atom_site_symmetry_multiplicity
  _atom_site_fract_x
  _atom_site_fract_y
  _atom_site_fract_z
  _atom_site_occupancy
  Cu  Cu1       1.0  0.4248051733913414  0.08616989608984228  0.9974509686176204  1.0000
  Cu  Cu2       1.0  0.575191180004488  0.41383609126388854  0.4974510906527811  1.0000
  Cu  Cu3       1.0  0.5751963980516946  0.9138360751990007  0.002542879739621601  1.0000
  Cu  Cu4       1.0  0.4248103943492225  0.5861671185668057  0.5025427577167463  1.0000
  H   H1        1.0  0.0580669795708033  0.08552758519581968  0.8465935740233874  1.0000
  H   H2        1.0  0.9419458260933098  0.4144754072786794  0.34658948758151104  1.0000
  H   H3        1.0  0.9419544366504553  0.9144736536192395  0.15340233656553437  1.0000
  H   H4        1.0  0.05806351172842736  0.5855277516503392  0.6534077977375219  1.0000
  H   H5        1.0  0.2927248952046213  0.2030984892900065  0.7354420503043002  1.0000
  H   H6        1.0  0.707294118969003  0.2969140106489688  0.2354398027127829  1.0000
  H   H7        1.0  0.7073008214282481  0.7969146875759349  0.2645538602431543  1.0000
  H   H8        1.0  0.29271779501998196  0.7031001771559315  0.7645567951784996  1.0000
  H   H9        1.0  0.9161570949459801  0.3824315410964445  0.6316098983551584  1.0000
  H   H10       1.0  0.0838380655685924  0.11756480666495857  0.1316120605814675  1.0000
  H   H11       1.0  0.08385439459905789  0.6175762060777287  0.36839632296281616  1.0000
  H   H12       1.0  0.916149284526675  0.8824302120827735  0.8683804130147124  1.0000
  H   H13       1.0  0.682791201960825  0.26705119349175277  0.7430281214589627  1.0000
  H   H14       1.0  0.3172081021598744  0.23293833731653277  0.2430367059785041  1.0000
  H   H15       1.0  0.3172185691277106  0.7329501216186924  0.2569726007977238  1.0000
  H   H16       1.0  0.6827818445394771  0.7670483800488271  0.7569640162895012  1.0000
  H   H17       1.0  0.5168488445463808  0.3305630045561471  0.8968622378362667  1.0000
  H   H18       1.0  0.4831193852822296  0.16942866273595306  0.3968578497568984  1.0000
  H   H19       1.0  0.4831281689151083  0.6694182746843821  0.10314054657791871  1.0000
  H   H20       1.0  0.5168740011403725  0.8305681573814351  0.6031394355471917  1.0000
  H   H21       1.0  0.5535595229686194  0.4984981263800775  0.8258347176505509  1.0000
  H   H22       1.0  0.44643359113471354  0.0014997083125508001  0.32583093768239013  1.0000
  H   H23       1.0  0.4464425051078464  0.5014839093580221  0.1741742532988226  1.0000
  H   H24       1.0  0.5535563497528598  0.9984925319612257  0.674171159332346  1.0000
  H   H25       1.0  0.4647443157139505  0.6100069409344113  0.8772043736755393  1.0000
  H   H26       1.0  0.5352517284473277  0.8899939041291488  0.3772072413128953  1.0000
  H   H27       1.0  0.5352667609341779  0.38998331985522566  0.1227977234051636  1.0000
  H   H28       1.0  0.4647459729784842  0.11000104671686729  0.62279554309643  1.0000
  H   H29       1.0  0.3423126501084894  0.5140462937442436  0.7863465207831624  1.0000
  H   H30       1.0  0.6576890271210871  0.9859592293995973  0.2863526338576605  1.0000
  H   H31       1.0  0.6577018720890068  0.48594854687718925  0.2136528267438607  1.0000
  H   H32       1.0  0.34230953497873884  0.014037556757088501  0.7136515253171396  1.0000
  H   H33       1.0  0.11551135348017276  0.36434012718066094  0.0052427569035203  1.0000
  H   H34       1.0  0.8844729831047148  0.1356660126702778  0.5052494925602105  1.0000
  H   H35       1.0  0.8844902325831471  0.6356520367622734  0.9947607149143567  1.0000
  H   H36       1.0  0.11551091863569223  0.8643271876171493  0.4947608530617984  1.0000
  H   H37       1.0  0.06188871563655587  0.42756169135254385  0.9000789155905268  1.0000
  H   H38       1.0  0.9380972259260718  0.07244547136975397  0.4000860998930236  1.0000
  H   H39       1.0  0.9381012252940478  0.5724305488857835  0.0999293678951148  1.0000
  H   H40       1.0  0.06189185145809251  0.9275476949845397  0.5999263079000913  1.0000
  H   H41       1.0  0.19212465719601104  0.5276686014471962  0.9865216930767176  1.0000
  H   H42       1.0  0.8078659990981124  0.9723383997458158  0.48652942704213586  1.0000
  H   H43       1.0  0.8078657169679317  0.4723217950001271  0.013485215646980502  1.0000
  H   H44       1.0  0.1921200572045407  0.027656627387713687  0.5134795438062554  1.0000
  C   C1        1.0  0.8554333774462536  0.16850775368282456  0.8011880396784149  1.0000
  C   C2        1.0  0.14456844827131476  0.3314930655728076  0.30118862719550776  1.0000
  C   C3        1.0  0.1445863087284209  0.8314980988577714  0.198809933042277  1.0000
  C   C4        1.0  0.8554305441081524  0.6685046382864853  0.6988079707341583  1.0000
  C   C5        1.0  0.02661554500390649  0.1492489312789758  0.7987051090164101  1.0000
  C   C6        1.0  0.9733871067918617  0.3507537517920625  0.29869901001535487  1.0000
  C   C7        1.0  0.9734071593320479  0.85075782194842  0.20129492586540476  1.0000
  C   C8        1.0  0.026619640299720918  0.6492521855597032  0.7012975878986509  1.0000
  C   C9        1.0  0.15791215089218008  0.21514010491521415  0.7368851420240858  1.0000
  C   C10       1.0  0.8420917955092405  0.2848651135511274  0.23687960642623554  1.0000
  C   C11       1.0  0.8421049387549076  0.7848740489447293  0.2631155801952758  1.0000
  C   C12       1.0  0.15791278828330482  0.7151472813329319  0.7631176788388601  1.0000
  C   C13       1.0  0.1192089294089769  0.2999834290859624  0.677210648990851  1.0000
  C   C14       1.0  0.8807859902018224  0.20002436801348006  0.1772081396578002  1.0000
  C   C15       1.0  0.8808103148242665  0.7000325516003867  0.3227921353831888  1.0000
  C   C16       1.0  0.11920220894391047  0.7999835318617696  0.8227884581973157  1.0000
  C   C17       1.0  0.9473051294610074  0.31807429450869046  0.6788962155354953  1.0000
  C   C18       1.0  0.05268120114459409  0.18192065299145097  0.1788955745614729  1.0000
  C   C19       1.0  0.05271196312543216  0.681937097869472  0.3211086310100981  1.0000
  C   C20       1.0  0.9473035611550885  0.8180743827011838  0.821099648570261  1.0000
  C   C21       1.0  0.8162718308871747  0.2527999556950035  0.7410330652835597  1.0000
  C   C22       1.0  0.18372312754642187  0.24719422872617255  0.24103323976002863  1.0000
  C   C23       1.0  0.18374655850772814  0.7472086667525557  0.258970406506549  1.0000
  C   C24       1.0  0.8162668133029031  0.7527980115791236  0.7589633581694601  1.0000
  C   C25       1.0  0.7177344778427255  0.10192763750265502  0.8705011834575557  1.0000
  C   C26       1.0  0.2822777997998287  0.39807324557683177  0.3705067351771518  1.0000
  C   C27       1.0  0.28228219599678517  0.8980717914309008  0.129495414512256  1.0000
  C   C28       1.0  0.7177311134918937  0.6019234727923645  0.6294878006267551  1.0000
  C   C29       1.0  0.2621273840968427  0.37317149044837095  0.6126576356025737  1.0000
  C   C30       1.0  0.7378748254837434  0.1268434362270341  0.1126556917232548  1.0000
  C   C31       1.0  0.7378759058026956  0.6268409129041996  0.3873417118159495  1.0000
  C   C32       1.0  0.2621116406664897  0.8731718388634208  0.8873374691660914  1.0000
  C   C33       1.0  0.39081372138559795  0.32951013680700203  0.9335841055687624  1.0000
  C   C34       1.0  0.6091584590904588  0.17049121226830263  0.4335893258151984  1.0000
  C   C35       1.0  0.6091645801380067  0.6704766568891996  0.0664152418960953  1.0000
  C   C36       1.0  0.3908362183336039  0.8295083608229703  0.5664086468657956  1.0000
  C   C37       1.0  0.4283912157768697  0.5174858710538073  0.8472786649903981  1.0000
  C   C38       1.0  0.5716035485024521  0.9825162431595443  0.3472795313713135  1.0000
  C   C39       1.0  0.5716116670996881  0.4825035229545875  0.152724119457659  1.0000
  C   C40       1.0  0.4283924257683297  0.017480559969612793  0.6527225656394365  1.0000
  C   C41       1.0  0.16554830411438096  0.4371287747233479  0.9540389273786901  1.0000
  C   C42       1.0  0.8344297639627741  0.06287598509697287  0.4540449487133459  1.0000
  C   C43       1.0  0.834442497461552  0.5628653008492817  0.0459666065584869  1.0000
  C   C44       1.0  0.16555370451561638  0.9371190590050912  0.5459626473566601  1.0000
  N   N1        1.0  0.3329521903002047  0.4260648736163545  0.9143106005641854  1.0000
  N   N2        1.0  0.6670283490488275  0.0739357193727415  0.4143108063244298  1.0000
  N   N3        1.0  0.6670377505969325  0.5739273666495419  0.0856928712218661  1.0000
  N   N4        1.0  0.33295727689291243  0.9260583901251492  0.5856940402129424  1.0000
  O   O1        1.0  0.5986721868743459  0.15274511681648303  0.8945123911509327  1.0000
  O   O2        1.0  0.40133870633633956  0.3472490589843601  0.3945135399010696  1.0000
  O   O3        1.0  0.40133888097962256  0.8472534283988151  0.10548076987936379  1.0000
  O   O4        1.0  0.5986684827157944  0.6527467502058925  0.6054809959022194  1.0000
  O   O5        1.0  0.7318439134473567  0.0007387069326227991  0.9007865089610618  1.0000
  O   O6        1.0  0.26815714028903403  0.4992619053785318  0.40078695980180606  1.0000
  O   O7        1.0  0.26817750277868396  0.999262531878493  0.0992100890135177  1.0000
  O   O8        1.0  0.7318504790953285  0.5007348214709992  0.5992075759985624  1.0000
  O   O9        1.0  0.2507785171723356  0.4782626085035915  0.5898696155580084  1.0000
  O   O10       1.0  0.7492091424090007  0.02175267265827329  0.0898652310291084  1.0000
  O   O11       1.0  0.7492230484971785  0.5217488856621556  0.410131106631205  1.0000
  O   O12       1.0  0.25075533610560524  0.9782544621760532  0.9101361784648533  1.0000
  O   O13       1.0  0.38299432988481635  0.3251119184654667  0.5865828887824804  1.0000
  O   O14       1.0  0.6170070895201363  0.17489962797865388  0.08657642667238721  1.0000
  O   O15       1.0  0.617002063018141  0.6748968482028417  0.41341095954831536  1.0000
  O   O16       1.0  0.3829940253611922  0.8251302788018432  0.9134126098775468  1.0000
  O   O17       1.0  0.31313090810143507  0.24450732456678986  0.9874395649724833  1.0000
  O   O18       1.0  0.6868226245527467  0.2554824886326869  0.4874403248637195  1.0000
  O   O19       1.0  0.686839199664945  0.755478602336353  0.0125625320166947  1.0000
  O   O20       1.0  0.31317549842069076  0.7445216642903817  0.5125548982635877  1.0000
