data_image0
_chemical_formula_structural       Ni4H44C36N4O20
_chemical_formula_sum              "Ni4 H44 C36 N4 O20"
_cell_length_a       7.328271920012092
_cell_length_b       9.209678889036713
_cell_length_c       15.186998868072001
_cell_angle_alpha    107.91122216696003
_cell_angle_beta     90.00005056781268
_cell_angle_gamma    89.99979205395172

_space_group_name_H-M_alt    "P 1"
_space_group_IT_number       1

loop_
  _space_group_symop_operation_xyz
  'x, y, z'

loop_
  _atom_site_type_symbol
  _atom_site_label
  _atom_site_symmetry_multiplicity
  _atom_site_fract_x
  _atom_site_fract_y
  _atom_site_fract_z
  _atom_site_occupancy
  Ni  Ni1       1.0  0.9873989943530219  0.3568375360435567  0.6265136300934058  1.0000
  Ni  Ni2       1.0  0.48740142346063203  0.1431641000980122  0.3734857076627378  1.0000
  Ni  Ni3       1.0  0.012600760013484102  0.6431667237864147  0.373486696481514  1.0000
  Ni  Ni4       1.0  0.5125996954967177  0.8568344719560841  0.6265142660849535  1.0000
  H   H1        1.0  0.8703374826753673  0.20354073384181245  0.458125343705845  1.0000
  H   H2        1.0  0.3703395266944582  0.2964567697439832  0.5418765062083323  1.0000
  H   H3        1.0  0.1296609071195221  0.7964612955409578  0.5418765618641288  1.0000
  H   H4        1.0  0.6296629568356664  0.7035440671114088  0.45812321171800346  1.0000
  H   H5        1.0  0.0658219201533328  0.13743778623403094  0.4708778589028738  1.0000
  H   H6        1.0  0.5658261054707412  0.36256289813807996  0.5291244377605295  1.0000
  H   H7        1.0  0.9341737404876013  0.8625631021625891  0.5291238437844895  1.0000
  H   H8        1.0  0.4341763780551346  0.637440237874735  0.47087634751825647  1.0000
  H   H9        1.0  0.7945291412367014  0.47888736286357414  0.5265260569004866  1.0000
  H   H10       1.0  0.2945309505030663  0.021113753095157502  0.47347508869119537  1.0000
  H   H11       1.0  0.20547607144138166  0.5211168626042382  0.47347294650035104  1.0000
  H   H12       1.0  0.705468803873586  0.9788871696495249  0.5265279371695968  1.0000
  H   H13       1.0  0.7057386794430016  0.5588874780298667  0.6272980759322306  1.0000
  H   H14       1.0  0.20574247510131727  0.9411154124422649  0.3727026048188335  1.0000
  H   H15       1.0  0.29426107492650283  0.44111565798696967  0.37270270934673977  1.0000
  H   H16       1.0  0.7942572792590995  0.0588923047123586  0.6272996535781842  1.0000
  H   H17       1.0  0.8400655435112796  0.9819932621811559  0.7539085118289961  1.0000
  H   H18       1.0  0.3400642121634689  0.5180080392976052  0.2460899632004256  1.0000
  H   H19       1.0  0.15993557544017278  0.0180063478008066  0.24608769528036586  1.0000
  H   H20       1.0  0.6599246255974549  0.4819871098040594  0.7539094018996906  1.0000
  H   H21       1.0  0.9484855519881066  0.9655255613930365  0.9037895491183575  1.0000
  H   H22       1.0  0.44848522942623953  0.5344743134353107  0.09621003161000623  1.0000
  H   H23       1.0  0.0515142023959854  0.034469518984309395  0.0962071696336082  1.0000
  H   H24       1.0  0.55150497290321  0.46552539962507206  0.9037901450212116  1.0000
  H   H25       1.0  0.1053300075136931  0.1898651724485703  0.01670055723754869  1.0000
  H   H26       1.0  0.6053284596350111  0.3101330102771199  0.9832973588222556  1.0000
  H   H27       1.0  0.8946724760322766  0.8101264334230366  0.9832935681052815  1.0000
  H   H28       1.0  0.3946685655805311  0.6898689847535664  0.01670322357410472  1.0000
  H   H29       1.0  0.14544350213974871  0.4274008775739375  0.9749147755614587  1.0000
  H   H30       1.0  0.6454507977409707  0.07259955460521891  0.0250868487988711  1.0000
  H   H31       1.0  0.8545617105630826  0.572591955169095  0.02508286059826048  1.0000
  H   H32       1.0  0.3545612378285271  0.927405897727965  0.9749156654185779  1.0000
  H   H33       1.0  0.11138866373014619  0.5757038138713922  0.8825376988934649  1.0000
  H   H34       1.0  0.6113972547309389  0.9243004788906004  0.11746253585148025  1.0000
  H   H35       1.0  0.8886151843854152  0.42429360001143124  0.11746141038438651  1.0000
  H   H36       1.0  0.3886161454234127  0.075701533292964  0.8825387081306246  1.0000
  H   H37       1.0  0.1687305438783042  0.7251980860818036  0.7939700383118902  1.0000
  H   H38       1.0  0.6687386190329221  0.7748060202534289  0.20602952712877706  1.0000
  H   H39       1.0  0.8312692104887772  0.2748061909252186  0.2060309498498754  1.0000
  H   H40       1.0  0.3312584061989554  0.2251879706689195  0.793968973501137  1.0000
  H   H41       1.0  0.9512041849964774  0.7268531657236748  0.7414916623857691  1.0000
  H   H42       1.0  0.45121399252397515  0.773150020973631  0.2585045571032935  1.0000
  H   H43       1.0  0.0487955693712792  0.27314991876200867  0.2585071381326358  1.0000
  H   H44       1.0  0.5487871264267028  0.2268519912280595  0.7414966868796425  1.0000
  C   C1        1.0  0.9283541615770048  0.21443565568080197  0.7761391406119313  1.0000
  C   C2        1.0  0.42835293090015364  0.2855661547430799  0.223860205091114  1.0000
  C   C3        1.0  0.0716483219519546  0.7855651468204811  0.22385925414069868  1.0000
  C   C4        1.0  0.571648188055363  0.7144335754782458  0.7761406331262249  1.0000
  C   C5        1.0  0.9059099109377867  0.08022710544932468  0.8026383743793275  1.0000
  C   C6        1.0  0.40591074670830096  0.41977250641472347  0.1973612301655336  1.0000
  C   C7        1.0  0.0940912080184049  0.9197714322506628  0.19736027619465094  1.0000
  C   C8        1.0  0.5940835493605333  0.5802249246592551  0.8026385406998172  1.0000
  C   C9        1.0  0.9667783836703023  0.07196247700563418  0.8873733737667562  1.0000
  C   C10       1.0  0.46677629391749786  0.42803349787849493  0.11262429076411001  1.0000
  C   C11       1.0  0.03322546445076569  0.9280314623754862  0.11262314210214444  1.0000
  C   C12       1.0  0.5332180021495958  0.5719638816643239  0.8873734953406753  1.0000
  C   C13       1.0  0.05358060262333449  0.19693904583769486  0.9509001231440378  1.0000
  C   C14       1.0  0.5535787028738994  0.3030650632913563  0.04910146064198529  1.0000
  C   C15       1.0  0.9464218809152952  0.8030571927028591  0.049097460077405196  1.0000
  C   C16       1.0  0.446418322340385  0.6969381070836178  0.9509006478108757  1.0000
  C   C17       1.0  0.0763905666144566  0.3295012807899552  0.9272190610961386  1.0000
  C   C18       1.0  0.576389316790447  0.17049812834322617  0.0727790617413078  1.0000
  C   C19       1.0  0.9236187398217696  0.6704915175929216  0.07277725188959037  1.0000
  C   C20       1.0  0.4236158958899594  0.8295061658327967  0.9272225880069482  1.0000
  C   C21       1.0  0.0159396430533576  0.34251781384915597  0.8415233155734754  1.0000
  C   C22       1.0  0.5159427068400076  0.1574840900392758  0.15847654433888178  1.0000
  C   C23       1.0  0.9840587467458803  0.657480706677809  0.15847467341382773  1.0000
  C   C24       1.0  0.4840625058482217  0.8425167983432472  0.8415251583478349  1.0000
  C   C25       1.0  0.0541174705570242  0.4846323649888547  0.8240451444301228  1.0000
  C   C26       1.0  0.5541225808651191  0.015369374679593798  0.1759527255833007  1.0000
  C   C27       1.0  0.9458863775579472  0.515365031716918  0.1759533032608758  1.0000
  C   C28       1.0  0.445885360978906  0.9846314965218496  0.8240483155163785  1.0000
  C   C29       1.0  0.07724795538512551  0.6597846253454873  0.7386588562405831  1.0000
  C   C30       1.0  0.5772558352543697  0.8402163280397802  0.2613401128640546  1.0000
  C   C31       1.0  0.9227545281401606  0.3402184934902692  0.2613412674513497  1.0000
  C   C32       1.0  0.4227452837059786  0.15978112020118126  0.7386603195876872  1.0000
  C   C33       1.0  0.1598444530084322  0.6454891858730959  0.644611884748862  1.0000
  C   C34       1.0  0.6598428915784922  0.8545104514520502  0.3553895167046334  1.0000
  C   C35       1.0  0.8401675825538175  0.3545196894306456  0.3553912381169795  1.0000
  C   C36       1.0  0.3401568628211677  0.14547902703669283  0.6446101571544745  1.0000
  N   N1        1.0  0.030308176102082002  0.5115042848743485  0.7461649669192808  1.0000
  N   N2        1.0  0.5303099062148532  0.9884968585987578  0.25383599326381295  1.0000
  N   N3        1.0  0.9696956720062317  0.4884965519790327  0.2538347510069697  1.0000
  N   N4        1.0  0.4696912127412389  0.011502888799618902  0.746165506540386  1.0000
  O   O1        1.0  0.9546657680630304  0.18667560305838996  0.5052988000874166  1.0000
  O   O2        1.0  0.45467310505293324  0.31331826299951615  0.49470375300224834  1.0000
  O   O3        1.0  0.0453257988475002  0.8133241958852507  0.4947046844779803  1.0000
  O   O4        1.0  0.5453321076419683  0.6866791852354055  0.5052966794492235  1.0000
  O   O5        1.0  0.752459299169182  0.45731777524825656  0.584354368445183  1.0000
  O   O6        1.0  0.25246226622231654  0.04268457151832188  0.41564566251755497  1.0000
  O   O7        1.0  0.24754181977850456  0.5426853607665691  0.41564641683369524  1.0000
  O   O8        1.0  0.747537488144765  0.9573197054887005  0.5843553256442107  1.0000
  O   O9        1.0  0.8687329292409486  0.2170754982667304  0.6947022238316478  1.0000
  O   O10       1.0  0.3687332276473826  0.28292653966427384  0.30529911465608  1.0000
  O   O11       1.0  0.13126546055345759  0.7829253042405994  0.3052961709212525  1.0000
  O   O12       1.0  0.6312665267329436  0.7170720667459348  0.6947021822654093  1.0000
  O   O13       1.0  0.13795411590604087  0.5199847700901685  0.5799486378753684  1.0000
  O   O14       1.0  0.6379548313233627  0.9800171279383035  0.42004986435544817  1.0000
  O   O15       1.0  0.8620497321944427  0.4800194725567053  0.42005102711241443  1.0000
  O   O16       1.0  0.3620449230479749  0.019984849911296003  0.5799500564538747  1.0000
  O   O17       1.0  0.23441291342805212  0.7634168777735013  0.634202549122115  1.0000
  O   O18       1.0  0.7344132747900928  0.7365848042556139  0.3657985864740638  1.0000
  O   O19       1.0  0.7655827472134648  0.2365840278001698  0.3657998151521013  1.0000
  O   O20       1.0  0.2655810212666623  0.2634183317692802  0.6342021988052763  1.0000
