data_image0
_chemical_formula_structural       Zn4H51C82N20O5F13
_chemical_formula_sum              "Zn4 H51 C82 N20 O5 F13"
_cell_length_a       20.266485505631675
_cell_length_b       19.92972542492051
_cell_length_c       21.481817435364917
_cell_angle_alpha    106.42516336994983
_cell_angle_beta     109.01170514566344
_cell_angle_gamma    111.51251325878057

_space_group_name_H-M_alt    "P 1"
_space_group_IT_number       1

loop_
  _space_group_symop_operation_xyz
  'x, y, z'

loop_
  _atom_site_type_symbol
  _atom_site_label
  _atom_site_symmetry_multiplicity
  _atom_site_fract_x
  _atom_site_fract_y
  _atom_site_fract_z
  _atom_site_occupancy
  Zn  Zn1       1.0  0.3587863067769064  0.3897753277675591  0.48371030863651043  1.0000
  Zn  Zn2       1.0  0.5831042344631853  0.598432302877242  0.48669546875632347  1.0000
  Zn  Zn3       1.0  0.3706834690361163  0.4912170747348127  0.3795152081145901  1.0000
  Zn  Zn4       1.0  0.5885712924810207  0.5294772207305342  0.6152095515244298  1.0000
  H   H1        1.0  0.2219627213962667  0.5304892514361441  0.4020470373981838  1.0000
  H   H2        1.0  0.5359038032945592  0.1163553537284727  0.709157255718992  1.0000
  H   H3        1.0  0.9331872021804059  0.4882708809460181  0.44771632436340514  1.0000
  H   H4        1.0  0.06848621142631117  0.6260290578357299  0.4719396808556056  1.0000
  H   H5        1.0  0.1626402465989116  0.7030938202893109  0.6910881684744652  1.0000
  H   H6        1.0  0.4111738955264954  0.46473304577907015  0.1182804039294254  1.0000
  H   H7        1.0  0.41420349669940043  0.3963957662378235  0.003978625743052122  1.0000
  H   H8        1.0  0.34906441979482844  0.2973406607123437  0.8226962586069393  1.0000
  H   H9        1.0  0.3593890519675469  0.34773821916429887  0.7307560128353715  1.0000
  H   H10       1.0  0.6249440396463515  0.3932992949821568  0.1342733709910889  1.0000
  H   H11       1.0  0.6117317985623673  0.4140755168451093  0.8237303411998838  1.0000
  H   H12       1.0  0.7128116187363317  0.6844749512161671  0.7529266909484492  1.0000
  H   H13       1.0  0.8390542701384689  0.7623091388495665  0.8420167455378333  1.0000
  H   H14       1.0  0.19533331512061378  0.9692424641846388  0.1315032504655137  1.0000
  H   H15       1.0  0.5990037323140528  0.3760732797108802  0.5689259827822327  1.0000
  H   H16       1.0  0.27350966186529035  0.09579601518436219  0.2507356577513136  1.0000
  H   H17       1.0  0.17995898981610028  0.10655529936430948  0.010660821298877493  1.0000
  H   H18       1.0  0.25667675273464857  0.2329222150741828  0.1281385479543715  1.0000
  H   H19       1.0  0.3332340138036258  0.34763037526440843  0.23403680326655524  1.0000
  H   H20       1.0  0.36856459770926625  0.7595379692219949  0.40892458194556275  1.0000
  H   H21       1.0  0.3165851498450251  0.7258546115079552  0.4564806338951327  1.0000
  H   H22       1.0  0.19272883625881582  0.6184757464367862  0.3340199510263488  1.0000
  H   H23       1.0  0.7783417504640086  0.7539268067869641  0.5986458405287038  1.0000
  H   H24       1.0  0.2228258324249097  0.716571354716919  0.3393758858453638  1.0000
  H   H25       1.0  0.2455628846472706  0.6508280154293331  0.2864599034047545  1.0000
  H   H26       1.0  0.6296391531734501  0.025901945372147697  0.4898593443249126  1.0000
  H   H27       1.0  0.6982933665049132  0.07109224247185614  0.5864038408165229  1.0000
  H   H28       1.0  0.7768468149305575  0.1998248134602675  0.5828919365992248  1.0000
  H   H29       1.0  0.7707648304871598  0.11602282755164593  0.517737510095337  1.0000
  H   H30       1.0  0.7078819703839584  0.15576914780147175  0.4868525054214389  1.0000
  H   H31       1.0  0.9219977291141888  0.3722797351211611  0.4868591240423255  1.0000
  H   H32       1.0  0.9604029407820177  0.40869041297678865  0.5844927373105406  1.0000
  H   H33       1.0  0.0344407780165596  0.33161216034889657  0.5856158270258334  1.0000
  H   H34       1.0  0.33501819262743726  0.5072869029984161  0.5982629003866862  1.0000
  H   H35       1.0  0.9290898075662214  0.26486540971459505  0.5227517668537587  1.0000
  H   H36       1.0  0.9981728494287551  0.29632586153686447  0.48852403105335895  1.0000
  H   H37       1.0  0.9001854057099267  0.7275747178246873  0.6260603073209694  1.0000
  H   H38       1.0  0.00010727307029870448  0.8120432195654529  0.669571455214559  1.0000
  H   H39       1.0  0.8524031228720262  0.7787734637212083  0.5356529151777779  1.0000
  H   H40       1.0  0.951731518269206  0.8642307343898707  0.5808153013252877  1.0000
  H   H41       1.0  0.9335239731726901  0.7647510342122672  0.5333875879167422  1.0000
  H   H42       1.0  0.1396017030579841  0.8852022316754498  0.8243276852529959  1.0000
  H   H43       1.0  0.18463916893765742  0.9914604455137733  0.8794885479289578  1.0000
  H   H44       1.0  0.1814158963746024  0.013666746930844896  0.7682534243375159  1.0000
  H   H45       1.0  0.6244370735865203  0.4711236685809153  0.7442267582183248  1.0000
  H   H46       1.0  0.2402885186480219  0.9682962903088989  0.7924635929366417  1.0000
  H   H47       1.0  0.14092364168986654  0.9079272044925091  0.715121283541656  1.0000
  H   H48       1.0  0.3773616714794059  0.005897405031305396  0.4934006771039492  1.0000
  H   H49       1.0  0.4770464022485541  0.9487053659973623  0.45925749043286157  1.0000
  H   H50       1.0  0.3994665897004097  0.9591983056042112  0.609053856757015  1.0000
  H   H51       1.0  0.6803769929664584  0.5291457559886438  0.42506898681542543  1.0000
  C   C1        1.0  0.30709211676543907  0.25680284162447714  0.3347902397177053  1.0000
  C   C2        1.0  0.3118064637919459  0.5057364182989159  0.5443131524079163  1.0000
  C   C3        1.0  0.5706459621875624  0.4765154529727127  0.7279723853988714  1.0000
  C   C4        1.0  0.6853190103961283  0.5260418920454198  0.4758274261478023  1.0000
  C   C5        1.0  0.41360377285018046  0.6647247848308807  0.4549828804395021  1.0000
  C   C6        1.0  0.501654812323885  0.4392756316266714  0.7352417684374475  1.0000
  C   C7        1.0  0.47550255625407806  0.7378811353392435  0.5200952233200837  1.0000
  C   C8        1.0  0.2643060422539634  0.5370505207608004  0.515717129608845  1.0000
  C   C9        1.0  0.7831737307401737  0.7431692859451572  0.7016620236543359  1.0000
  C   C10       1.0  0.49009385867054783  0.9871020372346421  0.5144451849073876  1.0000
  C   C11       1.0  0.43447024289341124  0.016461183010477453  0.533388851313468  1.0000
  C   C12       1.0  0.7524126360152438  0.5354895062804063  0.533151782679113  1.0000
  C   C13       1.0  0.4998118232399447  0.22848176145120638  0.5771832041860065  1.0000
  C   C14       1.0  0.4856067032147208  0.8158796489790204  0.5462057580269928  1.0000
  C   C15       1.0  0.5664330079822617  0.07428249294186158  0.5702031679063636  1.0000
  C   C16       1.0  0.43797764072498063  0.4885232879370136  0.2625515893294263  1.0000
  C   C17       1.0  0.5100164221586211  0.1046510660620185  0.5889947129645207  1.0000
  C   C18       1.0  0.5775854291648058  0.04871939647691181  0.6347755390208363  1.0000
  C   C19       1.0  0.5023458892917462  0.9604994157769228  0.5784663946752675  1.0000
  C   C20       1.0  0.5223562222592549  0.07876054849861448  0.6535265673356321  1.0000
  C   C21       1.0  0.44677687489438256  0.9923816323512468  0.5977100164640206  1.0000
  C   C22       1.0  0.50879547365426  0.17481660285698555  0.5879719694690736  1.0000
  C   C23       1.0  0.5091118476455989  0.5027299674512377  0.2578390337578682  1.0000
  C   C24       1.0  0.495900133971368  0.8843166901331896  0.5666836903991382  1.0000
  C   C25       1.0  0.058591449539655116  0.6114425084208149  0.5145869880929724  1.0000
  C   C26       1.0  0.9853749246727971  0.5349558099104781  0.501441416478059  1.0000
  C   C27       1.0  0.8300167566913783  0.5547855277323349  0.5426401160981343  1.0000
  C   C28       1.0  0.5378931429310683  0.35656793661483016  0.5603836019802059  1.0000
  C   C29       1.0  0.22646488356602393  0.5719647698685366  0.5467894229039274  1.0000
  C   C30       1.0  0.052637604034991604  0.6654233228769327  0.578434150846185  1.0000
  C   C31       1.0  0.976271933598582  0.5887433363621566  0.5647706215887779  1.0000
  C   C32       1.0  0.11227121155950211  0.6548420971849608  0.6369561372227253  1.0000
  C   C33       1.0  0.11925218521668061  0.599417882218475  0.5726143857568219  1.0000
  C   C34       1.0  0.4864688964627673  0.2883207425113809  0.5634099460465976  1.0000
  C   C35       1.0  0.038486175381258605  0.5786306647678714  0.6234680392746554  1.0000
  C   C36       1.0  0.044188646164776905  0.5219663375822209  0.5594458593534101  1.0000
  C   C37       1.0  0.8996722665903646  0.5754247736175555  0.5558430941718981  1.0000
  C   C38       1.0  0.1853811475559226  0.5948935372530854  0.5669038932598199  1.0000
  C   C39       1.0  0.4878423206196274  0.39100271917308055  0.7738293552667487  1.0000
  C   C40       1.0  0.5662382329691269  0.5533821430499515  0.3330274193352026  1.0000
  C   C41       1.0  0.552896996458621  0.38803347814337014  0.8214383119858653  1.0000
  C   C42       1.0  0.5451817493815623  0.357700482146434  0.8705416152907616  1.0000
  C   C43       1.0  0.47324257744747195  0.3303113791554964  0.8762810204674096  1.0000
  C   C44       1.0  0.40530450679862173  0.32118648400531663  0.8200014983704946  1.0000
  C   C45       1.0  0.4539893537847489  0.4690903663432239  0.7016532354212259  1.0000
  C   C46       1.0  0.41177461878774574  0.35060700735899525  0.769854249602119  1.0000
  C   C47       1.0  0.45786653665638255  0.4090194166007066  0.057657914885069786  1.0000
  C   C48       1.0  0.45694850606345483  0.447534856168005  0.12166707544899684  1.0000
  C   C49       1.0  0.5183773526726726  0.3889216418609677  0.0610449099548021  1.0000
  C   C50       1.0  0.514987759804626  0.46701309913270705  0.19196762507488782  1.0000
  C   C51       1.0  0.5734405022528223  0.4446247411229648  0.19306623478086496  1.0000
  C   C52       1.0  0.41729791420635104  0.29524018612708147  0.5497787150388191  1.0000
  C   C53       1.0  0.5771581040024003  0.40756224079760267  0.13019188277575464  1.0000
  C   C54       1.0  0.2693306765918777  0.17368150503184407  0.19846647726345884  1.0000
  C   C55       1.0  0.24530844429774126  0.17568573768057408  0.12971622247238912  1.0000
  C   C56       1.0  0.531224865995334  0.7150247916108868  0.5508837177527043  1.0000
  C   C57       1.0  0.2026060090560335  0.10541986164159307  0.0636131120455445  1.0000
  C   C58       1.0  0.18249737473190208  0.029981661840771796  0.0640118107852956  1.0000
  C   C59       1.0  0.21104596310932777  0.028040450569449062  0.132137819682228  1.0000
  C   C60       1.0  0.2540724044625122  0.09884489787327057  0.1984806365746508  1.0000
  C   C61       1.0  0.9641876250861329  0.842465714817571  0.8875350672898108  1.0000
  C   C62       1.0  0.8856929373942604  0.7967206697053367  0.8309303257736003  1.0000
  C   C63       1.0  0.029320925767997597  0.8933431299795201  0.880733433379156  1.0000
  C   C64       1.0  0.7238862136370586  0.525542811940447  0.5833309417921555  1.0000
  C   C65       1.0  0.8666013167160997  0.7945086380050624  0.7608536428580165  1.0000
  C   C66       1.0  0.9304118233544898  0.8398923184841178  0.7502869774751844  1.0000
  C   C67       1.0  0.25370493056408344  0.516207487282621  0.4429937666840543  1.0000
  C   C68       1.0  0.010392156495889496  0.8887258454798044  0.8090797286022564  1.0000
  C   C69       1.0  0.32801850573005703  0.32621885497285763  0.2741377861187644  1.0000
  C   C70       1.0  0.30231535789783937  0.2469058191112409  0.2658278945117587  1.0000
  C   C71       1.0  0.32068436676436823  0.7067104969667851  0.4052086144005785  1.0000
  C   C72       1.0  0.2407835418366773  0.6705593225173344  0.3371769390771462  1.0000
  C   C73       1.0  0.6711233844974913  0.08400504969773694  0.5410327986894714  1.0000
  C   C74       1.0  0.7354251302743009  0.1425329488798113  0.5315753748963701  1.0000
  C   C75       1.0  0.9727376671167178  0.3875578179259519  0.5385756244546158  1.0000
  C   C76       1.0  0.9844815936629913  0.3158858202016432  0.533552412538583  1.0000
  C   C77       1.0  0.9354985109454077  0.7912891638807054  0.6382077889417772  1.0000
  C   C78       1.0  0.7165045211250385  0.6928557386099568  0.7061151810521693  1.0000
  C   C79       1.0  0.9170748797684212  0.800441967202623  0.5679671614532468  1.0000
  C   C80       1.0  0.1458724400684019  0.9419384115789242  0.822717364942804  1.0000
  C   C81       1.0  0.17868681857269308  0.958712136921598  0.771348770843929  1.0000
  C   C82       1.0  0.7496928289082946  0.7269141952816156  0.6266456013693897  1.0000
  N   N1        1.0  0.3310150181210645  0.3330301900629067  0.3791169874080893  1.0000
  N   N2        1.0  0.5289447582941947  0.36248227198704086  0.9988316365574477  1.0000
  N   N3        1.0  0.12555354166695312  0.9545767049489341  0.0011393222765577885  1.0000
  N   N4        1.0  0.6238108632889096  0.5131819091945574  0.49195541815458926  1.0000
  N   N5        1.0  0.10185297936232018  0.9589773392038337  0.9403676822376213  1.0000
  N   N6        1.0  0.4496088475562559  0.5219977801256376  0.3308099885090243  1.0000
  N   N7        1.0  0.5026007212176251  0.40030563569153077  0.5474096116133964  1.0000
  N   N8        1.0  0.5329395920951044  0.5646418016679604  0.37691130680290297  1.0000
  N   N9        1.0  0.4271553553421299  0.3616374715166728  0.541544155629552  1.0000
  N   N10       1.0  0.648880620831271  0.5118722651218518  0.5593317186498156  1.0000
  N   N11       1.0  0.34483537664760894  0.37689979766709303  0.3410971186238143  1.0000
  N   N12       1.0  0.5077138379900532  0.6375612662529588  0.5099244470370651  1.0000
  N   N13       1.0  0.4879896550019325  0.5180074946084118  0.677052620981982  1.0000
  N   N14       1.0  0.2903970660589862  0.47479303721748056  0.42839820157936975  1.0000
  N   N15       1.0  0.6494388063541477  0.6493436101437594  0.6392477488288293  1.0000
  N   N16       1.0  0.6709765114097052  0.6709191878165937  0.5906018404581416  1.0000
  N   N17       1.0  0.3266391679187777  0.46864152088655686  0.49167394592862484  1.0000
  N   N18       1.0  0.562235687994992  0.5228039950197996  0.6941415347765771  1.0000
  N   N19       1.0  0.4330396983620091  0.6068200491628629  0.45040813326232143  1.0000
  N   N20       1.0  0.4644471713496188  0.33028653933398994  0.9378546158334942  1.0000
  O   O1        1.0  0.3432839395346221  0.6447572323838742  0.39956931795131834  1.0000
  O   O2        1.0  0.6253046834642788  0.12067587018416491  0.5579562863059948  1.0000
  O   O3        1.0  0.04650419982359471  0.4525091400987478  0.5512593804142938  1.0000
  O   O4        1.0  0.9143751932601631  0.8403214035559685  0.6830331584256158  1.0000
  O   O5        1.0  0.06614412511934378  0.9335666371436488  0.7938928181345163  1.0000
  F   F1        1.0  0.28972835566315785  0.20107328308470326  0.3594155551768736  1.0000
  F   F2        1.0  0.6472317609799917  0.5937032982268988  0.3633531834893802  1.0000
  F   F3        1.0  0.34768361560630023  0.24545738797082353  0.5443873872202191  1.0000
  F   F4        1.0  0.7625010461803114  0.5271874722921553  0.6482084130707761  1.0000
  F   F5        1.0  0.379638225680246  0.4524670379363798  0.6935795984496167  1.0000
  F   F6        1.0  0.6012602081201662  0.7646344547163579  0.6133921155034514  1.0000
  F   F7        1.0  0.649725764476223  0.06486088859862343  0.6870662698577945  1.0000
  F   F8        1.0  0.028960925717989  0.5642160108024328  0.6795353934993074  1.0000
  F   F9        1.0  0.0579547544342773  0.7388173745029148  0.5886777942593256  1.0000
  F   F10       1.0  0.3614928115074605  0.4448891853683889  0.2056465971975072  1.0000
  F   F11       1.0  0.6292227067356891  0.4592108983266813  0.25951003619963603  1.0000
  F   F12       1.0  0.6102318162265518  0.35891106112939747  0.9168430025815297  1.0000
  F   F13       1.0  0.9769316021989172  0.8434175889374701  0.9539596384494972  1.0000
