data_image0
_chemical_formula_structural       Cd2H36C54N8O10
_chemical_formula_sum              "Cd2 H36 C54 N8 O10"
_cell_length_a       9.473531702262337
_cell_length_b       10.660383137986768
_cell_length_c       13.591
_cell_angle_alpha    93.86411145612858
_cell_angle_beta     102.44231682366083
_cell_angle_gamma    104.85417107780542

_space_group_name_H-M_alt    "P 1"
_space_group_IT_number       1

loop_
  _space_group_symop_operation_xyz
  'x, y, z'

loop_
  _atom_site_type_symbol
  _atom_site_label
  _atom_site_symmetry_multiplicity
  _atom_site_fract_x
  _atom_site_fract_y
  _atom_site_fract_z
  _atom_site_occupancy
  Cd  Cd1       1.0  0.5599952958091308  0.6561946013021895  0.17905310816342274  1.0000
  Cd  Cd2       1.0  0.4400016324154948  0.3438023135835593  0.8209456788076678  1.0000
  H   H1        1.0  0.5890299841913703  0.744456079048895  0.011226707024043504  1.0000
  H   H2        1.0  0.4109717512710063  0.2555457297363617  0.988775267941527  1.0000
  H   H3        1.0  0.4248659973709437  0.646893255884649  0.972205981960421  1.0000
  H   H4        1.0  0.5751365061808755  0.35310757412071336  0.027794585059588404  1.0000
  H   H5        1.0  0.8511154790720495  0.5890659604396404  0.3603473403588636  1.0000
  H   H6        1.0  0.14888733735094206  0.4109358483456163  0.6396555327294704  1.0000
  H   H7        1.0  0.5171178494657412  0.3437328202104482  0.17834798071063324  1.0000
  H   H8        1.0  0.48288744174967496  0.6562699673547172  0.8216560515674444  1.0000
  H   H9        1.0  0.3316769926498395  0.1414796986288138  0.20353450991429153  1.0000
  H   H10       1.0  0.6683284409126671  0.8585201525966397  0.7964701243108507  1.0000
  H   H11       1.0  0.09985769026138058  0.1650134826148602  0.25829444982831257  1.0000
  H   H12       1.0  0.9001398637056042  0.8349853898306918  0.7417008556880871  1.0000
  H   H13       1.0  0.03511289141517435  0.7904215408502893  0.33588216610377225  1.0000
  H   H14       1.0  0.9648849754229829  0.20957831037516433  0.6641161812619882  1.0000
  H   H15       1.0  0.2311756355375465  0.9695588174644315  0.29441310589515973  1.0000
  H   H16       1.0  0.7688259294007479  0.030439076201219  0.7055879007301795  1.0000
  H   H17       1.0  0.4380828380569072  0.9119370657990445  0.2260354782787672  1.0000
  H   H18       1.0  0.5619165649601428  0.088060827866606  0.7739644678820595  1.0000
  H   H19       1.0  0.6992936061240727  0.132123541536707  0.3357244597042736  1.0000
  H   H20       1.0  0.3007099783883688  0.8678772884686481  0.6642792127815937  1.0000
  H   H21       1.0  0.4948760660632061  0.0288231105814774  0.41631341207471445  1.0000
  H   H22       1.0  0.5051184155460007  0.9711796769836809  0.5836860536618572  1.0000
  H   H23       1.0  0.3959170493850763  0.16707772943014024  0.524387459124668  1.0000
  H   H24       1.0  0.6040791389270979  0.8329270156948283  0.4756108948420418  1.0000
  H   H25       1.0  0.5019332756146255  0.408314675765574  0.5506695385030084  1.0000
  H   H26       1.0  0.4980643065293506  0.5916910481393032  0.4493283407496448  1.0000
  H   H27       1.0  0.7072682731900457  0.5128992659534434  0.47071815537882594  1.0000
  H   H28       1.0  0.29273764376772243  0.4871054791715252  0.529286810130749  1.0000
  H   H29       1.0  0.8172342326062036  0.334012556994452  0.06465398825718435  1.0000
  H   H30       1.0  0.18276579615319827  0.6659872942310017  0.935350570040306  1.0000
  H   H31       1.0  0.985614247137015  0.7297841683039792  0.007359560836491179  1.0000
  H   H32       1.0  0.014383619701142377  0.2702156829214815  0.9926432012154576  1.0000
  H   H33       1.0  0.8939527805250336  0.7714586590109249  0.531294945884852  1.0000
  H   H34       1.0  0.10605077581041661  0.22853531953511214  0.46869732349239257  1.0000
  H   H35       1.0  0.9070582170975144  0.0728623335339122  0.3346084235451697  1.0000
  H   H36       1.0  0.09294303496960048  0.9271345813518366  0.6653858623256497  1.0000
  C   C1        1.0  0.413859627167689  0.34878332450956867  0.19926508365167445  1.0000
  C   C2        1.0  0.5861382396704684  0.6512165267158849  0.8007376784002742  1.0000
  C   C3        1.0  0.3100229618824955  0.23627355344767412  0.21470821080227148  1.0000
  C   C4        1.0  0.6899790864510535  0.7637292341174913  0.7852931271074935  1.0000
  C   C5        1.0  0.18364825724589906  0.2492130237644048  0.2449626419187041  1.0000
  C   C6        1.0  0.816350377681708  0.7507858486811472  0.7550328259394306  1.0000
  C   C7        1.0  0.1630674639682681  0.3747591643534279  0.2601296677987293  1.0000
  C   C8        1.0  0.8369268471168496  0.6252397080921241  0.7398651506924592  1.0000
  C   C9        1.0  0.040628253148589984  0.3999833012318348  0.2958957069368323  1.0000
  C   C10       1.0  0.9593660579365277  0.6000155712137172  0.7041005831164141  1.0000
  C   C11       1.0  0.028034683477827064  0.5275584525596244  0.3121936766160331  1.0000
  C   C12       1.0  0.971962557617978  0.472439441106026  0.687804473299259  1.0000
  C   C13       1.0  0.13163578454805958  0.6386245232646957  0.29087327900658977  1.0000
  C   C14       1.0  0.8683627080324499  0.3613772855205681  0.7091252658096393  1.0000
  C   C15       1.0  0.12474452377772847  0.7687366721008786  0.30555339709623996  1.0000
  C   C16       1.0  0.8752524044468971  0.23126024278487023  0.6944461256558795  1.0000
  C   C17       1.0  0.2332841967731198  0.868118068324769  0.2821151229557444  1.0000
  C   C18       1.0  0.7667169129469045  0.1318817829006846  0.7178859187783215  1.0000
  C   C19       1.0  0.34845455350594534  0.8368832440624702  0.24418332468453488  1.0000
  C   C20       1.0  0.6515440814216547  0.1631156283830819  0.7558172936408238  1.0000
  C   C21       1.0  0.27090220905692775  0.4835309749660298  0.23976970183326068  1.0000
  C   C22       1.0  0.7290967387418519  0.5164688762594238  0.7602280720932055  1.0000
  C   C23       1.0  0.2532281594068095  0.6152825801396204  0.2529244479215079  1.0000
  C   C24       1.0  0.746766919767751  0.3847153135260299  0.7470741130913437  1.0000
  C   C25       1.0  0.8449328191007481  0.384078127809218  0.35541360939446776  1.0000
  C   C26       1.0  0.1550686034904487  0.6159227021961371  0.6445904741889591  1.0000
  C   C27       1.0  0.7171499053075578  0.329047206546889  0.3978102853714701  1.0000
  C   C28       1.0  0.2828550730366786  0.6709546022383748  0.6021943839623987  1.0000
  C   C29       1.0  0.6553069541565932  0.19226565145213934  0.3825704473353824  1.0000
  C   C30       1.0  0.3446937003451609  0.8077361573331246  0.6174350441935985  1.0000
  C   C31       1.0  0.5406559268012714  0.1348856584227747  0.4279063009610765  1.0000
  C   C32       1.0  0.4593453534428349  0.8651181079222923  0.5720942375511484  1.0000
  C   C33       1.0  0.4851020034178646  0.21232183044307362  0.4884285311595491  1.0000
  C   C34       1.0  0.5148974277761766  0.787682914681895  0.5115725171754661  1.0000
  C   C35       1.0  0.5445493229438655  0.3482606560414041  0.5027791608720307  1.0000
  C   C36       1.0  0.45545258304259306  0.6517450678634731  0.4972237824337568  1.0000
  C   C37       1.0  0.6598635877530655  0.4068024608155483  0.45780004412151226  1.0000
  C   C38       1.0  0.3401409353729079  0.5932013055295187  0.542205396102119  1.0000
  C   C39       1.0  0.8967432355578853  0.4064510788303934  0.035831160643056116  1.0000
  C   C40       1.0  0.10325602511207417  0.5935497511749617  0.9641711266948362  1.0000
  C   C41       1.0  0.8889745534827186  0.5364154319012329  0.039663871415555677  1.0000
  C   C42       1.0  0.11102268761308659  0.4635824617644104  0.9603364858428306  1.0000
  C   C43       1.0  0.9932298925735097  0.6293701592824945  0.0036884868514234924  1.0000
  C   C44       1.0  0.006766893304032372  0.3706296919429661  0.9963133770777544  1.0000
  C   C45       1.0  0.9399784519678602  0.871580991621336  0.5176641014645823  1.0000
  C   C46       1.0  0.0600237105357948  0.1284120081447924  0.4823293784077548  1.0000
  C   C47       1.0  0.8879006061965099  0.9122982355832221  0.42403917609885866  1.0000
  C   C48       1.0  0.11210218204949739  0.0876967217427165  0.5759537654429108  1.0000
  C   C49       1.0  0.9488351833017605  0.0410206657317929  0.40692077369399016  1.0000
  C   C50       1.0  0.05116976686549175  0.9589742915941459  0.5930746998743501  1.0000
  C   C51       1.0  0.7727394788107773  0.5785088404066414  0.0827628869540504  1.0000
  C   C52       1.0  0.2272591561168227  0.42149003203891067  0.9172384671523446  1.0000
  C   C53       1.0  0.7683751318408767  0.8208400626735469  0.34137110011295135  1.0000
  C   C54       1.0  0.23162549448388603  0.1791548946523918  0.6586237240884358  1.0000
  N   N1        1.0  0.3932980442565963  0.4675856715673988  0.2097469813198032  1.0000
  N   N2        1.0  0.6067005906710035  0.5324132008781532  0.7902521654434975  1.0000
  N   N3        1.0  0.357196882824141  0.7145063927991444  0.23046453193693844  1.0000
  N   N4        1.0  0.6428020649746387  0.2854934584263091  0.7695347135515929  1.0000
  N   N5        1.0  0.9262967608050657  0.3122552585322254  0.32219359152249166  1.0000
  N   N6        1.0  0.07370187412254124  0.6877436139133266  0.6778048194597728  1.0000
  N   N7        1.0  0.903091012756576  0.5155478443707722  0.35061686811520326  1.0000
  N   N8        1.0  0.09691180366642269  0.4844539644144916  0.649387476535189  1.0000
  O   O1        1.0  0.7837423193829238  0.6993920735380996  0.09931072330571308  1.0000
  O   O2        1.0  0.216259103208273  0.3006087564672555  0.9006918887156486  1.0000
  O   O3        1.0  0.6650891177830403  0.490126972731872  0.1028509546409708  1.0000
  O   O4        1.0  0.3349098300157394  0.5098728784935815  0.8971504981906474  1.0000
  O   O5        1.0  0.6975586817579185  0.8683167606450652  0.2701748420980578  1.0000
  O   O6        1.0  0.30243901455615685  0.1316791754607749  0.7298225369274788  1.0000
  O   O7        1.0  0.7414575314742606  0.6964439884704703  0.34499780405641894  1.0000
  O   O8        1.0  0.25854556964291936  0.3035519476353699  0.6549974435536753  1.0000
  O   O9        1.0  0.4866592984226373  0.7275192716085996  0.020930193837422503  1.0000
  O   O10       1.0  0.5133410432079373  0.2724815583967626  0.9790707842801394  1.0000
