data_image0
_chemical_formula_structural       Cu4H24C28N24O12
_chemical_formula_sum              "Cu4 H24 C28 N24 O12"
_cell_length_a       7.58501225733516
_cell_length_b       10.051699759442968
_cell_length_c       12.713307367249195
_cell_angle_alpha    90.00711730674821
_cell_angle_beta     89.99028916819343
_cell_angle_gamma    100.85190126414956

_space_group_name_H-M_alt    "P 1"
_space_group_IT_number       1

loop_
  _space_group_symop_operation_xyz
  'x, y, z'

loop_
  _atom_site_type_symbol
  _atom_site_label
  _atom_site_symmetry_multiplicity
  _atom_site_fract_x
  _atom_site_fract_y
  _atom_site_fract_z
  _atom_site_occupancy
  Cu  Cu1       1.0  0.7910832938881709  0.36565081900664614  0.444737079286206  1.0000
  Cu  Cu2       1.0  0.20896427986902913  0.1343887679350857  0.9446652419754145  1.0000
  Cu  Cu3       1.0  0.20893259973235695  0.6343348981345828  0.5552633095813491  1.0000
  Cu  Cu4       1.0  0.7910216275050246  0.8656192702055279  0.0553186313892695  1.0000
  H   H1        1.0  0.6348951464201421  0.1806392075514296  0.6283120244649965  1.0000
  H   H2        1.0  0.3650166361907167  0.31930068830956065  0.1283053117369377  1.0000
  H   H3        1.0  0.3651290732023397  0.8193586599029673  0.3716899377343736  1.0000
  H   H4        1.0  0.63492967468666  0.6806547032139321  0.87169035969994  1.0000
  H   H5        1.0  0.3351367585517409  0.0333726312610523  0.6635090774813933  1.0000
  H   H6        1.0  0.6647739045813594  0.4665552848161668  0.1635163729525786  1.0000
  H   H7        1.0  0.664886397322192  0.9666262506157536  0.336494457976741  1.0000
  H   H8        1.0  0.3351780494554717  0.5334173265130389  0.8364903111308948  1.0000
  H   H9        1.0  0.16660850318656628  0.142710578891915  0.3559932870893335  1.0000
  H   H10       1.0  0.8334090406550625  0.35735079923816926  0.8559540327071886  1.0000
  H   H11       1.0  0.8334063989908458  0.8572974304820347  0.6440086760829828  1.0000
  H   H12       1.0  0.1665485599255447  0.6426390302862474  0.1440369203915779  1.0000
  H   H13       1.0  0.4736312472637536  0.2855810387273578  0.33222461810365905  1.0000
  H   H14       1.0  0.5263881363877587  0.21450280897975202  0.8321379173060495  1.0000
  H   H15       1.0  0.5263915630126021  0.7144269625987507  0.6677789178218773  1.0000
  H   H16       1.0  0.47356310059302587  0.785461696801505  0.16786168721748854  1.0000
  H   H17       1.0  0.560987431134677  0.5480222808630018  0.3589311429721961  1.0000
  H   H18       1.0  0.4390161194929901  0.9520088550548779  0.8588964052531836  1.0000
  H   H19       1.0  0.4390298082876497  0.4519897784677127  0.641061381352742  1.0000
  H   H20       1.0  0.5609807234246985  0.0479849865697233  0.1410874668564617  1.0000
  H   H21       1.0  0.7734532932746491  0.6059299859952888  0.3478883280496632  1.0000
  H   H22       1.0  0.22654325968296254  0.8941342765262874  0.8477970688148062  1.0000
  H   H23       1.0  0.2265619340162317  0.3941003149647955  0.6521270080213526  1.0000
  H   H24       1.0  0.7734485631473048  0.1058605846340797  0.15220568145698374  1.0000
  C   C1        1.0  0.9372257919834155  0.2836157344223054  0.2555899410330369  1.0000
  C   C2        1.0  0.06275968548881387  0.2163464739959408  0.7555779922768623  1.0000
  C   C3        1.0  0.06275222259978355  0.7163609031938235  0.7444198882366493  1.0000
  C   C4        1.0  0.9372869922021608  0.7837040595177883  0.2444420626612001  1.0000
  C   C5        1.0  0.07761368443289027  0.39005511934308146  0.30268320287108  1.0000
  C   C6        1.0  0.9223625084653903  0.10991275904475371  0.8026844520793048  1.0000
  C   C7        1.0  0.9223666680919962  0.6099255678982372  0.697311681509504  1.0000
  C   C8        1.0  0.07769289035535816  0.8901357372281993  0.1973057123752966  1.0000
  C   C9        1.0  0.5269933607014393  0.17166726634830806  0.5707010484754349  1.0000
  C   C10       1.0  0.4729425576039929  0.328287971408578  0.0706819139753705  1.0000
  C   C11       1.0  0.4730287315234847  0.8283326299035283  0.4293032736640754  1.0000
  C   C12       1.0  0.5270091424303444  0.671683626713225  0.9293208371840864  1.0000
  C   C13       1.0  0.360724343568684  0.0893229564318645  0.589773629371372  1.0000
  C   C14       1.0  0.6392192543001017  0.4106213941722743  0.0897654144567994  1.0000
  C   C15       1.0  0.6392951127559667  0.9106769424394301  0.4102291197472141  1.0000
  C   C16       1.0  0.3607358457323144  0.5893532399575675  0.9102341903704243  1.0000
  C   C17       1.0  0.2273923539422212  0.08062426397168569  0.5125797531251592  1.0000
  C   C18       1.0  0.7725850338214216  0.4193675155029695  0.0125667361542838  1.0000
  C   C19       1.0  0.7726151940880966  0.9193807134655075  0.4874253565801681  1.0000
  C   C20       1.0  0.2273916184574247  0.5806141890644128  0.9874328679284832  1.0000
  C   C21       1.0  0.2666975748745982  0.15134936142156616  0.41787418498684303  1.0000
  C   C22       1.0  0.7332979449197409  0.3486941452932798  0.917834007167791  1.0000
  C   C23       1.0  0.7333157541557114  0.8486576366231161  0.5821324976796802  1.0000
  C   C24       1.0  0.2666636541641124  0.651290614518331  0.08216638440666199  1.0000
  C   C25       1.0  0.43536854651833307  0.22977641232311904  0.40454094417636105  1.0000
  C   C26       1.0  0.564643486174468  0.27027053956740593  0.9044739572186915  1.0000
  C   C27       1.0  0.5646511189569026  0.7702295656339402  0.5954602320767322  1.0000
  C   C28       1.0  0.4353218591022737  0.7297081365187309  0.0955185680917765  1.0000
  N   N1        1.0  0.03997558257447047  0.44187665431945794  0.39558875012690453  1.0000
  N   N2        1.0  0.9600427239592761  0.058132743806957904  0.8956038787383561  1.0000
  N   N3        1.0  0.9600160775497528  0.5581070611188964  0.6044084935616283  1.0000
  N   N4        1.0  0.03998644941920999  0.9419005814991548  0.1043949386493708  1.0000
  N   N5        1.0  0.18558602541688168  0.5311754485058344  0.4214948415965338  1.0000
  N   N6        1.0  0.8143745501484357  0.9688024604022584  0.9215243625664585  1.0000
  N   N7        1.0  0.8144169884526065  0.4688062286354153  0.5785000416833697  1.0000
  N   N8        1.0  0.1856246550787546  0.031221776004613802  0.0784634438096816  1.0000
  N   N9        1.0  0.309481778700281  0.5328652108908898  0.34720348557897307  1.0000
  N   N10       1.0  0.6905190318569435  0.9670946102240804  0.8472493391571234  1.0000
  N   N11       1.0  0.6905120554651276  0.46711140901905424  0.6527827455658723  1.0000
  N   N12       1.0  0.30950508235546437  0.03294479774884709  0.1527172291145646  1.0000
  N   N13       1.0  0.24419839660058779  0.4447563773202674  0.2714920177048228  1.0000
  N   N14       1.0  0.7558210213750343  0.055206695781492995  0.7715094872202144  1.0000
  N   N15       1.0  0.7557785574192977  0.5552212732024912  0.7284942143471227  1.0000
  N   N16       1.0  0.24424305183233483  0.9448448300290339  0.2284602259318547  1.0000
  N   N17       1.0  0.5623195826904349  0.24131863617251534  0.4802392141909096  1.0000
  N   N18       1.0  0.4376650731585698  0.2586837407606454  0.9801863267068996  1.0000
  N   N19       1.0  0.43769698273606383  0.7586802525844973  0.5197658947566381  1.0000
  N   N20       1.0  0.5623013807186368  0.7412888550247275  0.019810131134306602  1.0000
  N   N21       1.0  0.058970301379126434  0.997043967569219  0.5346466590528252  1.0000
  N   N22       1.0  0.941011464906488  0.5029178245108525  0.0346596326893547  1.0000
  N   N23       1.0  0.9410493180497282  0.0029670768346151005  0.4653584503394583  1.0000
  N   N24       1.0  0.0589386633742848  0.4970527616185337  0.96533682588084  1.0000
  O   O1        1.0  0.794257038610631  0.25462984908859443  0.3126344222787766  1.0000
  O   O2        1.0  0.20572972704619724  0.24534934574052164  0.8126202686846398  1.0000
  O   O3        1.0  0.20572633707877222  0.7453366517213595  0.6873927109213512  1.0000
  O   O4        1.0  0.7943240730668677  0.7547295526543465  0.1874281040772203  1.0000
  O   O5        1.0  0.9611625984323027  0.22888353085075858  0.1697869523941833  1.0000
  O   O6        1.0  0.038920051267019994  0.27109055673287236  0.669771815624614  1.0000
  O   O7        1.0  0.03878727365611914  0.7710860431133141  0.8302228779545971  1.0000
  O   O8        1.0  0.9611684596102918  0.7289690522346817  0.33023879871053907  1.0000
  O   O9        1.0  0.6800597792758651  0.522283976600157  0.3560795694399205  1.0000
  O   O10       1.0  0.3199659199562604  0.9777690795708412  0.8559556228900362  1.0000
  O   O11       1.0  0.3199647214044817  0.4777412479397968  0.6439239672495134  1.0000
  O   O12       1.0  0.6800282849708453  0.0222247656679286  0.144043194323892  1.0000
