data_image0
_chemical_formula_structural       Ag4H16C16N12O8
_chemical_formula_sum              "Ag4 H16 C16 N12 O8"
_cell_length_a       5.90199460302219
_cell_length_b       7.234316694980834
_cell_length_c       14.43657400163149
_cell_angle_alpha    89.9980979780986
_cell_angle_beta     90.00541331350253
_cell_angle_gamma    90.00354558177091

_space_group_name_H-M_alt    "P 1"
_space_group_IT_number       1

loop_
  _space_group_symop_operation_xyz
  'x, y, z'

loop_
  _atom_site_type_symbol
  _atom_site_label
  _atom_site_symmetry_multiplicity
  _atom_site_fract_x
  _atom_site_fract_y
  _atom_site_fract_z
  _atom_site_occupancy
  Ag  Ag1       1.0  0.46858180446420056  0.25011115248468485  0.1413649899566565  1.0000
  Ag  Ag2       1.0  0.0314328083412434  0.749923007403275  0.6413568667602971  1.0000
  Ag  Ag3       1.0  0.9685677805765492  0.2500848491031035  0.3586418062141519  1.0000
  Ag  Ag4       1.0  0.531456057616353  0.7498331192076505  0.8586329915584158  1.0000
  H   H1        1.0  0.12420650340892792  0.5752783579732534  0.1858904834602129  1.0000
  H   H2        1.0  0.3757402033521871  0.4247858003669406  0.6858455658692293  1.0000
  H   H3        1.0  0.6242458837970588  0.9248431896481221  0.3141358761126654  1.0000
  H   H4        1.0  0.8756916827120591  0.07519682857173389  0.8141420419571972  1.0000
  H   H5        1.0  0.8757110657279413  0.4247087606405626  0.8141414369164934  1.0000
  H   H6        1.0  0.6242298866159572  0.5752414080091126  0.3141399453358246  1.0000
  H   H7        1.0  0.3757377597114838  0.07518540178267587  0.6858385523880273  1.0000
  H   H8        1.0  0.12426485668616041  0.9248594067689734  0.18587117616170448  1.0000
  H   H9        1.0  0.7500223513661483  0.5766363612977302  0.05279094217775081  1.0000
  H   H10       1.0  0.7499681274620826  0.42339327413027644  0.5527750089048524  1.0000
  H   H11       1.0  0.2501500308312998  0.9237254606286739  0.4472327769982627  1.0000
  H   H12       1.0  0.24991319545325302  0.07625647055581908  0.9472235556036279  1.0000
  H   H13       1.0  0.25003753721154  0.42332864570858664  0.9472008054478849  1.0000
  H   H14       1.0  0.25006804358609  0.5766297885008812  0.4472271280825452  1.0000
  H   H15       1.0  0.7498793633088782  0.07630174862589456  0.5527721305636746  1.0000
  H   H16       1.0  0.7501500839078903  0.9237472407335614  0.052774425958034485  1.0000
  C   C1        1.0  0.26497205375868293  0.6540327801934464  0.15695643598685646  1.0000
  C   C2        1.0  0.23498676819140482  0.34600441400783666  0.6569168548739838  1.0000
  C   C3        1.0  0.765005496816187  0.8460727232065679  0.3430630261398946  1.0000
  C   C4        1.0  0.7349724727390523  0.1539320583271433  0.8430409396039309  1.0000
  C   C5        1.0  0.7349692336376706  0.3459446636362742  0.8430560897500641  1.0000
  C   C6        1.0  0.7650205950514817  0.6540034436414784  0.3430548035147751  1.0000
  C   C7        1.0  0.23499509315043807  0.15397936709066326  0.6569307976991041  1.0000
  C   C8        1.0  0.2650213414416598  0.8460730325339939  0.1569819772369314  1.0000
  C   C9        1.0  0.6101216466207404  0.6539284308562613  0.0833744773159708  1.0000
  C   C10       1.0  0.8898265891081679  0.34608381661688264  0.5833534912119305  1.0000
  C   C11       1.0  0.11022838475473411  0.8464563924756657  0.4166395485047545  1.0000
  C   C12       1.0  0.389839803242552  0.15350836962026188  0.9166138977572871  1.0000
  C   C13       1.0  0.3898687746121822  0.3460407210393725  0.9166221176990845  1.0000
  C   C14       1.0  0.1102061904906151  0.6539102181562981  0.4166334068585584  1.0000
  C   C15       1.0  0.889809480380052  0.15356390564864594  0.5833612031671436  1.0000
  C   C16       1.0  0.6101929794724654  0.846489811115816  0.0833993223160334  1.0000
  N   N1        1.0  0.437617897465195  0.5569527856953227  0.1201270663072691  1.0000
  N   N2        1.0  0.062329231763989405  0.44307183067335376  0.6200729276117299  1.0000
  N   N3        1.0  0.9375954865911993  0.9432544734641154  0.37989368501395393  1.0000
  N   N4        1.0  0.5624534732218791  0.05671312549224439  0.879860027933013  1.0000
  N   N5        1.0  0.5623437215054352  0.44300115946442986  0.8798882307528757  1.0000
  N   N6        1.0  0.9376611892836947  0.5569484669853181  0.3799056571974829  1.0000
  N   N7        1.0  0.062423742337948306  0.05676582367259899  0.6201209199916065  1.0000
  N   N8        1.0  0.4375369480778488  0.9432795257599478  0.12012964005040767  1.0000
  N   N9        1.0  0.5033325409017165  0.25011738850247406  0.3798744819107966  1.0000
  N   N10       1.0  0.9967333641043652  0.749916561527037  0.8798736893810853  1.0000
  N   N11       1.0  0.003333304705449801  0.25006503254901696  0.1201381461198778  1.0000
  N   N12       1.0  0.4965850269032757  0.7498890829614948  0.6201394285041458  1.0000
  O   O1        1.0  0.41184687770044803  0.2501398181241043  0.4582049683711347  1.0000
  O   O2        1.0  0.0883391231831112  0.7499422417405127  0.9581900890504682  1.0000
  O   O3        1.0  0.9118020944486959  0.25001170869364125  0.0418106651759516  1.0000
  O   O4        1.0  0.5879978291318863  0.7497878607234792  0.5417964728748217  1.0000
  O   O5        1.0  0.3672622254662912  0.24995315286192007  0.310375385113808  1.0000
  O   O6        1.0  0.1327447350003936  0.749988776679501  0.8103719625156884  1.0000
  O   O7        1.0  0.8672490767422971  0.25004396127983597  0.18962047596753  1.0000
  O   O8        1.0  0.6327349737883664  0.7500643800786334  0.6896115120722044  1.0000
