data_image0
_chemical_formula_structural       Cs2H26C24O18
_chemical_formula_sum              "Cs2 H26 C24 O18"
_cell_length_a       8.18659823352584
_cell_length_b       9.6855833569476
_cell_length_c       9.929620021085245
_cell_angle_alpha    116.2887396370335
_cell_angle_beta     95.24825722055475
_cell_angle_gamma    97.38631041226135

_space_group_name_H-M_alt    "P 1"
_space_group_IT_number       1

loop_
  _space_group_symop_operation_xyz
  'x, y, z'

loop_
  _atom_site_type_symbol
  _atom_site_label
  _atom_site_symmetry_multiplicity
  _atom_site_fract_x
  _atom_site_fract_y
  _atom_site_fract_z
  _atom_site_occupancy
  Cs  Cs1       1.0  0.7620236124675233  0.45389215205369726  0.1852994146551836  1.0000
  Cs  Cs2       1.0  0.23797691896148618  0.546107020002985  0.8147008760801027  1.0000
  H   H1        1.0  0.15399187945499904  0.6350889356347409  0.48847630829943256  1.0000
  H   H2        1.0  0.8460086410825198  0.364910238888342  0.5115229756377386  1.0000
  H   H3        1.0  0.26141708792036417  0.1694456147333909  0.82516427756957  1.0000
  H   H4        1.0  0.738580504659339  0.830551226644239  0.17483479926647055  1.0000
  H   H5        1.0  0.6645658463688163  0.4161389301886444  0.7282686492568331  1.0000
  H   H6        1.0  0.3354361435933554  0.5838614096739575  0.27173124162996487  1.0000
  H   H7        1.0  0.7697972111739875  0.6709989324718251  0.9480903013388796  1.0000
  H   H8        1.0  0.23020207339513382  0.3290002519369537  0.051907895980292613  1.0000
  H   H9        1.0  0.926979086004501  0.6963502323257985  0.07400087751796756  1.0000
  H   H10       1.0  0.07302046469536799  0.30365011990897967  0.9259998605271704  1.0000
  H   H11       1.0  0.8236838871033997  0.8108716023983501  0.47726844885444547  1.0000
  H   H12       1.0  0.1763168777818649  0.18912874488354697  0.5227313622124683  1.0000
  H   H13       1.0  0.5845036194016727  0.6951449697079537  0.5117640437105777  1.0000
  H   H14       1.0  0.4154969011358389  0.3048542048151289  0.48823524022660075  1.0000
  H   H15       1.0  0.4902410891527965  0.8074990198989908  0.7659830388450004  1.0000
  H   H16       1.0  0.5097579401770673  0.1924989942173738  0.23401362454632138  1.0000
  H   H17       1.0  0.4783367031241852  0.9152552663910497  0.5773283119651822  1.0000
  H   H18       1.0  0.5216640508695817  0.08474508335724812  0.4226704923036165  1.0000
  H   H19       1.0  0.7177737306964787  0.0318553704219298  0.5436259925770344  1.0000
  H   H20       1.0  0.2822250836219952  0.9681473347497517  0.4563757199076904  1.0000
  H   H21       1.0  0.992233042908481  0.0548407941943125  0.6942812412866957  1.0000
  H   H22       1.0  0.007767499412025773  0.9451583753959693  0.30572005624670584  1.0000
  H   H23       1.0  0.983048761346012  0.08424348572399509  0.9570168966618127  1.0000
  H   H24       1.0  0.016948328308551208  0.9157568838157601  0.04298267494544214  1.0000
  H   H25       1.0  0.7121731879992482  0.9529005271303745  0.9951716831145347  1.0000
  H   H26       1.0  0.2878248823844629  0.047098662231285005  0.004827441182868599  1.0000
  C   C1        1.0  0.840952773499275  0.8194625541003333  0.5919185201874979  1.0000
  C   C2        1.0  0.15904799138598952  0.18053779318155694  0.40808129087941575  1.0000
  C   C3        1.0  0.6758259073649738  0.7388981583192302  0.6168647031394272  1.0000
  C   C4        1.0  0.324172640822745  0.2611033790264514  0.3831344686193319  1.0000
  C   C5        1.0  0.6047542375009911  0.8633909590920295  0.7468137246464082  1.0000
  C   C6        1.0  0.39524554665513284  0.13661056836796354  0.2531865337303572  1.0000
  C   C7        1.0  0.5614125935705162  0.9822133291276027  0.6874874998507818  1.0000
  C   C8        1.0  0.43858671278159284  0.017785850348360596  0.3125127110646204  1.0000
  C   C9        1.0  0.7280251781535227  0.0629382253861621  0.6654913958747954  1.0000
  C   C10       1.0  0.2719755976232392  0.9370621194293278  0.33450942199022654  1.0000
  C   C11       1.0  0.8755525304128043  0.9971953848740255  0.7083386887315797  1.0000
  C   C12       1.0  0.12444726463481709  0.0028061401195671005  0.2916625764433007  1.0000
  C   C13       1.0  0.9916669462827061  0.7476491892635975  0.6068714381909999  1.0000
  C   C14       1.0  0.008332360069403017  0.252349990212366  0.3931287727244026  1.0000
  C   C15       1.0  0.6957139981225495  0.5904053634818567  0.6305281665113469  1.0000
  C   C16       1.0  0.30428726634971787  0.40959732685125516  0.36947370561315296  1.0000
  C   C17       1.0  0.4692752315390791  0.09691067768832079  0.7977506409320796  1.0000
  C   C18       1.0  0.5307257668024477  0.9030908448187844  0.20224869046645472  1.0000
  C   C19       1.0  0.7580205783686298  0.24092251436337606  0.7450552837407186  1.0000
  C   C20       1.0  0.24198140070204496  0.7590778279656264  0.2549436003479641  1.0000
  C   C21       1.0  0.8766159500908374  0.016992141364404696  0.8669359585857066  1.0000
  C   C22       1.0  0.12338433699041935  0.9830058579334633  0.13306380501984452  1.0000
  C   C23       1.0  0.7350182329556461  0.9481250898428114  0.8872467042508773  1.0000
  C   C24       1.0  0.2649810733964629  0.051874089633159294  0.11275350666452509  1.0000
  O   O1        1.0  0.060571880824483074  0.6948691665445351  0.4805974827731985  1.0000
  O   O2        1.0  0.9394288840607885  0.3051311807373551  0.5194023282937152  1.0000
  O   O3        1.0  0.04512572071128323  0.7402930403875557  0.7229870104594552  1.0000
  O   O4        1.0  0.9548765244901388  0.25970846976745315  0.27701441435519303  1.0000
  O   O5        1.0  0.7310492363884009  0.48136636023250634  0.5125778783375948  1.0000
  O   O6        1.0  0.268951302593969  0.5186386805711009  0.4874259750246067  1.0000
  O   O7        1.0  0.6712986297739577  0.5790029635010255  0.7512065802013977  1.0000
  O   O8        1.0  0.3287033819712094  0.4209973714287756  0.24879532428163031  1.0000
  O   O9        1.0  0.5326721451419871  0.19133085890883447  0.9300228912110526  1.0000
  O   O10       1.0  0.4673261695894766  0.8086695032116326  0.06997676021608615  1.0000
  O   O11       1.0  0.3110579120292414  0.08506127746428399  0.7405545470219151  1.0000
  O   O12       1.0  0.6889426193997681  0.9149378945923912  0.2594457437133713  1.0000
  O   O13       1.0  0.8815974043740624  0.3272586203735415  0.8419945610582573  1.0000
  O   O14       1.0  0.11840676961116262  0.6727405368244845  0.15800294874235024  1.0000
  O   O15       1.0  0.6386008802686973  0.2941884042137772  0.6940560042192061  1.0000
  O   O16       1.0  0.3613998955080646  0.7058119406017127  0.3059448136458158  1.0000
  O   O17       1.0  0.8059040503336234  0.6953682424548047  0.05537775306635237  1.0000
  O   O18       1.0  0.1940932978983199  0.30462742616401767  0.9446207966399527  1.0000
