data_image0
_chemical_formula_structural       Gd4H24C36N4O28
_chemical_formula_sum              "Gd4 H24 C36 N4 O28"
_cell_length_a       7.54399544350921
_cell_length_b       8.487614866528881
_cell_length_c       17.095226403288294
_cell_angle_alpha    89.99941176894139
_cell_angle_beta     90.00045205472762
_cell_angle_gamma    105.04290489312515

_space_group_name_H-M_alt    "P 1"
_space_group_IT_number       1

loop_
  _space_group_symop_operation_xyz
  'x, y, z'

loop_
  _atom_site_type_symbol
  _atom_site_label
  _atom_site_symmetry_multiplicity
  _atom_site_fract_x
  _atom_site_fract_y
  _atom_site_fract_z
  _atom_site_occupancy
  Gd  Gd1       1.0  0.71819000268394  0.4283531219197272  0.2844626093838301  1.0000
  Gd  Gd2       1.0  0.2818097789538071  0.07164347158159497  0.7844631562869324  1.0000
  Gd  Gd3       1.0  0.28180827045721896  0.5716459113350253  0.7155379641090605  1.0000
  Gd  Gd4       1.0  0.7181894690596875  0.9283543457311935  0.2155368322521269  1.0000
  H   H1        1.0  0.923815222770585  0.794886948383933  0.9746108344690042  1.0000
  H   H2        1.0  0.07618393928953539  0.7051160137626837  0.47461328563381505  1.0000
  H   H3        1.0  0.07619109143750076  0.20511698502417625  0.025389739025392506  1.0000
  H   H4        1.0  0.9238143338516237  0.2948830194920689  0.5253872878590757  1.0000
  H   H5        1.0  0.8194619724224308  0.3915956932222358  0.8130075024768999  1.0000
  H   H6        1.0  0.18054160972779698  0.10840771713378672  0.3130061295262437  1.0000
  H   H7        1.0  0.18053868300364673  0.6084070040464836  0.1869919010935703  1.0000
  H   H8        1.0  0.8194616184649205  0.8915901123161589  0.6869921041438545  1.0000
  H   H9        1.0  0.629849404966755  0.30656397126137586  0.040822822035259804  1.0000
  H   H10       1.0  0.37014568326956976  0.19344060262746862  0.5408236409744376  1.0000
  H   H11       1.0  0.3701525771894508  0.693438730047873  0.9591765815375055  1.0000
  H   H12       1.0  0.6298526705429096  0.8065633065582813  0.45917459267170824  1.0000
  H   H13       1.0  0.2304724598718693  0.9779322721623487  0.16810156335007062  1.0000
  H   H14       1.0  0.7695258423306441  0.5220590798527168  0.6681034745555579  1.0000
  H   H15       1.0  0.7695284667295393  0.022066769173456197  0.83189901014741  1.0000
  H   H16       1.0  0.23047270197097447  0.4779362974899044  0.3318959290298765  1.0000
  H   H17       1.0  0.3240469262843461  0.10211226514076797  0.0863571593867576  1.0000
  H   H18       1.0  0.6759496346709708  0.39788540792161337  0.5863585859853515  1.0000
  H   H19       1.0  0.6759513468530969  0.8978867681191786  0.9136428291475127  1.0000
  H   H20       1.0  0.3240486384664719  0.602113625338333  0.4136414025489188  1.0000
  H   H21       1.0  0.39934680017730506  0.8328525152655784  0.1012069440040975  1.0000
  H   H22       1.0  0.600650380939548  0.6671436811293531  0.601208113802592  1.0000
  H   H23       1.0  0.6006544782707478  0.16714774606829508  0.898792459573656  1.0000
  H   H24       1.0  0.3993518723808335  0.3328553642625566  0.3987907048213303  1.0000
  C   C1        1.0  0.77491871831981  0.5581100105956623  0.018369382295752204  1.0000
  C   C2        1.0  0.22506925947122614  0.941896165069842  0.5183719409875351  1.0000
  C   C3        1.0  0.22508654032603906  0.4418902628493981  0.9816311912061266  1.0000
  C   C4        1.0  0.7749234355815415  0.0581065079453467  0.4816286324863767  1.0000
  C   C5        1.0  0.7571062904132398  0.6126149339091709  0.1008062605499802  1.0000
  C   C6        1.0  0.24287602041340503  0.8873848810813099  0.6008074039158657  1.0000
  C   C7        1.0  0.24289923939679164  0.3873816836185497  0.8991937280030626  1.0000
  C   C8        1.0  0.757115699767034  0.11261900787583559  0.3991937545118773  1.0000
  C   C9        1.0  0.8657994280637663  0.6663292629465757  0.960932388592525  1.0000
  C   C10       1.0  0.13419319771520571  0.8336702661007747  0.460933216974162  1.0000
  C   C11       1.0  0.13420520755640541  0.3336734464385173  0.03906759994345071  1.0000
  C   C12       1.0  0.8657991454834926  0.16633118692672613  0.5390673565022439  1.0000
  C   C13       1.0  0.8856663199054534  0.6073193196947669  0.8861555584774765  1.0000
  C   C14       1.0  0.11433534662420893  0.8926840061115298  0.3861548473143941  1.0000
  C   C15       1.0  0.11433831571842745  0.3926833896851321  0.11384501501711952  1.0000
  C   C16       1.0  0.8856672585539725  0.10731625926287339  0.6138445562656614  1.0000
  C   C17       1.0  0.8072943232096037  0.4422516254826264  0.8707486174436242  1.0000
  C   C18       1.0  0.19270698724739788  0.057749530967335296  0.3707481297573452  1.0000
  C   C19       1.0  0.19271031240313613  0.557751083912862  0.1292502011751111  1.0000
  C   C20       1.0  0.8072942911932158  0.9422507303769335  0.6292501039031748  1.0000
  C   C21       1.0  0.991202334757673  0.715872503379984  0.8235619687951613  1.0000
  C   C22       1.0  0.008800757429476386  0.7841258466412171  0.32356202827119773  1.0000
  C   C23       1.0  0.0088002704279404  0.2841277619840241  0.17643860470212053  1.0000
  C   C24       1.0  0.9911985712813445  0.2158768465661964  0.676439715131437  1.0000
  C   C25       1.0  0.7019759721167558  0.39484911551862467  0.9977225972207223  1.0000
  C   C26       1.0  0.2980164184376405  0.10515462867392959  0.4977245743431666  1.0000
  C   C27       1.0  0.29802963837574464  0.6051523779245044  0.0022768063614222005  1.0000
  C   C28       1.0  0.7019802568017894  0.894848056468028  0.5022754141790244  1.0000
  C   C29       1.0  0.3598332251529824  0.0461250325474012  0.14028235929750824  1.0000
  C   C30       1.0  0.640163317224889  0.45386924250738747  0.6402833762814382  1.0000
  C   C31       1.0  0.6401667265723744  0.9538752247355617  0.8597182141951762  1.0000
  C   C32       1.0  0.359834604054761  0.5461285707700725  0.359716027296706  1.0000
  C   C33       1.0  0.45652612903304385  0.17912972445571998  0.19594568093071277  1.0000
  C   C34       1.0  0.5434678440627888  0.3208659895604525  0.6959441140667764  1.0000
  C   C35       1.0  0.5434754205829078  0.820866880955627  0.8040537226568178  1.0000
  C   C36       1.0  0.45652945419117685  0.6791342596570473  0.3040547045454717  1.0000
  N   N1        1.0  0.71504624547822  0.3390778357073216  0.9251176983825502  1.0000
  N   N2        1.0  0.2849528311297077  0.16092600265368157  0.4251181761042986  1.0000
  N   N3        1.0  0.28495608852463056  0.6609260856000035  0.07488053527048072  1.0000
  N   N4        1.0  0.7150471205807917  0.8390742546500645  0.5748800575539192  1.0000
  O   O1        1.0  0.7511799163393605  0.5063374032247412  0.1535107073229227  1.0000
  O   O2        1.0  0.24880013949775284  0.9936651232379176  0.6535142548545849  1.0000
  O   O3        1.0  0.24882358303610624  0.4936567702818948  0.8464898661914333  1.0000
  O   O4        1.0  0.7511906057992163  0.006339981676788399  0.3464857336511287  1.0000
  O   O5        1.0  0.050284914891953705  0.8669437336867816  0.8399703764521007  1.0000
  O   O6        1.0  0.9497158129677599  0.6330591926884139  0.33996628928017714  1.0000
  O   O7        1.0  0.9497170672828259  0.1330589675964831  0.16003195191375144  1.0000
  O   O8        1.0  0.05028440994036028  0.366937408651232  0.6600366240567582  1.0000
  O   O9        1.0  0.018711662208495645  0.6511354921330791  0.7592179188819088  1.0000
  O   O10       1.0  0.9812904219717493  0.8488725328830072  0.2592151823408599  1.0000
  O   O11       1.0  0.9812883701993299  0.3488696410652849  0.24078206963988444  1.0000
  O   O12       1.0  0.018705117037846688  0.1511216163597027  0.7407877309941783  1.0000
  O   O13       1.0  0.39839576700951057  0.3004845738769219  0.212556340661493  1.0000
  O   O14       1.0  0.6015945467207329  0.19949742518819852  0.7125526692852945  1.0000
  O   O15       1.0  0.6016022349563243  0.6995181153107453  0.7874430629043802  1.0000
  O   O16       1.0  0.39840329385786777  0.8004955121998377  0.2874443944706542  1.0000
  O   O17       1.0  0.7506648940843872  0.7593771068334403  0.11083499113553333  1.0000
  O   O18       1.0  0.24932195689533632  0.7406286379991015  0.610836904312066  1.0000
  O   O19       1.0  0.2493389571525881  0.2406182866504807  0.8891667522935549  1.0000
  O   O20       1.0  0.7506684365475493  0.2593752469279166  0.3891630841961415  1.0000
  O   O21       1.0  0.6077664300542335  0.16162200930430967  0.22640712363218546  1.0000
  O   O22       1.0  0.39223756904897283  0.33837441177387717  0.7264090361711268  1.0000
  O   O23       1.0  0.39223184308692527  0.8383770239504427  0.773593449860698  1.0000
  O   O24       1.0  0.6077633575524356  0.6616246295619275  0.2735915373263538  1.0000
  O   O25       1.0  0.4781777471538077  0.9434567145185112  0.12376221882206552  1.0000
  O   O26       1.0  0.5218210472617599  0.556539085202246  0.6237630926826939  1.0000
  O   O27       1.0  0.5218225564256329  0.056544762752132285  0.8762383546681252  1.0000
  O   O28       1.0  0.4781802311937253  0.4434611761212394  0.37623748081229286  1.0000
