data_image0
_chemical_formula_structural       Gd4As4H28C24N4O32
_chemical_formula_sum              "Gd4 As4 H28 C24 N4 O32"
_cell_length_a       6.915764035893555
_cell_length_b       7.126181361511425
_cell_length_c       21.154952086055875
_cell_angle_alpha    89.99978427669971
_cell_angle_beta     89.99991173209413
_cell_angle_gamma    105.27928368543662

_space_group_name_H-M_alt    "P 1"
_space_group_IT_number       1

loop_
  _space_group_symop_operation_xyz
  'x, y, z'

loop_
  _atom_site_type_symbol
  _atom_site_label
  _atom_site_symmetry_multiplicity
  _atom_site_fract_x
  _atom_site_fract_y
  _atom_site_fract_z
  _atom_site_occupancy
  Gd  Gd1       1.0  0.2602055440889188  0.0373670640529866  0.4584098359769371  1.0000
  Gd  Gd2       1.0  0.23979564619848745  0.9626334097968225  0.9584103875641432  1.0000
  Gd  Gd3       1.0  0.7397968220721722  0.9626325857411757  0.541590126159214  1.0000
  Gd  Gd4       1.0  0.7602052719995029  0.0373662325952111  0.041589574572377296  1.0000
  As  As1       1.0  0.184211913375833  0.757531925841363  0.5823425560621017  1.0000
  As  As2       1.0  0.31578874193242973  0.2424706347118857  0.0823407713356374  1.0000
  As  As3       1.0  0.8157883321558189  0.2424706185020113  0.41765740607274887  1.0000
  As  As4       1.0  0.6842121762635924  0.7575290076769932  0.9176596635034427  1.0000
  H   H1        1.0  0.27996025080185655  0.1444636238287771  0.6434345263743637  1.0000
  H   H2        1.0  0.2200425059318859  0.8555424941424761  0.14343343133751318  1.0000
  H   H3        1.0  0.7200313069511707  0.8555388761017894  0.3565654357627038  1.0000
  H   H4        1.0  0.7799616958446407  0.1444586177368592  0.8565655853921328  1.0000
  H   H5        1.0  0.32634499588348126  0.25615803348100036  0.754980430486917  1.0000
  H   H6        1.0  0.17366329512503834  0.7438437258715921  0.25497950024588784  1.0000
  H   H7        1.0  0.6736552496481776  0.7438445108623669  0.24501953164794088  1.0000
  H   H8        1.0  0.8263465958734812  0.2561516043114622  0.7450195164859892  1.0000
  H   H9        1.0  0.12379143876775335  0.5460541158633134  0.7066303891872534  1.0000
  H   H10       1.0  0.3762100156439772  0.4539482507120312  0.20662925162498874  1.0000
  H   H11       1.0  0.8762113150417293  0.4539469886075834  0.2933695729478814  1.0000
  H   H12       1.0  0.6237872313290681  0.5460484675191069  0.7933711832168624  1.0000
  H   H13       1.0  0.5002646555356874  0.3504423155714775  0.5406829851643237  1.0000
  H   H14       1.0  0.999734162522401  0.6495550453643162  0.0406834285502597  1.0000
  H   H15       1.0  0.4997384859221795  0.649560243576161  0.459316976969795  1.0000
  H   H16       1.0  0.00026269680619603054  0.3504402181963826  0.9593160608874952  1.0000
  H   H17       1.0  0.2810570761524431  0.39434650071234506  0.5457432933542562  1.0000
  H   H18       1.0  0.2189431090784169  0.6056536381446308  0.04574204268571689  1.0000
  H   H19       1.0  0.7189438420435721  0.605653141676534  0.45425714148482393  1.0000
  H   H20       1.0  0.7810549131953337  0.394345989446279  0.9542574467489825  1.0000
  H   H21       1.0  0.2772636457179161  0.6869169052934794  0.3896817770592875  1.0000
  H   H22       1.0  0.22273522180721977  0.3130844695115087  0.8896817418682159  1.0000
  H   H23       1.0  0.7227347642022508  0.3130841769710244  0.6103181850769558  1.0000
  H   H24       1.0  0.7772653087423862  0.6869137182037831  0.11031822026932758  1.0000
  H   H25       1.0  0.10195666716701607  0.6025587190347536  0.4365366249600838  1.0000
  H   H26       1.0  0.3980414219599525  0.3974405767820599  0.9365368674985745  1.0000
  H   H27       1.0  0.8980489825607876  0.397442400227817  0.563465227984551  1.0000
  H   H28       1.0  0.6019551523447788  0.6025590433972711  0.06346404004416678  1.0000
  C   C1        1.0  0.19619006847346285  0.8372307788146783  0.6689770641931715  1.0000
  C   C2        1.0  0.3038080287216545  0.16276916529936608  0.16897727725118017  1.0000
  C   C3        1.0  0.8038029372446334  0.16277172852117158  0.33102242524096676  1.0000
  C   C4        1.0  0.6961910538668192  0.8372290150169376  0.8310222121841662  1.0000
  C   C5        1.0  0.2543205178606414  0.039491292702251685  0.6821673743342486  1.0000
  C   C6        1.0  0.24568008024353097  0.9605128470954439  0.18216707885234473  1.0000
  C   C7        1.0  0.7456685316145623  0.960512647100785  0.31783258780253476  1.0000
  C   C8        1.0  0.7543215106227664  0.039483893348396706  0.8178324105832857  1.0000
  C   C9        1.0  0.2803365415745205  0.10192997143238358  0.7436139339782954  1.0000
  C   C10       1.0  0.21966132083829132  0.8980704328841257  0.24361231255748086  1.0000
  C   C11       1.0  0.7196564641416074  0.8980725359003189  0.2563860281583956  1.0000
  C   C12       1.0  0.7803380467701049  0.10192339080725789  0.7563867041779986  1.0000
  C   C13       1.0  0.2507475305907717  0.969653243079499  0.7959585825063015  1.0000
  C   C14       1.0  0.24925540211889805  0.030350850005724787  0.29595851801582274  1.0000
  C   C15       1.0  0.7492549382027319  0.030352218022628098  0.20404090692358776  1.0000
  C   C16       1.0  0.7507400092446305  0.9696444061496906  0.7040414441248543  1.0000
  C   C17       1.0  0.18888229856474936  0.7650809000337234  0.7802522396674405  1.0000
  C   C18       1.0  0.31111525830346665  0.23491901610596239  0.2802499941504806  1.0000
  C   C19       1.0  0.8111113798137738  0.234918705341336  0.21974866787603986  1.0000
  C   C20       1.0  0.6888765844655397  0.7650791271933813  0.7197504406918325  1.0000
  C   C21       1.0  0.1653836138319916  0.7013665624398797  0.7168865078064853  1.0000
  C   C22       1.0  0.33461669473263106  0.29863711475268667  0.21688558787799647  1.0000
  C   C23       1.0  0.83461190016196  0.29863450502035244  0.2831134543304898  1.0000
  C   C24       1.0  0.6653794919276663  0.7013610507562049  0.7831143742606483  1.0000
  N   N1        1.0  0.1588139840229985  0.6217419824679312  0.8282481923975807  1.0000
  N   N2        1.0  0.34118751646451523  0.37825731635597043  0.3282471683124227  1.0000
  N   N3        1.0  0.8411848135455527  0.37826055447330736  0.17175176973763936  1.0000
  N   N4        1.0  0.658807894899013  0.6217379397994449  0.6717527938282614  1.0000
  O   O1        1.0  0.403954088276592  0.8902696692752272  0.5479131258356204  1.0000
  O   O2        1.0  0.09604975007892588  0.10973336482332029  0.0479125651041628  1.0000
  O   O3        1.0  0.5960486655269719  0.10973143518622658  0.45208825440718664  1.0000
  O   O4        1.0  0.9039501078043414  0.8902677248433122  0.9520873970317112  1.0000
  O   O5        1.0  0.025760241292488092  0.8584311898806548  0.5379940505421245  1.0000
  O   O6        1.0  0.4742436797866461  0.1415719763876453  0.0379927866722483  1.0000
  O   O7        1.0  0.9742454084451708  0.1415699293976687  0.4620054388897115  1.0000
  O   O8        1.0  0.5257557904482367  0.8584276586022525  0.9620071754646415  1.0000
  O   O9        1.0  0.13120992659453629  0.5130150393961017  0.5762973312073568  1.0000
  O   O10       1.0  0.3687926147430786  0.4869890637899914  0.07629473741603479  1.0000
  O   O11       1.0  0.8687917668962798  0.48698751234309867  0.4237035763322439  1.0000
  O   O12       1.0  0.6312076307905485  0.5130134805565235  0.9237047520162559  1.0000
  O   O13       1.0  0.2855194152954398  0.0371277771286174  0.8521611351880833  1.0000
  O   O14       1.0  0.21449018589787258  0.9628697928055487  0.35216037969456687  1.0000
  O   O15       1.0  0.7144974304986744  0.9628719466900363  0.14783835424181996  1.0000
  O   O16       1.0  0.7855052254676239  0.0371254633530143  0.6478391097435505  1.0000
  O   O17       1.0  0.15229743175697755  0.6675088562018985  0.8858006470906685  1.0000
  O   O18       1.0  0.34770503673347264  0.33248968317885647  0.3857992049982784  1.0000
  O   O19       1.0  0.8477005905128365  0.3324907713827158  0.1141997877491505  1.0000
  O   O20       1.0  0.6522951061677488  0.6675070498597009  0.6142007571402742  1.0000
  O   O21       1.0  0.13794414678881844  0.44688925500184945  0.8131525521399253  1.0000
  O   O22       1.0  0.3620589275536971  0.553110252365059  0.3131512960856852  1.0000
  O   O23       1.0  0.8620600549817964  0.5531118568680357  0.18684788269739974  1.0000
  O   O24       1.0  0.6379354234931326  0.4468864510618076  0.6868491387569049  1.0000
  O   O25       1.0  0.3575631076427753  0.30189016331326723  0.5296629370069751  1.0000
  O   O26       1.0  0.1424328677962165  0.6981101675884032  0.029663025794313593  1.0000
  O   O27       1.0  0.6424381982035996  0.6981109337555012  0.4703370251285293  1.0000
  O   O28       1.0  0.857564094162818  0.3018909072771124  0.9703364636397394  1.0000
  O   O29       1.0  0.24267562783976618  0.6922135440963187  0.4346551766241901  1.0000
  O   O30       1.0  0.2573239249439254  0.30778578419673863  0.9346546580542705  1.0000
  O   O31       1.0  0.7573300218919813  0.3077875751725471  0.5653457309153254  1.0000
  O   O32       1.0  0.7426737096775043  0.6922123887111411  0.06534577678657168  1.0000
