data_image0
_chemical_formula_structural       Zn2H26C44N16O28
_chemical_formula_sum              "Zn2 H26 C44 N16 O28"
_cell_length_a       11.799238639963733
_cell_length_b       13.071137791322997
_cell_length_c       19.328129861405674
_cell_angle_alpha    91.66584365786383
_cell_angle_beta     88.43885513840631
_cell_angle_gamma    88.39790540145448

_space_group_name_H-M_alt    "P 1"
_space_group_IT_number       1

loop_
  _space_group_symop_operation_xyz
  'x, y, z'

loop_
  _atom_site_type_symbol
  _atom_site_label
  _atom_site_symmetry_multiplicity
  _atom_site_fract_x
  _atom_site_fract_y
  _atom_site_fract_z
  _atom_site_occupancy
  Zn  Zn1       1.0  0.6157647230484216  0.48684450787373373  0.5055298766437845  1.0000
  Zn  Zn2       1.0  0.3842549718147126  0.5132167789338736  0.49445703634377497  1.0000
  H   H1        1.0  0.6613150432307506  0.5451028437853865  0.8480849560464354  1.0000
  H   H2        1.0  0.3386373752571856  0.45466531453166675  0.15191071359671335  1.0000
  H   H3        1.0  0.37043834745493603  0.005393971226105501  0.6233849600935388  1.0000
  H   H4        1.0  0.629550204721447  0.9946773959696598  0.3766422954713066  1.0000
  H   H5        1.0  0.7996056867789465  0.591686575568815  0.45411956217399324  1.0000
  H   H6        1.0  0.20044708330858194  0.40835257495322713  0.5458723882176744  1.0000
  H   H7        1.0  0.1978256762664472  0.6631231322279232  0.7471116352222255  1.0000
  H   H8        1.0  0.26463139457280255  0.6554841870691845  0.6631102377690257  1.0000
  H   H9        1.0  0.1271531634563345  0.6056633622408256  0.6768734562411256  1.0000
  H   H10       1.0  0.2743293926483332  0.46287100321193003  0.6680813002299858  1.0000
  H   H11       1.0  0.20424863411288635  0.46841091219736336  0.7490702402621354  1.0000
  H   H12       1.0  0.7353729087201871  0.3445692870521241  0.3368619479518813  1.0000
  H   H13       1.0  0.8021709236629846  0.3369642949366777  0.2528481080875267  1.0000
  H   H14       1.0  0.8728335940646872  0.3944490335405959  0.32309077036685363  1.0000
  H   H15       1.0  0.7956545126819635  0.5317100148865563  0.25091790341016923  1.0000
  H   H16       1.0  0.7255418355075348  0.5371717893020288  0.3319110534899609  1.0000
  H   H17       1.0  0.5939255999587942  0.8080539143568186  0.6570458861184465  1.0000
  H   H18       1.0  0.5128504439943883  0.9220114357966124  0.6772802994477802  1.0000
  H   H19       1.0  0.46924918362587686  0.8032640927259819  0.7098965855584185  1.0000
  H   H20       1.0  0.3486450370768424  0.8478659821896243  0.6100051539165892  1.0000
  H   H21       1.0  0.43043832207995086  0.7365465555012277  0.5917570168835484  1.0000
  H   H22       1.0  0.48722862787634824  0.07808645461427939  0.3227485089086032  1.0000
  H   H23       1.0  0.40617802508521084  0.19202836930566747  0.34299111583884223  1.0000
  H   H24       1.0  0.5308516335302258  0.19682218087812225  0.29014615812535294  1.0000
  H   H25       1.0  0.5696735502272006  0.26347952761160087  0.4082884443392488  1.0000
  H   H26       1.0  0.6514067894949633  0.15216903187600647  0.3900540325140654  1.0000
  C   C1        1.0  0.45896247966612697  0.3069890250185879  0.5128802246620056  1.0000
  C   C2        1.0  0.541124422361449  0.693081634014895  0.48713473032758986  1.0000
  C   C3        1.0  0.4894707391834103  0.5236057608315434  0.6345065202218338  1.0000
  C   C4        1.0  0.510462343485287  0.4764532464586892  0.365466834512958  1.0000
  C   C5        1.0  0.5793452064795943  0.5424643330443999  0.7498973994189557  1.0000
  C   C6        1.0  0.42058735373233697  0.45743103863393486  0.25010021018071893  1.0000
  C   C7        1.0  0.5820805358158553  0.5375906783188569  0.8210985685592863  1.0000
  C   C8        1.0  0.4178567719803823  0.46225088111155793  0.17889664279162795  1.0000
  C   C9        1.0  0.4818190234535961  0.5215810977248764  0.8591163433041376  1.0000
  C   C10       1.0  0.5181218282048191  0.47821501343845074  0.14085847618093086  1.0000
  C   C11       1.0  0.38125950506453415  0.5132637762787339  0.8224012776616692  1.0000
  C   C12       1.0  0.6186685246424872  0.48663319799195626  0.17757458165221612  1.0000
  C   C13       1.0  0.37612765666727194  0.5170921072101181  0.7498825370840196  1.0000
  C   C14       1.0  0.6237949434665354  0.482896977498683  0.2500947864918999  1.0000
  C   C15       1.0  0.4796416361154385  0.5304620920115538  0.7124000297550169  1.0000
  C   C16       1.0  0.5202875905107476  0.4695244053946652  0.28757884911681947  1.0000
  C   C17       1.0  0.5101072698160889  0.4884041889291949  0.0654842670808762  1.0000
  C   C18       1.0  0.48984205428614996  0.5113478836380807  0.934486784874402  1.0000
  C   C19       1.0  0.5407969370747807  0.8080710450747545  0.484047010813967  1.0000
  C   C20       1.0  0.4592285067125984  0.19199178302457653  0.5159839757670144  1.0000
  C   C21       1.0  0.41292207392959307  0.037561695588230706  0.5788034633074093  1.0000
  C   C22       1.0  0.5870995252143629  0.9625081742505229  0.42122398800085403  1.0000
  C   C23       1.0  0.4079669386537574  0.14201197392365117  0.5722922126993099  1.0000
  C   C24       1.0  0.5920448371570686  0.8580537032026497  0.4277278561386667  1.0000
  C   C25       1.0  0.5155100539050324  0.13324090976065858  0.4638105263194278  1.0000
  C   C26       1.0  0.48455323971823827  0.8668424835511672  0.5362339915596055  1.0000
  C   C27       1.0  0.5255622236829254  0.02449569211295709  0.47094747352399235  1.0000
  C   C28       1.0  0.4744802808113845  0.9755793133985973  0.5290734697272301  1.0000
  C   C29       1.0  0.0341083398740452  0.6166781831545832  0.45169633715921276  1.0000
  C   C30       1.0  0.9659362471975043  0.3833666809741131  0.5482930629600347  1.0000
  C   C31       1.0  0.1488501674457936  0.6190480257746671  0.462568798030958  1.0000
  C   C32       1.0  0.8511906938353562  0.380981610444529  0.5374063495074142  1.0000
  C   C33       1.0  0.1493714586661739  0.46786931840711793  0.5222422028917182  1.0000
  C   C34       1.0  0.8506767172900707  0.5321700753068298  0.47775541629524565  1.0000
  C   C35       1.0  0.029740319493129188  0.4624348617612668  0.5190527209489846  1.0000
  C   C36       1.0  0.9703044779585283  0.5375915562557693  0.48092602475517066  1.0000
  C   C37       1.0  0.2628403880435712  0.5095031231012682  0.7157191134806669  1.0000
  C   C38       1.0  0.21065510819487085  0.6150789613090312  0.699809759818365  1.0000
  C   C39       1.0  0.7370910735442706  0.4905521968349404  0.2842650434967808  1.0000
  C   C40       1.0  0.7893407279632356  0.38498333647178373  0.300165619835184  1.0000
  C   C41       1.0  0.43649669839692945  0.8193154188483404  0.6005253663887802  1.0000
  C   C42       1.0  0.5073994970610513  0.8398564338579035  0.6647701141445524  1.0000
  C   C43       1.0  0.5635810427516788  0.18074591347675548  0.3995235482699685  1.0000
  C   C44       1.0  0.49269716013420595  0.16022234738740343  0.3352683376464257  1.0000
  N   N1        1.0  0.40525398042677807  0.4653039479411304  0.9690835354703964  1.0000
  N   N2        1.0  0.5946914710856247  0.534449882122388  0.03089580358855671  1.0000
  N   N3        1.0  0.41537118939204015  0.45351130472243273  0.03593448876545582  1.0000
  N   N4        1.0  0.5845784641043466  0.5462354323786086  0.9640426916756158  1.0000
  N   N5        1.0  0.7942211979797095  0.4563367225248667  0.5053311075963053  1.0000
  N   N6        1.0  0.2058055556387686  0.5437005128078168  0.4946554606257936  1.0000
  N   N7        1.0  0.6905992928110294  0.5641930855617117  0.7162052333476441  1.0000
  N   N8        1.0  0.30936106341403047  0.43574171159960423  0.28381132547223603  1.0000
  N   N9        1.0  0.9779966863615144  0.6948903712974828  0.40941709600128473  1.0000
  N   N10       1.0  0.022043484829445997  0.3051131915027412  0.5905451958111174  1.0000
  N   N11       1.0  0.27202862195380106  0.504369704103361  0.8615858230220755  1.0000
  N   N12       1.0  0.7279072737510293  0.495531494241547  0.13838808642937295  1.0000
  N   N13       1.0  0.6483897707153616  0.7978893704104236  0.3702283174630666  1.0000
  N   N14       1.0  0.35162375292389925  0.2021838956294174  0.6297939577048484  1.0000
  N   N15       1.0  0.7834117141989337  0.29267666425193534  0.5596619597744452  1.0000
  N   N16       1.0  0.21664165016533582  0.7073478217859371  0.44031474045743135  1.0000
  O   O1        1.0  0.555714956964749  0.3450316380096581  0.5194385794487391  1.0000
  O   O2        1.0  0.4443511610020465  0.6550510815403496  0.4806416721889379  1.0000
  O   O3        1.0  0.3675382009959449  0.35650952910106776  0.5007741897527467  1.0000
  O   O4        1.0  0.6325754907976844  0.6435601338533203  0.49915187154800844  1.0000
  O   O5        1.0  0.5889960853406251  0.5062335918009564  0.6096003164766232  1.0000
  O   O6        1.0  0.41095962906405237  0.49402402319386596  0.3903484648118295  1.0000
  O   O7        1.0  0.40058816065210595  0.5343009612377757  0.5992574501626182  1.0000
  O   O8        1.0  0.5993175297571938  0.4656767748185898  0.4007413221219523  1.0000
  O   O9        1.0  0.7016104365833797  0.6506854246224519  0.6932074736919845  1.0000
  O   O10       1.0  0.7658019376643423  0.49682159271406323  0.7182824809286503  1.0000
  O   O11       1.0  0.29842153351712847  0.3493049836801135  0.30692023463790724  1.0000
  O   O12       1.0  0.23413888805818317  0.5030852868008964  0.28165582798600763  1.0000
  O   O13       1.0  0.913261317357069  0.662149430073903  0.365376404262932  1.0000
  O   O14       1.0  0.0007813295991568007  0.7848546977385099  0.42208795629152024  1.0000
  O   O15       1.0  0.086792862132576  0.3378328189611183  0.6345840803717098  1.0000
  O   O16       1.0  0.9992317654770418  0.21515170575614204  0.5778876633740709  1.0000
  O   O17       1.0  0.22804443788331238  0.42009196716008995  0.8615359441050291  1.0000
  O   O18       1.0  0.23255290192865627  0.5848022684707245  0.8890702492929281  1.0000
  O   O19       1.0  0.7718811198222041  0.5798149214141689  0.1384157251938376  1.0000
  O   O20       1.0  0.7674127564555351  0.4150855429300434  0.11093781296868602  1.0000
  O   O21       1.0  0.6167104076310254  0.7087569842500724  0.36032304166293033  1.0000
  O   O22       1.0  0.7216085661655783  0.839704986673425  0.33483301636889007  1.0000
  O   O23       1.0  0.38320671688446584  0.29135636234693146  0.6396557518313204  1.0000
  O   O24       1.0  0.2784415169098438  0.1603621729509328  0.6652127023739711  1.0000
  O   O25       1.0  0.7639761492108902  0.23092291441755464  0.5125286598685932  1.0000
  O   O26       1.0  0.7545254072755371  0.2906639839097237  0.6210681093960347  1.0000
  O   O27       1.0  0.24549174756999997  0.7093498432347474  0.37889989173565664  1.0000
  O   O28       1.0  0.2360768981352237  0.769111509301176  0.48744354022842645  1.0000
