data_image0
_chemical_formula_structural       Cd4H24C48N8O16
_chemical_formula_sum              "Cd4 H24 C48 N8 O16"
_cell_length_a       8.246996697001508
_cell_length_b       8.247006433001614
_cell_length_c       16.36843577400045
_cell_angle_alpha    90.00002300036569
_cell_angle_beta     89.99998629953792
_cell_angle_gamma    90.00006790455366

_space_group_name_H-M_alt    "P 1"
_space_group_IT_number       1

loop_
  _space_group_symop_operation_xyz
  'x, y, z'

loop_
  _atom_site_type_symbol
  _atom_site_label
  _atom_site_symmetry_multiplicity
  _atom_site_fract_x
  _atom_site_fract_y
  _atom_site_fract_z
  _atom_site_occupancy
  Cd  Cd1       1.0  0.7111719093307441  0.7888275575324567  0.7500002305049381  1.0000
  Cd  Cd2       1.0  0.2888275152478029  0.21117285304059405  0.7500001975751405  1.0000
  Cd  Cd3       1.0  0.7888278801678084  0.28882658166370584  0.25000004621302463  1.0000
  Cd  Cd4       1.0  0.2111717817084937  0.7111722176578181  0.24999951275511734  1.0000
  H   H1        1.0  0.10969472993566848  0.8146124041759888  0.9737113221610587  1.0000
  H   H2        1.0  0.8903058010322977  0.1853869722192911  0.9737112115566335  1.0000
  H   H3        1.0  0.8146122214305364  0.8903053643889788  0.026289663551175107  1.0000
  H   H4        1.0  0.1853875466185428  0.10969446911175847  0.02628962257505661  1.0000
  H   H5        1.0  0.6096937597011448  0.6853874291301447  0.4737105389623865  1.0000
  H   H6        1.0  0.3903045834409013  0.31461276113432746  0.47371051471184  1.0000
  H   H7        1.0  0.3146129488057312  0.6096955675737518  0.5262891834729615  1.0000
  H   H8        1.0  0.6853877945077899  0.3903046646175523  0.5262897499011532  1.0000
  H   H9        1.0  0.3955529540046711  0.8102712274012659  0.027915370563334808  1.0000
  H   H10       1.0  0.6044468132727161  0.18972860739601313  0.027915906207262305  1.0000
  H   H11       1.0  0.8102696408249485  0.6044468615974806  0.9720843470029977  1.0000
  H   H12       1.0  0.1897296783535225  0.3955537260605268  0.9720831414108988  1.0000
  H   H13       1.0  0.8955529641787476  0.6897285892243656  0.5279166792175547  1.0000
  H   H14       1.0  0.10444656579900877  0.31027043170276863  0.5279172994605192  1.0000
  H   H15       1.0  0.31026973172311045  0.8955532081250721  0.47208427744777054  1.0000
  H   H16       1.0  0.6897298247526817  0.10444576828214017  0.4720841746499645  1.0000
  H   H17       1.0  0.624160807046074  0.8032170396802982  0.925506317296467  1.0000
  H   H18       1.0  0.3758397467996629  0.19678229827754723  0.9255068819076233  1.0000
  H   H19       1.0  0.803216241538095  0.3758386992214822  0.0744927521787275  1.0000
  H   H20       1.0  0.19678350363379588  0.6241611727157163  0.0744934247334044  1.0000
  H   H21       1.0  0.12416066237045695  0.6967839848948926  0.4255068185025622  1.0000
  H   H22       1.0  0.8758389162115491  0.30321616693358777  0.4255067334537587  1.0000
  H   H23       1.0  0.30321698605733616  0.12416061259013123  0.5744934968878683  1.0000
  H   H24       1.0  0.6967837343779878  0.8758384454769225  0.5744935491358805  1.0000
  C   C1        1.0  0.32018108914468263  0.8065889404868752  0.7956985748807883  1.0000
  C   C2        1.0  0.6798183137455994  0.19341150652510208  0.7956984912565659  1.0000
  C   C3        1.0  0.8065873149774418  0.6798193573729205  0.20430054375983536  1.0000
  C   C4        1.0  0.19341236858828378  0.32018061807014664  0.20430054435536968  1.0000
  C   C5        1.0  0.8201789158570988  0.6934122128958362  0.295699015167692  1.0000
  C   C6        1.0  0.1798195117691748  0.30658904798726627  0.2956996255857548  1.0000
  C   C7        1.0  0.3065870792485369  0.8201804944598902  0.704300717151938  1.0000
  C   C8        1.0  0.6934111544562211  0.17981987967255  0.7043006291432266  1.0000
  C   C9        1.0  0.18549932125976906  0.8082743417525787  0.848396349273749  1.0000
  C   C10       1.0  0.8145024817450232  0.19172493471953084  0.8483956381508266  1.0000
  C   C11       1.0  0.8082752944719684  0.8145009347436483  0.15160401302162543  1.0000
  C   C12       1.0  0.19172562666598478  0.18549899868096983  0.15160398660179916  1.0000
  C   C13       1.0  0.685498358536705  0.6917254814704846  0.3483961782878994  1.0000
  C   C14       1.0  0.31450004407982135  0.30827582143202636  0.3483961618891841  1.0000
  C   C15       1.0  0.3082748991240009  0.6854988770704081  0.6516041591950883  1.0000
  C   C16       1.0  0.6917245721528359  0.3145014550438247  0.6516047095402159  1.0000
  C   C17       1.0  0.21340643112541358  0.8098325329887853  0.9325711595051234  1.0000
  C   C18       1.0  0.7865929068054738  0.19016802316288303  0.9325716732935592  1.0000
  C   C19       1.0  0.809832228325696  0.7865938061352435  0.06742858742096301  1.0000
  C   C20       1.0  0.19016752020056768  0.21340848529101206  0.06742795589701701  1.0000
  C   C21       1.0  0.7134078916808162  0.6901673904296072  0.4325715991361606  1.0000
  C   C22       1.0  0.28659168354753456  0.3098315544710245  0.43257158641443283  1.0000
  C   C23       1.0  0.3098330786147017  0.7134059404049393  0.5674287392342736  1.0000
  C   C24       1.0  0.6901688577347542  0.28659068690708966  0.567428673194762  1.0000
  C   C25       1.0  0.3713269414757717  0.8069309795549982  0.9625007047747618  1.0000
  C   C26       1.0  0.628673594814856  0.19307202558476885  0.9625006272434435  1.0000
  C   C27       1.0  0.8069304794751772  0.6286734597443482  0.03749962749449051  1.0000
  C   C28       1.0  0.19307049581716734  0.3713275952566874  0.037499027535872614  1.0000
  C   C29       1.0  0.8713259803449913  0.6930691548875884  0.462500534060439  1.0000
  C   C30       1.0  0.12867236811656108  0.30692981387706186  0.4625005397776577  1.0000
  C   C31       1.0  0.30693030436292185  0.8713274720526409  0.5374998112230926  1.0000
  C   C32       1.0  0.6930728587554923  0.12867276907896036  0.537499712918809  1.0000
  C   C33       1.0  0.49772690657974267  0.803889928649255  0.9065093967283321  1.0000
  C   C34       1.0  0.5022724437190931  0.19610939416035217  0.9065105569032784  1.0000
  C   C35       1.0  0.8038904967740165  0.5022724633066813  0.09349030409816811  1.0000
  C   C36       1.0  0.19610923938199676  0.4977274237782936  0.09348972931843492  1.0000
  C   C37       1.0  0.9977271616156356  0.6961103109517804  0.4065098375604564  1.0000
  C   C38       1.0  0.0022724259822481992  0.3038898257289302  0.40650985789139343  1.0000
  C   C39       1.0  0.30389047146702086  0.9977285095334095  0.593490513371947  1.0000
  C   C40       1.0  0.6961114525157794  0.002271776243326  0.5934903891563297  1.0000
  C   C41       1.0  0.015196118058298699  0.8047553754224877  0.8162521758679306  1.0000
  C   C42       1.0  0.9848044876392378  0.19524387541802207  0.8162520558707701  1.0000
  C   C43       1.0  0.8047565310117262  0.9848039531664196  0.18374760281940186  1.0000
  C   C44       1.0  0.19524437487013555  0.015194793327886199  0.18374815248984797  1.0000
  C   C45       1.0  0.5151951595049128  0.69524300777217  0.3162520055931069  1.0000
  C   C46       1.0  0.48480447092832424  0.30475584437753855  0.3162519679657764  1.0000
  C   C47       1.0  0.3047559338276784  0.5151958801078749  0.6837477145752759  1.0000
  C   C48       1.0  0.6952447347567129  0.4848044776374677  0.6837476879820558  1.0000
  N   N1        1.0  0.47295791031950063  0.8060749168630532  0.8252750020480593  1.0000
  N   N2        1.0  0.5270426910956729  0.19392434117234802  0.82527554786536  1.0000
  N   N3        1.0  0.8060755300330981  0.5270414845796123  0.17472470286250547  1.0000
  N   N4        1.0  0.19392416756848968  0.472957254719084  0.1747247342720969  1.0000
  N   N5        1.0  0.9729569502031479  0.6939252286074049  0.3252754424386667  1.0000
  N   N6        1.0  0.027042675949168392  0.30607605585958453  0.3252748492951839  1.0000
  N   N7        1.0  0.306075475370207  0.9729583430635743  0.6747249071304398  1.0000
  N   N8        1.0  0.6939239849343436  0.027043220047843892  0.674725399116227  1.0000
  O   O1        1.0  0.8977889207620037  0.8104634441968768  0.8669429780105917  1.0000
  O   O2        1.0  0.10221166087854527  0.18953705962470474  0.8669429631910293  1.0000
  O   O3        1.0  0.8104647648929626  0.10220974181112298  0.13305665855964585  1.0000
  O   O4        1.0  0.1895361650474641  0.8977901768242654  0.1330567763549979  1.0000
  O   O5        1.0  0.3977887674978433  0.6895366454119837  0.36694286682020316  1.0000
  O   O6        1.0  0.6022096263157763  0.31046345971807904  0.36694281620167873  1.0000
  O   O7        1.0  0.31046340858156896  0.3977908378485677  0.6330568476365104  1.0000
  O   O8        1.0  0.6895372840605206  0.6022094794769045  0.6330568454580219  1.0000
  O   O9        1.0  0.9954584372642328  0.7961661420853261  0.7392667511062785  1.0000
  O   O10       1.0  0.004542204970434199  0.20383304736835575  0.7392661400108977  1.0000
  O   O11       1.0  0.7961661381928238  0.0045416174292896  0.26073348005990493  1.0000
  O   O12       1.0  0.20383351858998816  0.9954584030123212  0.2607336158710681  1.0000
  O   O13       1.0  0.4954570883814424  0.703832748908624  0.23926603187334194  1.0000
  O   O14       1.0  0.5045425785890671  0.29616604185400763  0.23926599013208977  1.0000
  O   O15       1.0  0.296166110195621  0.49545783453084596  0.7607336888749361  1.0000
  O   O16       1.0  0.7038345218514903  0.5045425846015729  0.7607336652358472  1.0000
