data_image0
_chemical_formula_structural       Ba4H36C44N12O20
_chemical_formula_sum              "Ba4 H36 C44 N12 O20"
_cell_length_a       7.140321111
_cell_length_b       13.435407830146968
_cell_length_c       13.996
_cell_angle_alpha    112.38544385908722
_cell_angle_beta     90.0
_cell_angle_gamma    90.0

_space_group_name_H-M_alt    "P 1"
_space_group_IT_number       1

loop_
  _space_group_symop_operation_xyz
  'x, y, z'

loop_
  _atom_site_type_symbol
  _atom_site_label
  _atom_site_symmetry_multiplicity
  _atom_site_fract_x
  _atom_site_fract_y
  _atom_site_fract_z
  _atom_site_occupancy
  Ba  Ba1       1.0  0.4642690361492328  0.31757021832667925  0.4585228054235345  1.0000
  Ba  Ba2       1.0  0.96427035884885  0.1824308552505656  0.5414790160362557  1.0000
  Ba  Ba3       1.0  0.5357294077582822  0.6824295139430985  0.5414770966992251  1.0000
  Ba  Ba4       1.0  0.0357294855559047  0.8175696819807854  0.45852260934534433  1.0000
  H   H1        1.0  0.0211321028360416  0.0032826332780829  0.2383578296685727  1.0000
  H   H2        1.0  0.5211306245411791  0.49671844029916196  0.7616425628115097  1.0000
  H   H3        1.0  0.978869142065953  0.9967187089148337  0.7616433755023096  1.0000
  H   H4        1.0  0.47886921986357567  0.5032812919706231  0.23835733931124994  1.0000
  H   H5        1.0  0.8609626800298145  0.086865817787583  0.2087821229320781  1.0000
  H   H6        1.0  0.3609627578274299  0.41313525578966187  0.7912182695480041  1.0000
  H   H7        1.0  0.1390385648721875  0.9131363293668997  0.7912186620280863  1.0000
  H   H8        1.0  0.6390384870745649  0.5868644764801232  0.20878163257475532  1.0000
  H   H9        1.0  0.18397211828138885  0.8800958768087384  0.09471555951341061  1.0000
  H   H10       1.0  0.6839734409810063  0.6199065389614232  0.9052853236476963  1.0000
  H   H11       1.0  0.8160249251288859  0.1199054653841785  0.9052856456574717  1.0000
  H   H12       1.0  0.3160264034237485  0.3800931933083547  0.09471457847506312  1.0000
  H   H13       1.0  0.1923218828190301  0.7613962438548113  0.9052579974997883  1.0000
  H   H14       1.0  0.6923218050214073  0.7386053669537844  0.09474330587204353  1.0000
  H   H15       1.0  0.8076765610884846  0.2386050983381125  0.09474463665080181  1.0000
  H   H16       1.0  0.3076766388861074  0.2613951702775664  0.9052554615501407  1.0000
  H   H17       1.0  0.9054312683557413  0.7483397672068149  0.7992415775987283  1.0000
  H   H18       1.0  0.4054313461533638  0.7516618436017808  0.20075972577310353  1.0000
  H   H19       1.0  0.09456997654625347  0.25166157498610175  0.20076034206201146  1.0000
  H   H20       1.0  0.594569898748631  0.2483386936295702  0.7992404706287887  1.0000
  H   H21       1.0  0.6161333547342167  0.9614549525032954  0.05010483898075081  1.0000
  H   H22       1.0  0.11613483302907919  0.5385450483821614  0.9498958758328087  1.0000
  H   H23       1.0  0.3838664896705382  0.0385455847280554  0.9498960719109988  1.0000
  H   H24       1.0  0.8838636108784357  0.46145468388762356  0.050104026289950775  1.0000
  H   H25       1.0  0.538709665882422  0.0936572785446188  0.2672438070865724  1.0000
  H   H26       1.0  0.0387111441772774  0.4063421851094873  0.7327559968352375  1.0000
  H   H27       1.0  0.4612887780250999  0.9063432586867322  0.7327556748254694  1.0000
  H   H28       1.0  0.9612901007247174  0.593655937237159  0.2672433167292496  1.0000
  H   H29       1.0  0.6032235711870939  0.2675555411645618  0.2418688258335138  1.0000
  H   H30       1.0  0.1032208479902366  0.2324423125664055  0.758130389530031  1.0000
  H   H31       1.0  0.3967776737149009  0.7324441911052233  0.7581310762892457  1.0000
  H   H32       1.0  0.8967775959172852  0.7675566147418067  0.24186921831359603  1.0000
  H   H33       1.0  0.4306150875012093  0.19012628784950175  0.17444593987666224  1.0000
  H   H34       1.0  0.9306136092063468  0.3098715658814655  0.8255532754868824  1.0000
  H   H35       1.0  0.5693861574007854  0.8098726394587104  0.8255529534771072  1.0000
  H   H36       1.0  0.069386235198408  0.6901273614267467  0.17444633235674448  1.0000
  C   C1        1.0  0.280634437702389  0.0313983309575576  0.3777897407862199  1.0000
  C   C2        1.0  0.7806315589102935  0.4686011326965555  0.6222100631355971  1.0000
  C   C3        1.0  0.7193668071996056  0.9686005963506616  0.622209867057407  1.0000
  C   C4        1.0  0.2193682854944612  0.5313953797269518  0.3777879473807744  1.0000
  C   C5        1.0  0.4634553472535003  0.9793049752942479  0.3359152744347327  1.0000
  C   C6        1.0  0.9634538689586378  0.5206942206296431  0.6640851460996943  1.0000
  C   C7        1.0  0.5365444971512545  0.020695561937103  0.6640849219671595  1.0000
  C   C8        1.0  0.036545975446116985  0.4793047066785688  0.33591517623379025  1.0000
  C   C9        1.0  0.5726353109947695  0.894614968627472  0.3405193282135457  1.0000
  C   C10       1.0  0.07263258779791218  0.6053842272964189  0.6594796633411734  1.0000
  C   C11       1.0  0.42736733440446517  0.10538556860387868  0.6594787247187882  1.0000
  C   C12       1.0  0.9273672566068425  0.3946138950502274  0.3405203647131714  1.0000
  C   C13       1.0  0.5467513210275285  0.8236415070952033  0.3994091187856413  1.0000
  C   C14       1.0  0.0467471973334312  0.6763560789055489  0.6005907131905132  1.0000
  C   C15       1.0  0.45325132437170607  0.1763582251745817  0.6005900688472608  1.0000
  C   C16       1.0  0.9532498460768435  0.3236420434410974  0.39941074384353936  1.0000
  C   C17       1.0  0.735860463180785  0.9712980225681348  0.2562232899481245  1.0000
  C   C18       1.0  0.23586054097840756  0.5287019783173292  0.7437759958857343  1.0000
  C   C19       1.0  0.2641393812239698  0.028703319624788996  0.7437772007329073  1.0000
  C   C20       1.0  0.7641379029291144  0.4712961440293171  0.25622331767876017  1.0000
  C   C21       1.0  0.8871477769033902  0.003243995122773  0.20002704236673455  1.0000
  C   C22       1.0  0.3871492551982527  0.4967570784544719  0.7999733501133478  1.0000
  C   C23       1.0  0.11285206750136467  0.9967573470701436  0.7999734483142972  1.0000
  C   C24       1.0  0.6128505892065021  0.5032426538153132  0.20002583751956146  1.0000
  C   C25       1.0  0.899460948626796  0.9308430689985838  0.08724893643066879  1.0000
  C   C26       1.0  0.39946242692165856  0.569157736848446  0.912751358172173  1.0000
  C   C27       1.0  0.1005374952807188  0.0691590781559057  0.9127518485294885  1.0000
  C   C28       1.0  0.6005388179803361  0.43084280038290496  0.08724740925001842  1.0000
  C   C29       1.0  0.062383749004474985  0.8731917214320504  0.04530455967540091  1.0000
  C   C30       1.0  0.5623850717040922  0.6268090844149725  0.9546957349274338  1.0000
  C   C31       1.0  0.9376174958975199  0.1268088157993006  0.9546963512163416  1.0000
  C   C32       1.0  0.4376147727006625  0.3731914528163784  0.0453030324947505  1.0000
  C   C33       1.0  0.0674983649205245  0.8070303201588301  0.9406877606852149  1.0000
  C   C34       1.0  0.567498287122902  0.6929704856881926  0.059312533917626864  1.0000
  C   C35       1.0  0.9325028799814702  0.19297021707252066  0.05931386469638509  1.0000
  C   C36       1.0  0.4325001567846129  0.3070308565047242  0.9406865277836971  1.0000
  C   C37       1.0  0.9078737355401854  0.7995852306078319  0.881201183034186  1.0000
  C   C38       1.0  0.4078738133378081  0.7004155752391981  0.11879911156865573  1.0000
  C   C39       1.0  0.0921261088645764  0.20041611158509198  0.11880073662655379  1.0000
  C   C40       1.0  0.5921260310669538  0.2995841570305871  0.881199361574396  1.0000
  C   C41       1.0  0.746707314295179  0.9180232510518562  0.020681709645039334  1.0000
  C   C42       1.0  0.24670879259004144  0.5819775547951664  0.9793192994476528  1.0000
  C   C43       1.0  0.253289729115096  0.08197889610263327  0.9793197898049755  1.0000
  C   C44       1.0  0.7532910518147131  0.4180237873977504  0.020681191233372035  1.0000
  N   N1        1.0  0.7404190816930338  0.8901925097677861  0.2891104751985338  1.0000
  N   N2        1.0  0.24041775899341636  0.6098066861561051  0.7108892308460426  1.0000
  N   N3        1.0  0.259580762711721  0.109807222501999  0.7108887124343753  1.0000
  N   N4        1.0  0.7595806849140985  0.390192241152107  0.2891110914874347  1.0000
  N   N5        1.0  0.571407074916351  0.0252009318383912  0.2819644972791409  1.0000
  N   N6        1.0  0.0714071527139737  0.4747985318157219  0.7180353066426762  1.0000
  N   N7        1.0  0.4285927694884037  0.9747996053929597  0.7180356991227512  1.0000
  N   N8        1.0  0.928595492685261  0.5251995905309242  0.2819647214116756  1.0000
  N   N9        1.0  0.7490181347391811  0.8535812476898597  0.9203080950578553  1.0000
  N   N10       1.0  0.2490196130340365  0.6464187531955972  0.0796919052658538  1.0000
  N   N11       1.0  0.2509803091683409  0.1464192895414911  0.07969210134403683  1.0000
  N   N12       1.0  0.7509802313707183  0.353580979074188  0.9203072823670553  1.0000
  O   O1        1.0  0.2563049996702063  0.12502582592412637  0.3769374923542017  1.0000
  O   O2        1.0  0.7563035213753437  0.3749744426915527  0.6230626058467408  1.0000
  O   O3        1.0  0.7436934442373158  0.8749731013840858  0.6230614009995679  1.0000
  O   O4        1.0  0.2436963230294111  0.6250236796550936  0.37693742220760384  1.0000
  O   O5        1.0  0.158247784999368  0.9838216146574934  0.4111596441330151  1.0000
  O   O6        1.0  0.6582477072017523  0.5161791911895364  0.5888420794495347  1.0000
  O   O7        1.0  0.8417534599026268  0.016177312650718496  0.5888406782004623  1.0000
  O   O8        1.0  0.3417549381974822  0.48381812619554404  0.4111555108561192  1.0000
  O   O9        1.0  0.4093303304661404  0.8394718813097127  0.460767289629878  1.0000
  O   O10       1.0  0.9093246506795651  0.6605248997294666  0.5392329625570014  1.0000
  O   O11       1.0  0.5906737154303343  0.16052704599849926  0.5392330327035993  1.0000
  O   O12       1.0  0.090670992233477  0.3394740275787456  0.46076950324604143  1.0000
  O   O13       1.0  0.6726798312474358  0.7521576999282401  0.38821165047647815  1.0000
  O   O14       1.0  0.1726743070561056  0.7478414959956508  0.6117880555680912  1.0000
  O   O15       1.0  0.3273256151462718  0.2478428373031107  0.6117871169457062  1.0000
  O   O16       1.0  0.8273241368514164  0.2521566263509953  0.38821125799639594  1.0000
  O   O17       1.0  0.5146015064139604  0.2082016998797513  0.23618044253649376  1.0000
  O   O18       1.0  0.014600183714343  0.2917985687359277  0.7638196556644559  1.0000
  O   O19       1.0  0.4853997384880344  0.7917980323900337  0.7638187450964155  1.0000
  O   O20       1.0  0.9854010611876517  0.7082003585722915  0.236179952179171  1.0000
