data_image0
_chemical_formula_structural       K4H8C24N12O28
_chemical_formula_sum              "K4 H8 C24 N12 O28"
_cell_length_a       7.150708521348264
_cell_length_b       12.236691745454815
_cell_length_c       12.236701383634541
_cell_angle_alpha    66.17560326091399
_cell_angle_beta     72.99535437485399
_cell_angle_gamma    72.99517467556947

_space_group_name_H-M_alt    "P 1"
_space_group_IT_number       1

loop_
  _space_group_symop_operation_xyz
  'x, y, z'

loop_
  _atom_site_type_symbol
  _atom_site_label
  _atom_site_symmetry_multiplicity
  _atom_site_fract_x
  _atom_site_fract_y
  _atom_site_fract_z
  _atom_site_occupancy
  K   K1        1.0  0.2500015232817319  0.11507375191743575  0.8849255222920005  1.0000
  K   K2        1.0  0.7499952404197215  0.38515924202541657  0.6148471242726855  1.0000
  K   K3        1.0  0.7500021256517045  0.8849253634891883  0.11507377988080239  1.0000
  K   K4        1.0  0.2500028171914793  0.6148414559500139  0.3851494427086948  1.0000
  H   H1        1.0  0.6094727720767423  0.36855543269916785  0.16221250016913297  1.0000
  H   H2        1.0  0.640366519194771  0.13152304894381942  0.3375819686251376  1.0000
  H   H3        1.0  0.8905273159086209  0.8377899107024975  0.6314445264358071  1.0000
  H   H4        1.0  0.8596348601299793  0.6624162481251051  0.8684782124827134  1.0000
  H   H5        1.0  0.39052642267051835  0.6314437488114566  0.8377868022076739  1.0000
  H   H6        1.0  0.35963549325822436  0.8684777012894216  0.662417331726182  1.0000
  H   H7        1.0  0.10946771279161284  0.16221159097342763  0.368557507154314  1.0000
  H   H8        1.0  0.14036888484983479  0.3375836186352928  0.13152200002652847  1.0000
  C   C1        1.0  0.8778320029437692  0.37233475389108883  0.8720972314820016  1.0000
  C   C2        1.0  0.6221675140625893  0.12790715579480874  0.6276629019622603  1.0000
  C   C3        1.0  0.12216676730503213  0.6276663128825888  0.12790206870175072  1.0000
  C   C4        1.0  0.37783368015018187  0.8720944118517412  0.3723363974783283  1.0000
  C   C5        1.0  0.7695151436409376  0.33057898342955405  0.9990580488703813  1.0000
  C   C6        1.0  0.59902418814211  0.16961814669009118  0.5006831188176476  1.0000
  C   C7        1.0  0.7304873330079713  0.0009403184157861791  0.6694258572840538  1.0000
  C   C8        1.0  0.9009754009355715  0.4993166251346114  0.8303842584767691  1.0000
  C   C9        1.0  0.23048382825687244  0.6694216484863347  0.0009394293581693001  1.0000
  C   C10       1.0  0.4009771021170467  0.8303841723102254  0.4993170909593657  1.0000
  C   C11       1.0  0.2695145297531667  0.9990568980149774  0.33057891460128985  1.0000
  C   C12       1.0  0.09902418755344655  0.5006836242257577  0.1696150426177141  1.0000
  C   C13       1.0  0.6935755210270996  0.40340129790438806  0.06973125557055938  1.0000
  C   C14       1.0  0.6667612783176936  0.0967549166979539  0.430075265575283  1.0000
  C   C15       1.0  0.8064258917842292  0.9302699799298824  0.5965985905111352  1.0000
  C   C16       1.0  0.8332376047705315  0.5699236591016758  0.9032473222063968  1.0000
  C   C17       1.0  0.3064223349350996  0.5965998349288245  0.9302671333660154  1.0000
  C   C18       1.0  0.3332397142460834  0.9032470858063918  0.5699258558204932  1.0000
  C   C19       1.0  0.19357542923161467  0.0697293859576434  0.4034016227412635  1.0000
  C   C20       1.0  0.16676037799474125  0.4300752719725125  0.09675198054199541  1.0000
  C   C21       1.0  0.7276703076348667  0.522284101119567  0.0221570004697895  1.0000
  C   C22       1.0  0.7723322512510578  0.9778411815875929  0.4777134099662774  1.0000
  C   C23       1.0  0.2723265591948022  0.4777153308719519  0.9778432129866204  1.0000
  C   C24       1.0  0.22767061019884252  0.022155798119548833  0.5222858947711727  1.0000
  N   N1        1.0  0.7281085282478232  0.2083545687022906  0.05449430305357338  1.0000
  N   N2        1.0  0.4905575228327878  0.2917848083317339  0.4452865757041166  1.0000
  N   N3        1.0  0.7718925627760882  0.9455073102062105  0.7916419593234493  1.0000
  N   N4        1.0  0.00944367692773075  0.5547123915568549  0.7082163181447213  1.0000
  N   N5        1.0  0.27189118704426835  0.7916434788990472  0.9455059118527342  1.0000
  N   N6        1.0  0.5094462221470263  0.708215058428664  0.5547136368051254  1.0000
  N   N7        1.0  0.22810853539029807  0.054493506086572656  0.20835642978070007  1.0000
  N   N8        1.0  0.9905553161705285  0.4452872248115584  0.29178480618728025  1.0000
  N   N9        1.0  0.6529850429245843  0.5969941611467322  0.0969283384229698  1.0000
  N   N10       1.0  0.8470164995899269  0.9030716302458193  0.4030059280361513  1.0000
  N   N11       1.0  0.34701395017366826  0.4030054552216812  0.9030727859090318  1.0000
  N   N12       1.0  0.15298452373053803  0.0969274191457217  0.5969951968350032  1.0000
  O   O1        1.0  0.9428024070371779  0.30735049636260237  0.8069749759781927  1.0000
  O   O2        1.0  0.5571982338900555  0.19302682381319172  0.6926474026337742  1.0000
  O   O3        1.0  0.057194332989417895  0.692651137387948  0.19302432366639263  1.0000
  O   O4        1.0  0.44280377856294  0.8069739264200494  0.30735189771754534  1.0000
  O   O5        1.0  0.8429160682363915  0.12643487337182802  0.017449167420274095  1.0000
  O   O6        1.0  0.4863864145418121  0.3737304436910876  0.4822472257976286  1.0000
  O   O7        1.0  0.6570849778553476  0.9825500114652006  0.8735641174690228  1.0000
  O   O8        1.0  0.013613586556154113  0.5177525003334511  0.626270992748445  1.0000
  O   O9        1.0  0.15708433849285092  0.8735645585752323  0.9825501345849544  1.0000
  O   O10       1.0  0.5136153002157965  0.6262699900461827  0.5177529861724538  1.0000
  O   O11       1.0  0.3429148334831282  0.017448787489904354  0.12643700777371686  1.0000
  O   O12       1.0  0.9863873099612376  0.4822487508171208  0.3737292183108919  1.0000
  O   O13       1.0  0.5775021664472888  0.19089501440299733  0.137467028973262  1.0000
  O   O14       1.0  0.4052366359139656  0.30914177096840945  0.36249383135458396  1.0000
  O   O15       1.0  0.9224953872333544  0.8625351763746781  0.8091045003273577  1.0000
  O   O16       1.0  0.09476561547774048  0.6375033222406615  0.6908602552540443  1.0000
  O   O17       1.0  0.4224967306045851  0.809103850611649  0.8625331850223077  1.0000
  O   O18       1.0  0.5947674067612351  0.6908584122879661  0.6375054695358954  1.0000
  O   O19       1.0  0.07750226707985057  0.13746639131633032  0.19089571056440488  1.0000
  O   O20       1.0  0.9052365237783276  0.3624952262335485  0.3091399589090997  1.0000
  O   O21       1.0  0.542683005364374  0.5572169383002789  0.19816391785241896  1.0000
  O   O22       1.0  0.7980852802193542  0.9428175675686391  0.3018196439308127  1.0000
  O   O23       1.0  0.9573173980111702  0.801837278327483  0.44278205276891197  1.0000
  O   O24       1.0  0.7019136791391605  0.69818211255663  0.05718046439352519  1.0000
  O   O25       1.0  0.4573196544365318  0.4427804762646518  0.801837208840226  1.0000
  O   O26       1.0  0.2019150516639597  0.05718009747718614  0.6981823938414208  1.0000
  O   O27       1.0  0.04268349850622133  0.19816397282309592  0.5572181582904249  1.0000
  O   O28       1.0  0.2980864298946953  0.3018170028944527  0.9428197492304591  1.0000
