data_image0
_chemical_formula_structural       Zn2H20C44N12O10
_chemical_formula_sum              "Zn2 H20 C44 N12 O10"
_cell_length_a       6.109804558500603
_cell_length_b       10.828537830780236
_cell_length_c       14.241692863092036
_cell_angle_alpha    90.12943340144939
_cell_angle_beta     78.81808891310412
_cell_angle_gamma    83.78898798898935

_space_group_name_H-M_alt    "P 1"
_space_group_IT_number       1

loop_
  _space_group_symop_operation_xyz
  'x, y, z'

loop_
  _atom_site_type_symbol
  _atom_site_label
  _atom_site_symmetry_multiplicity
  _atom_site_fract_x
  _atom_site_fract_y
  _atom_site_fract_z
  _atom_site_occupancy
  Zn  Zn1       1.0  0.33262147112588275  0.17301409345913038  0.4700301959407014  1.0000
  Zn  Zn2       1.0  0.6673934902009719  0.826971706402709  0.52996432894318  1.0000
  H   H1        1.0  0.8977976536353366  0.506590785983299  0.4472324475168676  1.0000
  H   H2        1.0  0.10219398932938621  0.493413883449925  0.552773025249742  1.0000
  H   H3        1.0  0.09597668963505161  0.1953673161476672  0.7825878942259762  1.0000
  H   H4        1.0  0.9040316430906329  0.8046204261408505  0.21739871161323523  1.0000
  H   H5        1.0  0.7046542204324877  0.3237317850787634  0.5172878678041286  1.0000
  H   H6        1.0  0.29533770991627506  0.6762710265427785  0.482717578409016  1.0000
  H   H7        1.0  0.7804331462814673  0.610013756016002  0.3076326140338921  1.0000
  H   H8        1.0  0.21956408963509935  0.3899880524928534  0.6923689154889772  1.0000
  H   H9        1.0  0.9659271239426345  0.07716440104228181  0.9281603689758384  1.0000
  H   H10       1.0  0.03407190624644584  0.9228485028186384  0.0718368389993032  1.0000
  H   H11       1.0  0.633102086678946  0.9592890331655963  0.9371906422752759  1.0000
  H   H12       1.0  0.3668878886814467  0.04072585653448609  0.0628170899522473  1.0000
  H   H13       1.0  0.4354321676456436  0.9602139611861984  0.7999070924639612  1.0000
  H   H14       1.0  0.5645472511765703  0.0397936614618146  0.20010142267121012  1.0000
  H   H15       1.0  0.802243620565882  0.17764594108976436  0.21048688979964683  1.0000
  H   H16       1.0  0.19775486126297193  0.822368827490713  0.7895166849796169  1.0000
  H   H17       1.0  0.9350938460819974  0.10577854579705809  0.35964072216128073  1.0000
  H   H18       1.0  0.06491717157874886  0.8942212141789203  0.6403569467800949  1.0000
  H   H19       1.0  0.9635473225261251  0.3577937771130308  0.123293412796265  1.0000
  H   H20       1.0  0.03645283159907111  0.6422209680110739  0.8767100349656403  1.0000
  C   C1        1.0  0.7656975514584019  0.47225376182721135  0.416681583385369  1.0000
  C   C2        1.0  0.2343061429594471  0.5277488840646003  0.5833215647616897  1.0000
  C   C3        1.0  0.18370603137704927  0.3810137068721673  0.2226920442619473  1.0000
  C   C4        1.0  0.8162844607567336  0.6189974687396428  0.7773170438032508  1.0000
  C   C5        1.0  0.28468765043090366  0.4866540903776765  0.17567299068823422  1.0000
  C   C6        1.0  0.7153097615723211  0.5133560602001525  0.8243334626139216  1.0000
  C   C7        1.0  0.9499180076515972  0.14416497702453057  0.7871495828878567  1.0000
  C   C8        1.0  0.05008634642386769  0.8558256042670607  0.2128422481223353  1.0000
  C   C9        1.0  0.6533464739142332  0.07720818859913692  0.7137923523440861  1.0000
  C   C10       1.0  0.34664585511597323  0.9227825653300669  0.2862081169828485  1.0000
  C   C11       1.0  0.8397258075640508  0.14428714344069957  0.7094362691156207  1.0000
  C   C12       1.0  0.16027828213795914  0.8556941730164169  0.29055626061691703  1.0000
  C   C13       1.0  0.6592084648198763  0.37094333513173433  0.45536968862464994  1.0000
  C   C14       1.0  0.3407956316766843  0.6290565248100961  0.5446341241645172  1.0000
  C   C15       1.0  0.4652441335255518  0.5376062703406462  0.21337223637359412  1.0000
  C   C16       1.0  0.5347612911833366  0.46239635055970035  0.7866293758115219  1.0000
  C   C17       1.0  0.5306970311059657  0.4851321711435189  0.29923992398629207  1.0000
  C   C18       1.0  0.4693070376879902  0.5148686146339826  0.7007610841904183  1.0000
  C   C19       1.0  0.2548002673476972  0.3309221817237002  0.3042982215139105  1.0000
  C   C20       1.0  0.7451932252947487  0.6690917313902459  0.6957085389298783  1.0000
  C   C21       1.0  0.7004884173813933  0.5306077069944094  0.33859502914872763  1.0000
  C   C22       1.0  0.29951259290918836  0.46939034281604125  0.6614097155939832  1.0000
  C   C23       1.0  0.4302155926368343  0.383294284291857  0.3426090970728879  1.0000
  C   C24       1.0  0.5697793949205662  0.6167103382286071  0.6573961216590051  1.0000
  C   C25       1.0  0.8770714317791927  0.0772922364936264  0.868667041620313  1.0000
  C   C26       1.0  0.12293007017164831  0.9227048752004805  0.131329236178118  1.0000
  C   C27       1.0  0.5357738636091725  0.0715746450905499  0.6305177427409632  1.0000
  C   C28       1.0  0.46423290892536784  0.9284103423797987  0.3694766994806714  1.0000
  C   C29       1.0  0.6905104772386181  0.011610233770262804  0.8737441476321804  1.0000
  C   C30       1.0  0.3094834430826269  0.9883916208838032  0.12625693145309919  1.0000
  C   C31       1.0  0.580205817570409  0.011760301801160703  0.796762077416723  1.0000
  C   C32       1.0  0.41978556231559594  0.9882360278657102  0.2032405849874763  1.0000
  C   C33       1.0  0.9300333374501335  0.2238575003854777  0.235849442343067  1.0000
  C   C34       1.0  0.06996776581926412  0.7761516690009602  0.7641518123415735  1.0000
  C   C35       1.0  0.5132861547717553  0.6660771689745104  0.08956629575009602  1.0000
  C   C36       1.0  0.48671560896305266  0.3339273574178138  0.910436301495487  1.0000
  C   C37       1.0  0.9438725854265755  0.20847917016798329  0.6210278608190976  1.0000
  C   C38       1.0  0.05613579930705736  0.791497448706842  0.3789587127167025  1.0000
  C   C39       1.0  0.3305679170823268  0.6202204375321257  0.0550119437821408  1.0000
  C   C40       1.0  0.6694247944132811  0.3797879248356181  0.9449941595463259  1.0000
  C   C41       1.0  0.0050730220103573954  0.1822986997346518  0.3185121728822509  1.0000
  C   C42       1.0  0.9949334145294627  0.8177085407034284  0.6814879697245644  1.0000
  C   C43       1.0  0.019245531822527116  0.32356450831837685  0.1875394897599136  1.0000
  C   C44       1.0  0.9807445015325768  0.6764503798466206  0.8124668335230183  1.0000
  N   N1        1.0  0.49354431315293107  0.328499352800769  0.4195475813735143  1.0000
  N   N2        1.0  0.5064584274286972  0.6714986720182238  0.580455627407254  1.0000
  N   N3        1.0  0.1664847001773424  0.23404597527681398  0.35062242311694564  1.0000
  N   N4        1.0  0.8335204951422029  0.7659585019001226  0.6493778066770304  1.0000
  N   N5        1.0  0.5795978892054523  0.6258780022358507  0.17022224382300516  1.0000
  N   N6        1.0  0.42040687034600677  0.37411906484812346  0.8297758933576065  1.0000
  N   N7        1.0  0.2151319022414953  0.5294212979286427  0.0979890534982957  1.0000
  N   N8        1.0  0.7848486141089595  0.470590016886348  0.9020193877264404  1.0000
  N   N9        1.0  0.305704954304602  0.676123562551112  0.9740584266302649  1.0000
  N   N10       1.0  0.694280693629544  0.3238867537564545  0.02595032473797686  1.0000
  N   N11       1.0  0.6026013760815727  0.74928662451719  0.02941043386466901  1.0000
  N   N12       1.0  0.3973955144562423  0.25071704333843314  0.9705925311562495  1.0000
  O   O1        1.0  0.47352969487858587  0.9673287045011847  0.6102230850289987  1.0000
  O   O2        1.0  0.5264849236589981  0.03266080484367251  0.38976585718343426  1.0000
  O   O3        1.0  0.5000703361792915  0.17137317653296694  0.5865275822628817  1.0000
  O   O4        1.0  0.4999320556263099  0.8286174358904289  0.4134714204876246  1.0000
  O   O5        1.0  0.47388401054183044  0.7545521938965224  0.9593422764465701  1.0000
  O   O6        1.0  0.5261086152564616  0.24545709584197084  0.04066243121403093  1.0000
  O   O7        1.0  0.0482873989464352  0.1332621756292269  0.5525428368722345  1.0000
  O   O8        1.0  0.9517366303487266  0.8666966186642994  0.4474537398235797  1.0000
  O   O9        1.0  0.9341329080767763  0.3245974967201022  0.6219151009620845  1.0000
  O   O10       1.0  0.06588672055526956  0.6753733987709013  0.3780621771416506  1.0000
