data_image0
_chemical_formula_structural       Zn8H16C80N8O26F32
_chemical_formula_sum              "Zn8 H16 C80 N8 O26 F32"
_cell_length_a       23.800200534750655
_cell_length_b       23.80142248218575
_cell_length_c       23.800336846586255
_cell_angle_alpha    66.84557627891677
_cell_angle_beta     72.34501829734057
_cell_angle_gamma    107.66600424837144

_space_group_name_H-M_alt    "P 1"
_space_group_IT_number       1

loop_
  _space_group_symop_operation_xyz
  'x, y, z'

loop_
  _atom_site_type_symbol
  _atom_site_label
  _atom_site_symmetry_multiplicity
  _atom_site_fract_x
  _atom_site_fract_y
  _atom_site_fract_z
  _atom_site_occupancy
  Zn  Zn1       1.0  0.054779654090765316  0.9547372141246058  0.4879686621181066  1.0000
  Zn  Zn2       1.0  0.05478381369577079  0.10002556125657243  0.4572588010048406  1.0000
  Zn  Zn3       1.0  0.9452133378888724  0.9879550087979749  0.45474059557125923  1.0000
  Zn  Zn4       1.0  0.9452123602632195  0.9572524448893636  0.600032152250307  1.0000
  Zn  Zn5       1.0  0.9426957328303444  0.5427213915049764  0.012069169927208594  1.0000
  Zn  Zn6       1.0  0.057311986240890116  0.512068928410848  0.04273710856169548  1.0000
  Zn  Zn7       1.0  0.9427129604104819  0.3999796676964991  0.04522963870626048  1.0000
  Zn  Zn8       1.0  0.057305364900834335  0.5452480493580724  0.8999724956800534  1.0000
  H   H1        1.0  0.9139397324817862  0.8404725652713055  0.7500000289178602  1.0000
  H   H2        1.0  0.9082607923587953  0.8029572020898712  0.8311323668158296  1.0000
  H   H3        1.0  0.09041944445713296  0.6638642583118894  0.7500482202856631  1.0000
  H   H4        1.0  0.134038145976234  0.7393154753069525  0.668915979688066  1.0000
  H   H5        1.0  0.9095420680414104  0.6595252293657125  0.9265714262784713  1.0000
  H   H6        1.0  0.8659358901827967  0.6970507024333444  0.8947327257463158  1.0000
  H   H7        1.0  0.08606065079214884  0.8360659250280025  0.5734878122687446  1.0000
  H   H8        1.0  0.09172479640446325  0.7606091073217344  0.605324484543516  1.0000
  H   H9        1.0  0.9139328226463731  0.07347679406625915  0.3360517118795984  1.0000
  H   H10       1.0  0.9082679416899353  0.10531946069464468  0.26059676335570003  1.0000
  H   H11       1.0  0.09044506872963598  0.42656183418928606  0.15956819425394292  1.0000
  H   H12       1.0  0.13405495573542933  0.39472813486350594  0.19709106499109907  1.0000
  H   H13       1.0  0.9095738699370556  0.2500483148763949  0.16386138660953262  1.0000
  H   H14       1.0  0.8659544151585975  0.16891139967776084  0.23930112443906643  1.0000
  H   H15       1.0  0.08606230704963014  0.2499821748760667  0.34049252807331953  1.0000
  H   H16       1.0  0.09172949937337897  0.33110236715369723  0.303002307778641  1.0000
  C   C1        1.0  0.1773354610952679  0.08866834144587438  0.4113060564460512  1.0000
  C   C2        1.0  1.2576790026630096e-06  0.1393940992356448  0.36060208908260444  1.0000
  C   C3        1.0  0.9999835591790855  0.9096623801868519  0.4096856690233394  1.0000
  C   C4        1.0  0.8226623128427089  0.9112984990390132  0.5886479748260173  1.0000
  C   C5        1.0  8.050958427729803e-06  0.8606178611615719  0.6394013171384569  1.0000
  C   C6        1.0  0.9999642987850879  0.09035201577154345  0.5902970018614155  1.0000
  C   C7        1.0  2.1678856818011643e-05  0.5886690199690535  0.08869170618699945  1.0000
  C   C8        1.0  1.4107513557248375e-05  0.36064317167742393  0.13937731002668127  1.0000
  C   C9        1.0  0.8193467080750595  0.40964882922824614  0.09034256638130236  1.0000
  C   C10       1.0  4.00038719518582e-05  0.4113301133782131  0.9113231712253551  1.0000
  C   C11       1.0  0.9999827901549879  0.6393646173682587  0.8606427709843913  1.0000
  C   C12       1.0  0.18065759364930034  0.5903162962199887  0.9096920966592421  1.0000
  C   C13       1.0  0.9999952269575016  0.8045805768941109  0.6954303777608218  1.0000
  C   C14       1.0  0.9999834868643944  0.6953755795892821  0.8046306306890258  1.0000
  C   C15       1.0  0.956414079343638  0.7772543526132341  0.7669076501484823  1.0000
  C   C16       1.0  0.04412612973859361  0.7232629104565975  0.7331470535712299  1.0000
  C   C17       1.0  0.9558468802081633  0.7227230887435784  0.8208821942407099  1.0000
  C   C18       1.0  0.04357224774789579  0.7766829925509596  0.6791799141772118  1.0000
  C   C19       1.0  1.4040492146543448e-06  0.1954123358354778  0.3045889275445433  1.0000
  C   C20       1.0  1.047618682286164e-05  0.30462041463403017  0.195396670426824  1.0000
  C   C21       1.0  0.9564142231181093  0.1791659908353012  0.2766803642142223  1.0000
  C   C22       1.0  0.04415004356433625  0.320873086009236  0.22274636997210703  1.0000
  C   C23       1.0  0.9558667036614209  0.23313836550297398  0.22326283098964703  1.0000
  C   C24       1.0  0.043586758847240455  0.26689219569390593  0.27727621971461497  1.0000
  C   C25       1.0  3.0437513913328627e-06  0.6264080091628941  0.12643438496568393  1.0000
  C   C26       1.0  0.9598125568460603  0.6591606999365428  0.13090321654334494  1.0000
  C   C27       1.0  0.9597355219606025  0.6940361669573747  0.1660364932167939  1.0000
  C   C28       1.0  0.999953265154559  0.6985137036795804  0.1985709573314411  1.0000
  C   C29       1.0  0.0402012791569034  0.666018374180702  0.1941080134464812  1.0000
  C   C30       1.0  0.040185153779311894  0.6309107383330924  0.15920331269450838  1.0000
  C   C31       1.0  0.9999429579732176  0.7338354796938518  0.23391727871379703  1.0000
  C   C32       1.0  0.9999452689110195  0.7644670869929584  0.26456480049574105  1.0000
  C   C33       1.0  0.999949562578578  0.799802404171473  0.2998984208701075  1.0000
  C   C34       1.0  0.9556342914415691  0.827260448141921  0.30945175201795655  1.0000
  C   C35       1.0  0.9555590972564115  0.8622143409504378  0.3445001852445558  1.0000
  C   C36       1.0  0.9999747188279996  0.8719408343053702  0.3719814039273146  1.0000
  C   C37       1.0  0.04438273503227897  0.8444559741642977  0.3622627445022175  1.0000
  C   C38       1.0  0.044276351784119906  0.8093848430932624  0.3273445028818145  1.0000
  C   C39       1.0  6.035946235971573e-05  0.3735938817181009  0.8735755229194879  1.0000
  C   C40       1.0  0.0402334269437147  0.4092866980555954  0.8006307955126883  1.0000
  C   C41       1.0  0.04027951769183585  0.3742146343136596  0.7656978543993417  1.0000
  C   C42       1.0  2.4265892172043002e-05  0.30146326191200506  0.8014658807426756  1.0000
  C   C43       1.0  0.9597895130255625  0.26571358317399807  0.8742079390810885  1.0000
  C   C44       1.0  0.9598500758319234  0.30065925758949436  0.9092727155513103  1.0000
  C   C45       1.0  4.161399807857413e-06  0.2661366449707216  0.7661243725358488  1.0000
  C   C46       1.0  0.9999953058626402  0.23550357574631417  0.7354730343581722  1.0000
  C   C47       1.0  0.9999712299306436  0.20016256803671684  0.7001434450955699  1.0000
  C   C48       1.0  0.04430693192654895  0.23492500023755278  0.6283743695176794  1.0000
  C   C49       1.0  0.04438746213423168  0.19996497731342094  0.5933351414193311  1.0000
  C   C50       1.0  0.9999889952946147  0.12807428169941218  0.6279966029625328  1.0000
  C   C51       1.0  0.9555648885884834  0.09338860255481758  0.6998895567527796  1.0000
  C   C52       1.0  0.9556493424375744  0.1283930312887875  0.7348823359362058  1.0000
  C   C53       1.0  0.743915072671676  0.3719450452893013  0.12805996654958574  1.0000
  C   C54       1.0  0.7067036249310733  0.40662676034422446  0.13778431270964822  1.0000
  C   C55       1.0  0.6367055079391689  0.3715987237940369  0.1727071322354093  1.0000
  C   C56       1.0  0.5996853479747912  0.29983239622332314  0.20015450179533884  1.0000
  C   C57       1.0  0.6367041323206664  0.2650813627318558  0.19059858796137527  1.0000
  C   C58       1.0  0.7067054160228992  0.30004770928702845  0.1555516589131472  1.0000
  C   C59       1.0  0.5290144209821718  0.26449571007838557  0.23548002420994865  1.0000
  C   C60       1.0  0.4677409226263194  0.23384342090994192  0.2661029130443353  1.0000
  C   C61       1.0  0.39707147360176986  0.19850977965637648  0.3014297284730745  1.0000
  C   C62       1.0  0.3600938682368237  0.23427521145526953  0.3059064251318945  1.0000
  C   C63       1.0  0.2900909810596275  0.19936079514274507  0.3407955487263408  1.0000
  C   C64       1.0  0.25282585030398497  0.12640787814898857  0.3735534097587632  1.0000
  C   C65       1.0  0.290050147692014  0.09069818766680977  0.3690766875981382  1.0000
  C   C66       1.0  0.3600681609687014  0.1257656855990774  0.3339528746335035  1.0000
  C   C67       1.0  0.2560875780035019  0.6280418939816743  0.8719644936839187  1.0000
  C   C68       1.0  0.2933066183394358  0.637751265841338  0.9066566872119638  1.0000
  C   C69       1.0  0.36330002436368836  0.6726821005159566  0.8716236254115657  1.0000
  C   C70       1.0  0.40031310842005746  0.7001242325794694  0.79984746669097  1.0000
  C   C71       1.0  0.36327743730016215  0.6905699945383148  0.7651049726679063  1.0000
  C   C72       1.0  0.2932754355690291  0.6555151849790378  0.8000802813748746  1.0000
  C   C73       1.0  0.47097578600428125  0.7354495232284111  0.7645100279323742  1.0000
  C   C74       1.0  0.5322589419810909  0.7660915871951703  0.7338432901092418  1.0000
  C   C75       1.0  0.6029261201294246  0.8014297299536325  0.6985086644820128  1.0000
  C   C76       1.0  0.6399215428554255  0.8059123559316391  0.7342615603701577  1.0000
  C   C77       1.0  0.709936534364516  0.8408080341701523  0.6993261620053276  1.0000
  C   C78       1.0  0.7471719888259825  0.8735522292526667  0.6263885511435917  1.0000
  C   C79       1.0  0.7099155925387275  0.8690768628645102  0.5906861686413267  1.0000
  C   C80       1.0  0.6399117515565962  0.8339540725575746  0.6257531257956258  1.0000
  N   N1        1.0  0.9114227794049298  0.7996523451432229  0.7890150275376229  1.0000
  N   N2        1.0  0.08861488563797337  0.7003701886361571  0.7110390057971754  1.0000
  N   N3        1.0  0.9113499102261426  0.7003389813787991  0.8882648211360405  1.0000
  N   N4        1.0  0.08856865263452822  0.7995644518929484  0.6117924025989367  1.0000
  N   N5        1.0  0.9114276983232585  0.11178400391334992  0.29955012838446043  1.0000
  N   N6        1.0  0.0886442602422051  0.3882559206730677  0.2003736253038041  1.0000
  N   N7        1.0  0.9113738871443784  0.21103546551956504  0.20036603638963868  1.0000
  N   N8        1.0  0.08857223667993704  0.28899669379873677  0.2996803855232031  1.0000
  O   O1        1.0  0.9999989609571001  0.9999910362867441  0.4999983275180638  1.0000
  O   O2        1.0  0.14865452069143706  0.02901830498380782  0.4199264064029151  1.0000
  O   O3        1.0  0.047594497201352184  0.15488800407132436  0.3763110517995045  1.0000
  O   O4        1.0  0.9752386430799048  0.9508114058970919  0.3973207901822492  1.0000
  O   O5        1.0  0.14867602420811468  0.11965224567767763  0.4313615907757153  1.0000
  O   O6        1.0  0.02472540651833525  0.897305469349476  0.4508344139822428  1.0000
  O   O7        1.0  0.9524113620086536  0.07608886061807134  0.39268623242032424  1.0000
  O   O8        1.0  0.8513240326753289  0.919908542866125  0.5289912087816973  1.0000
  O   O9        1.0  0.952439129689843  0.8763359148244875  0.6549059625926503  1.0000
  O   O10       1.0  0.8513152961398018  0.9313205984941817  0.6196546536833624  1.0000
  O   O11       1.0  0.04757919249256277  0.8926820236685135  0.5761127994909784  1.0000
  O   O12       1.0  0.024761001756125677  0.1274690234039539  0.5243952576302249  1.0000
  O   O13       1.0  0.9752089627064744  0.024464212073070236  0.6273979637240005  1.0000
  O   O14       1.0  9.635349023413434e-06  0.5000117442973178  0.9999979264673372  1.0000
  O   O15       1.0  0.948986838337916  0.5685827255925561  0.08008500232919147  1.0000
  O   O16       1.0  0.031212726754780862  0.4239370366487238  0.12367897548081427  1.0000
  O   O17       1.0  0.8481365555254359  0.3725478839371662  0.10265717581625464  1.0000
  O   O18       1.0  0.05105239040685911  0.5800589577042033  0.06864828812910424  1.0000
  O   O19       1.0  0.8481293185345533  0.4755471273668164  0.04922166625515004  1.0000
  O   O20       1.0  0.9688195637212971  0.34515213950177076  0.10727551808934531  1.0000
  O   O21       1.0  0.9490166755370023  0.38035836291196995  0.9709600376727608  1.0000
  O   O22       1.0  0.031186186019958408  0.6072702735712241  0.845145730957853  1.0000
  O   O23       1.0  0.05108343491475136  0.47097326912254556  0.880358933303846  1.0000
  O   O24       1.0  0.968768348915006  0.6236470836474768  0.9239493955975602  1.0000
  O   O25       1.0  0.15187567908824198  0.5491948096507714  0.9755862206204212  1.0000
  O   O26       1.0  0.1518652020605981  0.6026719492142618  0.8725860915128861  1.0000
  F   F1        1.0  0.920828565589609  0.6594853059506818  0.10013140485393277  1.0000
  F   F2        1.0  0.07919323832862785  0.6001606687794451  0.159528652844358  1.0000
  F   F3        1.0  0.07938434477471634  0.6686373774502172  0.22462728170243199  1.0000
  F   F4        1.0  0.9205573457232532  0.7245531705356927  0.16864274839583962  1.0000
  F   F5        1.0  0.9120066134601144  0.8191760813476636  0.2844419743828441  1.0000
  F   F6        1.0  0.08790422114317634  0.7843956988546309  0.319247112251368  1.0000
  F   F7        1.0  0.08985540452785999  0.8522620531121635  0.38498214282489585  1.0000
  F   F8        1.0  0.9101118165764883  0.884959949317583  0.35226208325073594  1.0000
  F   F9        1.0  0.07923511834496103  0.4790393634551507  0.7613206108811923  1.0000
  F   F10       1.0  0.9208421983065803  0.2613332671135353  0.9790289350141136  1.0000
  F   F11       1.0  0.9205971707668538  0.19602494263667578  0.9107644966085502  1.0000
  F   F12       1.0  0.07946880167920496  0.4107727417740392  0.6960084388411047  1.0000
  F   F13       1.0  0.08795429472959869  0.30354436131840157  0.5928373796749327  1.0000
  F   F14       1.0  0.9120231817181333  0.09286332468882107  0.8035010467796226  1.0000
  F   F15       1.0  0.9100963924255862  0.025190692303325973  0.7375835028987369  1.0000
  F   F16       1.0  0.08986373989875313  0.2376318358615777  0.5251492827820955  1.0000
  F   F17       1.0  0.7372298909505233  0.4748253394473424  0.11504207762794051  1.0000
  F   F18       1.0  0.7372182953609963  0.26236423931193537  0.1477746179373868  1.0000
  F   F19       1.0  0.6036238427915491  0.19646084077706405  0.21559004725940414  1.0000
  F   F20       1.0  0.6036364446697958  0.40714270272978587  0.1807916180777838  1.0000
  F   F21       1.0  0.3932331398125228  0.303970656103978  0.2753871704123156  1.0000
  F   F22       1.0  0.3931799547034417  0.08917956480026144  0.33134658351356444  1.0000
  F   F23       1.0  0.2596148939845477  0.020949750563836696  0.3998377184174018  1.0000
  F   F24       1.0  0.25966290707673056  0.23868012949507997  0.3404952239384187  1.0000
  F   F25       1.0  0.26279777757611783  0.6150250278890894  0.9748449191528722  1.0000
  F   F26       1.0  0.2627456628435921  0.6477456197518238  0.7624048120649007  1.0000
  F   F27       1.0  0.39634199339155146  0.7155613554799345  0.696486368959711  1.0000
  F   F28       1.0  0.3963987808277451  0.6807692323674603  0.9071583478756579  1.0000
  F   F29       1.0  0.6067952415369929  0.7753959801647953  0.8039619997062815  1.0000
  F   F30       1.0  0.6067733114849997  0.8313370240055419  0.5891864139397004  1.0000
  F   F31       1.0  0.7403499884842686  0.8998422451314101  0.5209360978456417  1.0000
  F   F32       1.0  0.740362625217713  0.8404997375950956  0.7386473685612247  1.0000
