data_image0
_chemical_formula_structural       Zn4H26C49O16
_chemical_formula_sum              "Zn4 H26 C49 O16"
_cell_length_a       15.554872560998456
_cell_length_b       15.809370899201285
_cell_length_c       19.41997553548557
_cell_angle_alpha    83.14114731838808
_cell_angle_beta     79.2569709272887
_cell_angle_gamma    67.00316531892392

_space_group_name_H-M_alt    "P 1"
_space_group_IT_number       1

loop_
  _space_group_symop_operation_xyz
  'x, y, z'

loop_
  _atom_site_type_symbol
  _atom_site_label
  _atom_site_symmetry_multiplicity
  _atom_site_fract_x
  _atom_site_fract_y
  _atom_site_fract_z
  _atom_site_occupancy
  Zn  Zn1       1.0  0.42254244336034935  0.6021901916437925  0.4344770844432587  1.0000
  Zn  Zn2       1.0  0.42725100492921086  0.44453999709160996  0.560720175840835  1.0000
  Zn  Zn3       1.0  0.5534550789872696  0.5676686490465243  0.5448566867602834  1.0000
  Zn  Zn4       1.0  0.6044834072480895  0.40863704963154396  0.4409764951504655  1.0000
  H   H1        1.0  0.4246038108566596  0.6142946305925675  0.2221611065758963  1.0000
  H   H2        1.0  0.6166834620552778  0.7606484495259593  0.5192099941763927  1.0000
  H   H3        1.0  0.8197971639525291  0.7364935808614989  0.47767235955723897  1.0000
  H   H4        1.0  0.9457883322993438  0.7828087153244712  0.49769988657821784  1.0000
  H   H5        1.0  0.16358830853220496  0.4558207567277038  0.5173840480667096  1.0000
  H   H6        1.0  0.8843210447534773  0.28847385309179424  0.47990991703296965  1.0000
  H   H7        1.0  0.11627912691658786  0.35916386477533285  0.505776538516791  1.0000
  H   H8        1.0  0.05399591948945929  0.24196413969299607  0.49284234207341615  1.0000
  H   H9        1.0  0.7561955037469872  0.6172636284046504  0.47616169594233776  1.0000
  H   H10       1.0  0.484677940201415  0.6396131938921529  0.7501281106885642  1.0000
  H   H11       1.0  0.4779790712365541  0.5764288794920063  0.9892026658702375  1.0000
  H   H12       1.0  0.4897259451725587  0.6374321534800701  0.87774809875512  1.0000
  H   H13       1.0  0.5977562180651219  0.31041004885018  0.11715442179582418  1.0000
  H   H14       1.0  0.6074178981587722  0.3297128213807384  0.24057061516107575  1.0000
  H   H15       1.0  0.5194533822904717  0.3693491607366042  0.012994332691412994  1.0000
  H   H16       1.0  0.4160168872032131  0.5966891758745662  0.09883116940527961  1.0000
  H   H17       1.0  0.18448554094850067  0.7461005623011445  0.535398562306483  1.0000
  H   H18       1.0  0.4466849359889693  0.37440737374870997  0.7299552978877698  1.0000
  H   H19       1.0  0.45738797262220726  0.3157339591891528  0.8841814251327731  1.0000
  H   H20       1.0  0.7176237681184644  0.1310467870809759  0.5479501991715026  1.0000
  H   H21       1.0  0.7195873202990982  0.8288646727596999  0.5510643202813554  1.0000
  H   H22       1.0  0.7591150714498692  0.9611147149936273  0.5590062506556845  1.0000
  H   H23       1.0  0.44186721861075995  0.1733458917876618  0.5072099091134559  1.0000
  H   H24       1.0  0.31134665489764757  0.8813329191071942  0.4418775090086554  1.0000
  H   H25       1.0  0.3594102783847788  0.11908232792867321  0.48187862023075906  1.0000
  H   H26       1.0  0.2573266020069624  0.05158665690647981  0.44637468832883076  1.0000
  C   C1        1.0  0.5512785683647439  0.2618582796212792  0.520382146828396  1.0000
  C   C2        1.0  0.5041484562180331  0.43946808952336613  0.026066540585041823  1.0000
  C   C3        1.0  0.4862075307974579  0.508257836756826  0.9753595354698134  1.0000
  C   C4        1.0  0.4643224688347091  0.7519857396274433  0.4770342952338068  1.0000
  C   C5        1.0  0.4701447051028466  0.5086756851433024  0.7571354092044158  1.0000
  C   C6        1.0  0.6901201589275772  0.007853561806086899  0.5464336131499791  1.0000
  C   C7        1.0  0.5762868691763999  0.16058101008740525  0.5273006275881044  1.0000
  C   C8        1.0  0.3560402438826386  0.9114928147995726  0.4580359202351828  1.0000
  C   C9        1.0  0.3260746134800031  0.007020140637692397  0.460453928249592  1.0000
  C   C10       1.0  0.38370332070987706  0.0445919965790296  0.4806747084140426  1.0000
  C   C11       1.0  0.4731389354926775  0.988684778352429  0.4991109298892765  1.0000
  C   C12       1.0  0.5079845749929461  0.45248078736375436  0.09830076459528667  1.0000
  C   C13       1.0  0.5035199386829774  0.8905424013640156  0.4984715164743178  1.0000
  C   C14       1.0  0.535309066073097  0.029029202111154003  0.5170315137854047  1.0000
  C   C15       1.0  0.62601301075901  0.9700767560989759  0.5337391231862652  1.0000
  C   C16       1.0  0.25129900197509863  0.5690231137837928  0.5120693667432048  1.0000
  C   C17       1.0  0.6516744225748852  0.8730721825541535  0.535410726645935  1.0000
  C   C18       1.0  0.5943065528488775  0.8348458890601974  0.5178763850270157  1.0000
  C   C19       1.0  0.5112314480900934  0.12481784980726471  0.517104801383695  1.0000
  C   C20       1.0  0.667310398377708  0.1015786475159715  0.541051347488917  1.0000
  C   C21       1.0  0.44257961177665106  0.8530052749012782  0.4773723186038409  1.0000
  C   C22       1.0  0.9930362784719191  0.7105114821181288  0.5003584950133657  1.0000
  C   C23       1.0  0.5602943339818013  0.3773443577258959  0.1400395880383556  1.0000
  C   C24       1.0  0.14754948368717188  0.5960182316885251  0.5132987833409925  1.0000
  C   C25       1.0  0.912417292027918  0.34017987516570264  0.4853964153031709  1.0000
  C   C26       1.0  0.007600368775349895  0.31448874613451483  0.49256433451418496  1.0000
  C   C27       1.0  0.042328898897899585  0.38081557486213313  0.49976904863375887  1.0000
  C   C28       1.0  0.7494171885079055  0.4544185744383498  0.48668293655853007  1.0000
  C   C29       1.0  0.9842338917367073  0.475476988052975  0.4983875600029178  1.0000
  C   C30       1.0  0.8871045699599946  0.5019750031074466  0.49114570945544495  1.0000
  C   C31       1.0  0.020184751228029516  0.5464859114080339  0.5029150728307384  1.0000
  C   C32       1.0  0.959026874900772  0.6410394053270424  0.49630521729954313  1.0000
  C   C33       1.0  0.863989122438376  0.6640966149401065  0.48550603791934316  1.0000
  C   C34       1.0  0.5659431309437081  0.38768547901305794  0.20891025152852183  1.0000
  C   C35       1.0  0.8290364382293518  0.5977319228617335  0.4840382869077542  1.0000
  C   C36       1.0  0.11407183019269233  0.5267142750242826  0.5123970330049231  1.0000
  C   C37       1.0  0.08596070640820126  0.6900234973627234  0.5082456242603897  1.0000
  C   C38       1.0  0.8521657236299448  0.43215137036827406  0.48674266995653426  1.0000
  C   C39       1.0  0.4702874136660001  0.5094056079472723  0.6815529758273156  1.0000
  C   C40       1.0  0.5196384078883725  0.48484392210684757  0.31318809289518856  1.0000
  C   C41       1.0  0.5171378098605856  0.4733368297115562  0.2388944212448578  1.0000
  C   C42       1.0  0.46356120910618154  0.5483971152840824  0.19823269228058382  1.0000
  C   C43       1.0  0.4595493326912178  0.5382367602494043  0.12913603747184507  1.0000
  C   C44       1.0  0.1154825485239215  0.7664852145329276  0.5165992743823722  1.0000
  C   C45       1.0  0.4706828447849959  0.43091430983816537  0.8739558661014754  1.0000
  C   C46       1.0  0.4634552146178095  0.4342184143891358  0.8023293610600744  1.0000
  C   C47       1.0  0.48014357914695427  0.5820126120871905  0.7853579149783626  1.0000
  C   C48       1.0  0.48331497149773384  0.5800428418632892  0.8559663482261255  1.0000
  C   C49       1.0  0.4803070519650702  0.5041375140639914  0.9022775041966541  1.0000
  O   O1        1.0  0.49996431483614157  0.5047260908386731  0.49499182704063555  1.0000
  O   O2        1.0  0.4504785534654303  0.4458697286673186  0.6586171547497627  1.0000
  O   O3        1.0  0.5758738511160786  0.4166150761361039  0.34615229830195904  1.0000
  O   O4        1.0  0.4903324045980497  0.571640524384506  0.6422353866327767  1.0000
  O   O5        1.0  0.46508412242035047  0.5624045970939519  0.3384614265259032  1.0000
  O   O6        1.0  0.06724869843855423  0.8479778781153372  0.5059173677135788  1.0000
  O   O7        1.0  0.4520026930316449  0.3609618962568532  0.7810373020283662  1.0000
  O   O8        1.0  0.4668006136416808  0.35547799337034997  0.9147144717968696  1.0000
  O   O9        1.0  0.28996920692107864  0.6150962867263203  0.46798945719991986  1.0000
  O   O10       1.0  0.7282188149216751  0.4146547602583298  0.4428316728678181  1.0000
  O   O11       1.0  0.46591380331644683  0.3137160953318485  0.5423996556832975  1.0000
  O   O12       1.0  0.5245498974921929  0.6969533551460358  0.5146515642678222  1.0000
  O   O13       1.0  0.6175616534310535  0.2893484408357736  0.4922640461661344  1.0000
  O   O14       1.0  0.4191909402221441  0.7269733356131951  0.44004633469075566  1.0000
  O   O15       1.0  0.29196886797019067  0.5014058920552174  0.5529560722639457  1.0000
  O   O16       1.0  0.6915766194608822  0.5097924931916539  0.5324196333298018  1.0000
