data_image0
_chemical_formula_structural       Zn4H60C96S2N8O20
_chemical_formula_sum              "Zn4 H60 C96 S2 N8 O20"
_cell_length_a       14.552079426648975
_cell_length_b       14.55207739692903
_cell_length_c       15.908045862953282
_cell_angle_alpha    99.9769236891175
_cell_angle_beta     99.97689729740084
_cell_angle_gamma    118.75321279369174

_space_group_name_H-M_alt    "P 1"
_space_group_IT_number       1

loop_
  _space_group_symop_operation_xyz
  'x, y, z'

loop_
  _atom_site_type_symbol
  _atom_site_label
  _atom_site_symmetry_multiplicity
  _atom_site_fract_x
  _atom_site_fract_y
  _atom_site_fract_z
  _atom_site_occupancy
  Zn  Zn1       1.0  0.1397619966753609  0.10001733410662443  0.9227383101161877  1.0000
  Zn  Zn2       1.0  0.10001684682839598  0.13976126075419162  0.42273830758508524  1.0000
  Zn  Zn3       1.0  0.2691393901486734  0.26255259979109274  0.13891354908435724  1.0000
  Zn  Zn4       1.0  0.2625524240380487  0.26913942136734204  0.6389133439123924  1.0000
  H   H1        1.0  0.8115205831325908  0.8099514872701762  0.657200029567491  1.0000
  H   H2        1.0  0.8099525142321509  0.8115207365859332  0.15719977192194523  1.0000
  H   H3        1.0  0.9121264919351475  0.9232929123316256  0.8158000867532919  1.0000
  H   H4        1.0  0.9232923128904815  0.9121264647613929  0.31580016879379974  1.0000
  H   H5        1.0  0.21036490643207634  0.06913769488623707  0.7608292779427828  1.0000
  H   H6        1.0  0.06913723447924269  0.21036536061470207  0.26082885961471186  1.0000
  H   H7        1.0  0.1226981653658683  0.9653187824009708  0.5999876214846652  1.0000
  H   H8        1.0  0.9653193790213592  0.12269839545820825  0.09998777071278649  1.0000
  H   H9        1.0  0.9610387752315149  0.8250348059590924  0.4790863384767476  1.0000
  H   H10       1.0  0.8250337569464676  0.9610382204531691  0.9790859274005256  1.0000
  H   H11       1.0  0.7480163518560657  0.7972946472277798  0.5120682388525069  1.0000
  H   H12       1.0  0.7972944841056486  0.7480164229724907  0.012067769540138277  1.0000
  H   H13       1.0  0.7789087862189278  0.6151877188338307  0.18947211858601787  1.0000
  H   H14       1.0  0.6151871403751911  0.7789084564768416  0.6894724518181619  1.0000
  H   H15       1.0  0.862956011019115  0.6900402001564602  0.35064289498581047  1.0000
  H   H16       1.0  0.6900405821942426  0.8629563275733929  0.8506434847107585  1.0000
  H   H17       1.0  0.6499771301868761  0.578288779341669  0.05369563712594066  1.0000
  H   H18       1.0  0.5782892512882682  0.649977024508516  0.5536961543089163  1.0000
  H   H19       1.0  0.4381719893727619  0.561021275578284  0.0808255723707987  1.0000
  H   H20       1.0  0.5610211106279053  0.4381716902495541  0.5808246625345816  1.0000
  H   H21       1.0  0.27706167230398643  0.4135642718734687  0.9618196952219975  1.0000
  H   H22       1.0  0.41356515771420976  0.2770612450836651  0.4618192960697058  1.0000
  H   H23       1.0  0.19050526165159448  0.3074651796371057  0.7999884562946349  1.0000
  H   H24       1.0  0.30746519090001817  0.19050498722319995  0.2999885751821623  1.0000
  H   H25       1.0  0.4913196813826204  0.44074995594510824  0.7499162238346316  1.0000
  H   H26       1.0  0.4407500693152854  0.4913199612879282  0.2499164796510414  1.0000
  H   H27       1.0  0.5909494242129013  0.5554134139214214  0.9089256412464835  1.0000
  H   H28       1.0  0.5554133793142952  0.5909496975003564  0.4089258696080407  1.0000
  H   H29       1.0  0.0044337503460312  0.8044536366092389  0.9766054273599637  1.0000
  H   H30       1.0  0.8044539808318304  0.004433958892590798  0.47660554152657386  1.0000
  H   H31       1.0  0.9310415971115447  0.6334572646843243  0.02433218137404945  1.0000
  H   H32       1.0  0.6334575013082642  0.9310419373112142  0.5243327762643872  1.0000
  H   H33       1.0  0.111019178763982  0.8291871554512227  0.2978863605782749  1.0000
  H   H34       1.0  0.829186743428977  0.11101952146336211  0.7978860250927086  1.0000
  H   H35       1.0  0.18164905668287193  0.00023974434458304234  0.250365746623153  1.0000
  H   H36       1.0  0.00023999426803559997  0.18164938401745453  0.7503663187826674  1.0000
  H   H37       1.0  0.913213576168914  0.43304566463240945  0.20308383986365183  1.0000
  H   H38       1.0  0.43304505368479346  0.9132130408601711  0.7030835688531171  1.0000
  H   H39       1.0  0.0059837639239504  0.32791754544441437  0.18050339752020514  1.0000
  H   H40       1.0  0.32791758751130823  0.005983648927482944  0.6805031392249744  1.0000
  H   H41       1.0  0.2684807665452098  0.6009878054339097  0.1327970220455015  1.0000
  H   H42       1.0  0.6009865386750802  0.2684800966318122  0.6327970948712718  1.0000
  H   H43       1.0  0.1762548072484904  0.7066159247988397  0.1536502687234886  1.0000
  H   H44       1.0  0.7066163300572936  0.17625478380687548  0.6536506702170968  1.0000
  H   H45       1.0  0.571668609478202  0.3790866450816709  0.12282137049511023  1.0000
  H   H46       1.0  0.37908664784503526  0.5716692798942873  0.6228213314388639  1.0000
  H   H47       1.0  0.7626915427665891  0.458826488026503  0.10630640990977011  1.0000
  H   H48       1.0  0.4588274057466819  0.7626918229468064  0.6063071044778354  1.0000
  H   H49       1.0  0.6233262461587898  0.2775083252842806  0.8269268795892729  1.0000
  H   H50       1.0  0.27750940903951  0.6233271432583083  0.3269274449918172  1.0000
  H   H51       1.0  0.4346661044169552  0.199190537730452  0.8435313323113434  1.0000
  H   H52       1.0  0.1991902546147486  0.43466590610064065  0.34353085715582676  1.0000
  H   H53       1.0  0.7288109976022524  0.2225201384688448  0.9819269926790711  1.0000
  H   H54       1.0  0.22252023645444297  0.7288118785348419  0.4819274307607557  1.0000
  H   H55       1.0  0.8246393497741663  0.11989682888734177  0.9743902987166564  1.0000
  H   H56       1.0  0.119896808648619  0.8246388897201912  0.4743899158366816  1.0000
  H   H57       1.0  0.09080966119377358  0.38507754808346567  0.9222439817606016  1.0000
  H   H58       1.0  0.3850774691156785  0.09080977306312119  0.4222441127797438  1.0000
  H   H59       1.0  0.9943302080164642  0.4886037006572935  0.9278020639459257  1.0000
  H   H60       1.0  0.4886035022155967  0.9943305676162811  0.4278011150704728  1.0000
  C   C1        1.0  0.958141131909592  0.877885930797625  0.6134365821810873  1.0000
  C   C2        1.0  0.8778864355010398  0.9581418216993216  0.11343634220946087  1.0000
  C   C3        1.0  0.8999020390012333  0.8662878983462792  0.6768329862801679  1.0000
  C   C4        1.0  0.8662885398487533  0.8999019305117957  0.17683200369287996  1.0000
  C   C5        1.0  0.9550749031307647  0.927772428642996  0.7655281295644727  1.0000
  C   C6        1.0  0.9277725994599704  0.9550747471805109  0.26552832083402206  1.0000
  C   C7        1.0  0.12235435873749617  0.009557477017168  0.7353084744102389  1.0000
  C   C8        1.0  0.009557403208020798  0.1223544387644182  0.2353080524747213  1.0000
  C   C9        1.0  0.0727866608665053  0.9502617976495389  0.6455268006288648  1.0000
  C   C10       1.0  0.9502621056420607  0.07278645742372447  0.14552619993586546  1.0000
  C   C11       1.0  0.9058327107067825  0.8233716481067362  0.5180994276841843  1.0000
  C   C12       1.0  0.8233718000505306  0.9058324101519375  0.018098975253622  1.0000
  C   C13       1.0  0.8000880619571757  0.786013927689865  0.4748409167536137  1.0000
  C   C14       1.0  0.7860142366791436  0.8000876559707707  0.9748413491986908  1.0000
  C   C15       1.0  0.7517059691757808  0.73992724063352  0.3786885101571542  1.0000
  C   C16       1.0  0.7399268998722519  0.7517052383526066  0.8786881590598911  1.0000
  C   C17       1.0  0.657706888803638  0.7415766729110588  0.33562456154310644  1.0000
  C   C18       1.0  0.7415762990794476  0.6577067031793006  0.8356249014634114  1.0000
  C   C19       1.0  0.6070221957889358  0.6963330652409427  0.2398449074148132  1.0000
  C   C20       1.0  0.6963321219196814  0.6070216812285029  0.7398444752475726  1.0000
  C   C21       1.0  0.6484582418701166  0.6463067541793425  0.18442195626025182  1.0000
  C   C22       1.0  0.6463066577213538  0.6484582348230746  0.6844223853340026  1.0000
  C   C23       1.0  0.7425175742570289  0.6499018205641395  0.2288560388485692  1.0000
  C   C24       1.0  0.64990141467635  0.742517639325669  0.7288558194474958  1.0000
  C   C25       1.0  0.7916767858709048  0.6939324383813101  0.32193924821510217  1.0000
  C   C26       1.0  0.693931652104382  0.7916770647265994  0.8219390034129503  1.0000
  C   C27       1.0  0.5985551283341124  0.5939841837243662  0.08914713333667378  1.0000
  C   C28       1.0  0.5939841702832992  0.5985549019458248  0.589147541276823  1.0000
  C   C29       1.0  0.4928685032564388  0.555287379393576  0.04422215448876438  1.0000
  C   C30       1.0  0.5552873901442297  0.4928683660823837  0.5442219386449166  1.0000
  C   C31       1.0  0.4422484963207721  0.49549326509250596  0.9496530543087687  1.0000
  C   C32       1.0  0.4954938781010441  0.442249225116669  0.4496528114872973  1.0000
  C   C33       1.0  0.327404183198432  0.4250997967313809  0.9166355118381873  1.0000
  C   C34       1.0  0.4251001262754953  0.32740463956321975  0.41663580079234913  1.0000
  C   C35       1.0  0.2788788409471081  0.36470499442624066  0.8270037219938828  1.0000
  C   C36       1.0  0.3647050131216858  0.27887945742207887  0.32700336077162717  1.0000
  C   C37       1.0  0.4476996924480332  0.43958367659094233  0.7993050466605993  1.0000
  C   C38       1.0  0.4395843112073763  0.44770041614212647  0.2993054471104061  1.0000
  C   C39       1.0  0.5020707809561314  0.5019056936060977  0.8879084156023537  1.0000
  C   C40       1.0  0.5019054724031308  0.5020710878074655  0.3879079841528822  1.0000
  C   C41       1.0  0.1422797199654937  0.014086109205372597  0.080783186806741  1.0000
  C   C42       1.0  0.0140862222264673  0.1422794710419808  0.5807830068686357  1.0000
  C   C43       1.0  0.09882739708938712  0.9127015521316294  0.11029217161498653  1.0000
  C   C44       1.0  0.9127016508326165  0.09882797064759798  0.6102919348929348  1.0000
  C   C45       1.0  0.027479607243129995  0.8092878633653913  0.04681685338805152  1.0000
  C   C46       1.0  0.8092879345365559  0.027479676811289374  0.5468171673219331  1.0000
  C   C47       1.0  0.9866117991335912  0.7141348214772166  0.07302982456679533  1.0000
  C   C48       1.0  0.7141355729133847  0.986612004436964  0.5730304747491174  1.0000
  C   C49       1.0  0.018880000414263503  0.7234928783629614  0.16346789091405614  1.0000
  C   C50       1.0  0.723493005221428  0.018880109088925682  0.6634682350232595  1.0000
  C   C51       1.0  0.0877226967245548  0.8251632895653104  0.2279538649889687  1.0000
  C   C52       1.0  0.8251632675262428  0.08772350553114458  0.7279536614176578  1.0000
  C   C53       1.0  0.1274515882712137  0.9198927833474572  0.20101481817403066  1.0000
  C   C54       1.0  0.91989253457389  0.12745200633134604  0.701015134546175  1.0000
  C   C55       1.0  0.0386303982203131  0.5751966730664294  0.1788755798698887  1.0000
  C   C56       1.0  0.5751965355663131  0.03862960563440512  0.6788757721995538  1.0000
  C   C57       1.0  0.9912407348715461  0.46927589558801946  0.18791444805796684  1.0000
  C   C58       1.0  0.4692755016489016  0.9912406048097678  0.6879142838822361  1.0000
  C   C59       1.0  0.043290677612290586  0.4112887504490316  0.1755703521442697  1.0000
  C   C60       1.0  0.4112877042325351  0.04329006967031302  0.6755698341725633  1.0000
  C   C61       1.0  0.1431737533633779  0.4579785414294408  0.15510771311043922  1.0000
  C   C62       1.0  0.4579773497232792  0.1431722020684134  0.6551070329885177  1.0000
  C   C63       1.0  0.19051119494317698  0.5649413781398921  0.1481461139170364  1.0000
  C   C64       1.0  0.5649407555896387  0.19051063516723593  0.6481456694718233  1.0000
  C   C65       1.0  0.1391469097426707  0.623835746480225  0.15973003735054195  1.0000
  C   C66       1.0  0.6238362964939839  0.13914722671527374  0.6597298960976588  1.0000
  C   C67       1.0  0.1998675051001086  0.39695029451817726  0.14113806573765691  1.0000
  C   C68       1.0  0.3969506557997136  0.199867560334731  0.641137909525483  1.0000
  C   C69       1.0  0.3793495916396523  0.24091790255136666  0.9943804424277686  1.0000
  C   C70       1.0  0.24091760423583247  0.37935012522840594  0.49438069044289523  1.0000
  C   C71       1.0  0.49209939601249886  0.28498350665067557  0.9842828077284977  1.0000
  C   C72       1.0  0.284982935698423  0.4920994824376805  0.48428358374222563  1.0000
  C   C73       1.0  0.584248793182681  0.35769806550209904  0.058517382810151695  1.0000
  C   C74       1.0  0.35769721490611767  0.5842482666655613  0.5585176540467884  1.0000
  C   C75       1.0  0.6896180315359215  0.4022634699511798  0.04968199491413113  1.0000
  C   C76       1.0  0.40226318834100977  0.6896179883244073  0.5496824448795294  1.0000
  C   C77       1.0  0.7018700385554408  0.37360988913026455  0.9659524685491332  1.0000
  C   C78       1.0  0.37360944219954456  0.7018710247885596  0.4659534306222639  1.0000
  C   C79       1.0  0.6114355467217223  0.300103317188679  0.8913610266722928  1.0000
  C   C80       1.0  0.30010236684295677  0.6114352424535172  0.39136170107441615  1.0000
  C   C81       1.0  0.5064662854180426  0.25601282617178367  0.9009423309680287  1.0000
  C   C82       1.0  0.256011797772871  0.5064663964650222  0.40094241826832194  1.0000
  C   C83       1.0  0.8559268847241697  0.3608102510702978  0.9540010051257538  1.0000
  C   C84       1.0  0.36081066291983876  0.8559277659327903  0.45400086219518687  1.0000
  C   C85       1.0  0.8075780230761395  0.2575837236481819  0.9681891944532666  1.0000
  C   C86       1.0  0.2575835815360534  0.8075781265020937  0.4681888512014112  1.0000
  C   C87       1.0  0.86162362389188  0.200826541464444  0.9643805848359788  1.0000
  C   C88       1.0  0.2008257970591956  0.8616229820990141  0.46438067835176616  1.0000
  C   C89       1.0  0.9633952452053904  0.24542258644676457  0.9473233026278932  1.0000
  C   C90       1.0  0.24542198412211746  0.9633952360168083  0.4473235301577816  1.0000
  C   C91       1.0  0.0111743434325362  0.34975521532413717  0.9346414597218882  1.0000
  C   C92       1.0  0.34975497852042275  0.011174557624684783  0.43464157324527253  1.0000
  C   C93       1.0  0.9578643301997616  0.40741931619506755  0.937422351660807  1.0000
  C   C94       1.0  0.407418971617318  0.9578643942937292  0.43742197017074597  1.0000
  C   C95       1.0  0.0156388951381743  0.179322021485568  0.9400181730496158  1.0000
  C   C96       1.0  0.17932200728100156  0.015638917774587927  0.44001832581775346  1.0000
  S   S1        1.0  0.5095273006007446  0.7704716556492529  0.3002223037971703  1.0000
  S   S2        1.0  0.7704717535004588  0.509528117805516  0.800222842686992  1.0000
  N   N1        1.0  0.0649148758909348  0.9995256489060865  0.7948224402408145  1.0000
  N   N2        1.0  0.9995255829598833  0.06491505797676222  0.2948224587846653  1.0000
  N   N3        1.0  0.6084112603904616  0.785588890138982  0.37758746602508353  1.0000
  N   N4        1.0  0.7855884819630745  0.6084115983316495  0.8775878651786256  1.0000
  N   N5        1.0  0.5220591138938531  0.7095095984235656  0.21205754922267056  1.0000
  N   N6        1.0  0.7095098610092663  0.5220591658198972  0.7120580073451563  1.0000
  N   N7        1.0  0.3373447030145441  0.37130847039598797  0.7686046520583288  1.0000
  N   N8        1.0  0.37130888020988095  0.33734482532930343  0.2686042846812597  1.0000
  O   O1        1.0  0.1189618557603254  0.9997227091533603  0.9968012700629457  1.0000
  O   O2        1.0  0.9997216136752627  0.118961788545505  0.49680109647081133  1.0000
  O   O3        1.0  0.1986140102897096  0.10622672537760283  0.1416175356657945  1.0000
  O   O4        1.0  0.1062265887289513  0.19861404818222894  0.6416173545886039  1.0000
  O   O5        1.0  0.981953776270295  0.6279294535871005  0.19004885583191114  1.0000
  O   O6        1.0  0.6279296491739642  0.9819532839424312  0.6900493233323388  1.0000
  O   O7        1.0  0.1514519788124176  0.29654135754408634  0.1448124920833536  1.0000
  O   O8        1.0  0.29654113784378916  0.1514513030415117  0.6448121381154903  1.0000
  O   O9        1.0  0.2924913495162897  0.4425373603990437  0.12784695457845877  1.0000
  O   O10       1.0  0.44253731480030467  0.2924909424565528  0.6278454126014452  1.0000
  O   O11       1.0  0.2982839911299564  0.16951642044829643  0.9266824997865653  1.0000
  O   O12       1.0  0.16951638133934918  0.2982843261525545  0.42668275551698537  1.0000
  O   O13       1.0  0.374274511807215  0.27982854688661973  0.0703516636409773  1.0000
  O   O14       1.0  0.27982844985885436  0.3742744274625523  0.570351469872513  1.0000
  O   O15       1.0  0.8077165124078433  0.4225403270958665  0.9571767979568548  1.0000
  O   O16       1.0  0.42254037300762076  0.8077167284074707  0.4571770986185867  1.0000
  O   O17       1.0  0.9623982346431603  0.07966870979449672  0.9372491900254118  1.0000
  O   O18       1.0  0.0796681603405105  0.9623982224500268  0.4372494577934418  1.0000
  O   O19       1.0  0.1153217622834148  0.22615510329661256  0.9348343735716114  1.0000
  O   O20       1.0  0.22615496225295567  0.11532251112564751  0.434834631715745  1.0000
