data_image0
_chemical_formula_structural       Cd2H28C36N24
_chemical_formula_sum              "Cd2 H28 C36 N24"
_cell_length_a       9.269417644488955
_cell_length_b       9.56038198714135
_cell_length_c       10.739778040001841
_cell_angle_alpha    90.00006712696326
_cell_angle_beta     89.99999004649895
_cell_angle_gamma    101.03786668531255

_space_group_name_H-M_alt    "P 1"
_space_group_IT_number       1

loop_
  _space_group_symop_operation_xyz
  'x, y, z'

loop_
  _atom_site_type_symbol
  _atom_site_label
  _atom_site_symmetry_multiplicity
  _atom_site_fract_x
  _atom_site_fract_y
  _atom_site_fract_z
  _atom_site_occupancy
  Cd  Cd1       1.0  0.0  0.0  0.0  1.0000
  Cd  Cd2       1.0  0.5000005622360036  0.500000367871067  0.500000314811125  1.0000
  H   H1        1.0  0.44178710629556395  0.7093964273341766  0.0151356593038017  1.0000
  H   H2        1.0  0.0582133928730642  0.7906032835924961  0.5151348904959365  1.0000
  H   H3        1.0  0.5582138064099168  0.2906032427103398  0.9848640391999626  1.0000
  H   H4        1.0  0.9417864412754254  0.20939638776124528  0.4848638768899748  1.0000
  H   H5        1.0  0.05255003699931389  0.7140935654090441  0.10247641582513721  1.0000
  H   H6        1.0  0.44744938885841634  0.785906262658237  0.602476515027007  1.0000
  H   H7        1.0  0.9474497971492042  0.28590610594531546  0.8975232826787121  1.0000
  H   H8        1.0  0.5525504452901018  0.21409340869611526  0.39752318347684934  1.0000
  H   H9        1.0  0.19353934410678159  0.6238343133368714  0.1346688298205478  1.0000
  H   H10       1.0  0.3064600836845557  0.8761655574236544  0.6346690443167234  1.0000
  H   H11       1.0  0.806460701808234  0.37616642371447984  0.8653308686838416  1.0000
  H   H12       1.0  0.6935395386974647  0.12383304823370618  0.36533065418659316  1.0000
  H   H13       1.0  0.657720267449349  0.8657553881519392  0.8469192091803779  1.0000
  H   H14       1.0  0.8422801197405151  0.6342444480595262  0.3469189833078872  1.0000
  H   H15       1.0  0.3422795666991688  0.1342442832024133  0.15308048932347873  1.0000
  H   H16       1.0  0.1577197144080316  0.36575522329544435  0.6530816463139005  1.0000
  H   H17       1.0  0.4794989353466547  0.19150625225104537  0.6541960794894524  1.0000
  H   H18       1.0  0.02050142438447718  0.30849325441568703  0.15419608361310821  1.0000
  H   H19       1.0  0.520501110568354  0.8084944848003061  0.34580361901494433  1.0000
  H   H20       1.0  0.9794984097640407  0.6915064169386653  0.8458036148907481  1.0000
  H   H21       1.0  0.6863789277143724  0.070414209816164  0.6977658025704728  1.0000
  H   H22       1.0  0.8136215144931993  0.4295861056065603  0.19776588925594044  1.0000
  H   H23       1.0  0.3136211182006434  0.9295865272351874  0.3022338959339166  1.0000
  H   H24       1.0  0.18637960997880043  0.5704146301355665  0.8022347403663093  1.0000
  H   H25       1.0  0.23899402145832477  0.11937108019436238  0.7628873191463726  1.0000
  H   H26       1.0  0.2610063448012454  0.38062857061733263  0.2628873625990736  1.0000
  H   H27       1.0  0.7610066794806585  0.8806275241531623  0.2371123793568587  1.0000
  H   H28       1.0  0.7389934893472726  0.6193711007370198  0.7371123359047758  1.0000
  C   C1        1.0  0.24176465696501032  0.79070728479374  0.009440999376309402  1.0000
  C   C2        1.0  0.258234975071133  0.7092934855881126  0.5094410469052236  1.0000
  C   C3        1.0  0.7582351771835362  0.2092923865612306  0.9905596302454855  1.0000
  C   C4        1.0  0.7417648590774135  0.2907061857668581  0.4905595827165712  1.0000
  C   C5        1.0  0.3151091315122869  0.9557510737680415  0.8701283275266009  1.0000
  C   C6        1.0  0.18489052218814814  0.5442501749518984  0.37012710013652855  1.0000
  C   C7        1.0  0.6848922047262677  0.0442507276723134  0.12987416433206533  1.0000
  C   C8        1.0  0.8151095237268393  0.4557505620988351  0.6298716672499298  1.0000
  C   C9        1.0  0.5671190658118803  0.9205509864818566  0.8288397275193304  1.0000
  C   C10       1.0  0.9328804535016175  0.5794498927602376  0.3288403620223832  1.0000
  C   C11       1.0  0.4328796897796535  0.0794486861817205  0.1711590398666658  1.0000
  C   C12       1.0  0.06711938064692902  0.4205497785947331  0.6711602675994115  1.0000
  C   C13       1.0  0.4330167115661396  0.8828789083353569  0.8897497290198972  1.0000
  C   C14       1.0  0.066982943312901  0.6171223664075355  0.3897504575600692  1.0000
  C   C15       1.0  0.5669844129058603  0.11712182740676984  0.11025090060235243  1.0000
  C   C16       1.0  0.9330171026021431  0.382878370644427  0.6102501720622655  1.0000
  C   C17       1.0  0.4653749519131267  0.10504258772669321  0.721618285424789  1.0000
  C   C18       1.0  0.034626490424621216  0.39495700704473086  0.22161837768566536  1.0000
  C   C19       1.0  0.5346248822353914  0.8949570836276591  0.2783814130790604  1.0000
  C   C20       1.0  0.9653733437239252  0.6050426643102398  0.7783822519361224  1.0000
  C   C21       1.0  0.5819582888771891  0.034675959346905906  0.7450023359185066  1.0000
  C   C22       1.0  0.9180419444010681  0.46532335302271116  0.24500151317370472  1.0000
  C   C23       1.0  0.418041545271329  0.9653237120074463  0.2549973625853498  1.0000
  C   C24       1.0  0.08195767798095231  0.5346752526346493  0.754998185329612  1.0000
  C   C25       1.0  0.3300069700517412  0.0658114897239486  0.7825673931598163  1.0000
  C   C26       1.0  0.16999339738989513  0.43418818718726027  0.28256750612698067  1.0000
  C   C27       1.0  0.669992864096777  0.9341881816304038  0.2174323053440403  1.0000
  C   C28       1.0  0.8300064367586231  0.5658114841670994  0.7174321923768759  1.0000
  C   C29       1.0  0.9153419679320578  0.9483374092500441  0.6874578369230024  1.0000
  C   C30       1.0  0.5846575428894523  0.5516632824925907  0.1874575633774143  1.0000
  C   C31       1.0  0.08465657589297847  0.0516611977165411  0.31254093046244696  1.0000
  C   C32       1.0  0.41534250302556325  0.4483374545587607  0.8125421351269752  1.0000
  C   C33       1.0  0.7597687064503872  0.8078320282089138  0.5520378443318563  1.0000
  C   C34       1.0  0.7402307962372775  0.6921684839421545  0.052038625297235803  1.0000
  C   C35       1.0  0.24023004914113943  0.19216764445466336  0.4479609230541329  1.0000
  C   C36       1.0  0.2597692496777668  0.3078322531098152  0.947962004325099  1.0000
  N   N1        1.0  0.1981615678088602  0.8975652041033018  0.9473729190523629  1.0000
  N   N2        1.0  0.30183787876472934  0.6024350813610868  0.4473726660251175  1.0000
  N   N3        1.0  0.8018393448966421  0.10243446594183332  0.0526277105693538  1.0000
  N   N4        1.0  0.6981619553837886  0.39756458999326577  0.552627032478732  1.0000
  N   N5        1.0  0.38148302503267917  0.7773886363646553  0.9765810812727409  1.0000
  N   N6        1.0  0.11851642329528289  0.7226116878353253  0.47658098109724284  1.0000
  N   N7        1.0  0.6185168091158386  0.222611034989697  0.0234186172311084  1.0000
  N   N8        1.0  0.8814834108532352  0.27738798351903426  0.5234187174066066  1.0000
  N   N9        1.0  0.15970483191336626  0.7068087416758927  0.0924910952275155  1.0000
  N   N10       1.0  0.34029459334460194  0.7931910731489963  0.5924912180568143  1.0000
  N   N11       1.0  0.8402939236781889  0.2931909309882954  0.9075086032764191  1.0000
  N   N12       1.0  0.6597052408039161  0.20680859820535602  0.407508480447042  1.0000
  N   N13       1.0  0.9534942658547934  0.009142874479067599  0.7807460502777702  1.0000
  N   N14       1.0  0.5465048910134555  0.4908564866039173  0.28074624086059435  1.0000
  N   N15       1.0  0.0465057800602509  0.9908578625729021  0.2192545793445646  1.0000
  N   N16       1.0  0.453494943135091  0.5091431847510535  0.7192543887611933  1.0000
  N   N17       1.0  0.8850139136654959  0.8879590845918698  0.5794956137049284  1.0000
  N   N18       1.0  0.6149853789048975  0.6120403982762993  0.0794963297633657  1.0000
  N   N19       1.0  0.11498613224954819  0.11204165246009275  0.4205050159174065  1.0000
  N   N20       1.0  0.3850133766866648  0.3879592743878959  0.9205033687405689  1.0000
  N   N21       1.0  0.6508587733818415  0.7335457444799544  0.516702819016949  1.0000
  N   N22       1.0  0.8491418057404231  0.7664547195004514  0.016703661234871  1.0000
  N   N23       1.0  0.3491423510901299  0.26645499126155414  0.4832968794873623  1.0000
  N   N24       1.0  0.15085931873155536  0.23354601624105698  0.9832960372694403  1.0000
