data_image0
_chemical_formula_structural       Al6H80C99O36
_chemical_formula_sum              "Al6 H80 C99 O36"
_cell_length_a       12.801343155637216
_cell_length_b       12.490813526664835
_cell_length_c       27.720894953172152
_cell_angle_alpha    88.52430522528509
_cell_angle_beta     90.16288025693456
_cell_angle_gamma    60.802947346944414

_space_group_name_H-M_alt    "P 1"
_space_group_IT_number       1

loop_
  _space_group_symop_operation_xyz
  'x, y, z'

loop_
  _atom_site_type_symbol
  _atom_site_label
  _atom_site_symmetry_multiplicity
  _atom_site_fract_x
  _atom_site_fract_y
  _atom_site_fract_z
  _atom_site_occupancy
  Al  Al1       1.0  0.5897605273462788  0.8188561307348295  0.5046016304213481  1.0000
  Al  Al2       1.0  0.3416200611703247  0.06929472708313972  0.49809397784893156  1.0000
  Al  Al3       1.0  0.5667027799035437  0.08646415587215733  0.5008859461490971  1.0000
  Al  Al4       1.0  0.0976648893633083  0.8352781932818945  0.015973741882824296  1.0000
  Al  Al5       1.0  0.08543637267317189  0.5847375932585878  0.0189049012925793  1.0000
  Al  Al6       1.0  0.3259870546920566  0.5660884059002103  0.015423377301168297  1.0000
  H   H1        1.0  0.49180568465755675  0.32501590206664593  0.21868113897123462  1.0000
  H   H2        1.0  0.22727447790817484  0.9443749117670565  0.1262672233472983  1.0000
  H   H3        1.0  0.4438552655894414  0.5909530698114835  0.2417001118060043  1.0000
  H   H4        1.0  0.43424055655626137  0.5559896502856322  0.15453998988935072  1.0000
  H   H5        1.0  0.5112695891984985  0.20214584803428448  0.7213810291074267  1.0000
  H   H6        1.0  0.8452165285707096  0.0024816016080891016  0.7203251066583078  1.0000
  H   H7        1.0  0.8722507845841744  0.9747049568421674  0.8100062412192629  1.0000
  H   H8        1.0  0.027539954065673618  0.4485636680482018  0.7060440639788014  1.0000
  H   H9        1.0  0.06385194584292016  0.5662477848210801  0.6957552241639391  1.0000
  H   H10       1.0  0.11922000824807814  0.44029152643076946  0.6562677912193919  1.0000
  H   H11       1.0  0.5171746573199556  0.46809130924256  0.7897198690055235  1.0000
  H   H12       1.0  0.1409085502412211  0.4021124234762113  0.29389615734928043  1.0000
  H   H13       1.0  0.43757871516218233  0.46079601087019745  0.8421602501844704  1.0000
  H   H14       1.0  0.5024409789956792  0.5589958335517411  0.8413429283599569  1.0000
  H   H15       1.0  0.3389204215302683  0.9902270641413298  0.8579160069689492  1.0000
  H   H16       1.0  0.46031802466409033  0.9799941625693267  0.8238844216949985  1.0000
  H   H17       1.0  0.3130637148411566  0.08989725328531512  0.8062471809458387  1.0000
  H   H18       1.0  0.5080339412077067  0.9059425173072525  0.6762784419948105  1.0000
  H   H19       1.0  0.5408590881878156  0.9675561062290616  0.72846770499104  1.0000
  H   H20       1.0  0.4636373299230597  0.06536948286095173  0.6769724832697506  1.0000
  H   H21       1.0  0.03748637690140555  0.442712518672053  0.3638079384936717  1.0000
  H   H22       1.0  0.10569206399541295  0.31521817736645374  0.4055666352203033  1.0000
  H   H23       1.0  0.5282569855061539  0.2369743019766873  0.3785495954691598  1.0000
  H   H24       1.0  0.10718276330823069  0.4517350440473039  0.4179787894941001  1.0000
  H   H25       1.0  0.5943679695069478  0.29454199856905217  0.1524389805933879  1.0000
  H   H26       1.0  0.549641584324256  0.26047672454920706  0.0964894696780405  1.0000
  H   H27       1.0  0.5037851438127277  0.4135852533564944  0.1097349338140745  1.0000
  H   H28       1.0  0.2261109791365215  0.1417386491760624  0.2537140851395776  1.0000
  H   H29       1.0  0.14377138120105573  0.16975494635548222  0.1974422723075691  1.0000
  H   H30       1.0  0.0654656552159238  0.21879622443397306  0.252980886208519  1.0000
  H   H31       1.0  0.1855287749775485  0.2641108880384452  0.0634067110864223  1.0000
  H   H32       1.0  0.21204755494998304  0.1445504353123468  0.1073675054162777  1.0000
  H   H33       1.0  0.06276810810040699  0.24987517357219255  0.0864927861361053  1.0000
  H   H34       1.0  0.7333280918187696  0.07581885248513491  0.37187944510814214  1.0000
  H   H35       1.0  0.6272853831701964  0.32012194955522233  0.3449704174467811  1.0000
  H   H36       1.0  0.5211845462573947  0.4521998563183942  0.3103248077165617  1.0000
  H   H37       1.0  0.660915958227733  0.34415966726994907  0.2843587099068685  1.0000
  H   H38       1.0  0.03806210052017182  0.3525783552689462  0.8135360634639284  1.0000
  H   H39       1.0  0.9461383633485599  0.5069301870119743  0.8328134450323788  1.0000
  H   H40       1.0  0.0875884432756067  0.4100076804357614  0.8624041018212267  1.0000
  H   H41       1.0  0.6344907780561614  0.009355927545250602  0.1251569875163909  1.0000
  H   H42       1.0  0.7541738168504679  0.9942411968551643  0.087969199944915  1.0000
  H   H43       1.0  0.7087517850705042  0.8812451404507872  0.08744717812620449  1.0000
  H   H44       1.0  0.8789715857807607  0.028097306146541712  0.2538652797459306  1.0000
  H   H45       1.0  0.6874069341471767  0.9626894191396362  0.2083669580227081  1.0000
  H   H46       1.0  0.7213781002566791  0.11925977047118864  0.2554385499498011  1.0000
  H   H47       1.0  0.8109507216487942  0.13220321350242875  0.3014406275310151  1.0000
  H   H48       1.0  0.19607944642059047  0.5940296380524047  0.19786994607526512  1.0000
  H   H49       1.0  0.13987114806936765  0.5503477080439512  0.14779302738222097  1.0000
  H   H50       1.0  0.17735185003756726  0.6683512344685385  0.1406373858245757  1.0000
  H   H51       1.0  0.6598459005899145  0.6139927081982535  0.35895242609875316  1.0000
  H   H52       1.0  0.6377668136108239  0.7327470984224577  0.3983977532694496  1.0000
  H   H53       1.0  0.5863155751587498  0.6322709661334756  0.4151127391781984  1.0000
  H   H54       1.0  0.5017271164232467  0.1702138079668317  0.8535583431603158  1.0000
  H   H55       1.0  0.59202496332896  0.11664554212537581  0.8013208104388667  1.0000
  H   H56       1.0  0.04347908177275878  0.6922079211294375  0.2541920191875278  1.0000
  H   H57       1.0  0.5661387191072577  0.2547419548454002  0.827905232116862  1.0000
  H   H58       1.0  0.6493164428826644  0.7119447196239649  0.2924461741119515  1.0000
  H   H59       1.0  0.6234101085224565  0.5879518768742571  0.2814420492533074  1.0000
  H   H60       1.0  0.5641708592905064  0.7167925982093382  0.2412075361248327  1.0000
  H   H61       1.0  0.06502798941541962  0.9314016247423782  0.319036617643512  1.0000
  H   H62       1.0  0.09004991047714131  0.013920520685850608  0.2718689614153718  1.0000
  H   H63       1.0  0.12754831587328397  0.8599786906134812  0.2635391144289017  1.0000
  H   H64       1.0  0.06574761468400679  0.12600391008373896  0.3397986405489135  1.0000
  H   H65       1.0  0.17056761010707794  0.13280727227125066  0.38132708780963753  1.0000
  H   H66       1.0  0.034141880797534406  0.1434189542495616  0.40303086438898816  1.0000
  H   H67       1.0  0.8709599124815809  0.6663254306644719  0.3035372988311451  1.0000
  H   H68       1.0  0.5894140016266434  0.7586993433400625  0.8294814994305995  1.0000
  H   H69       1.0  0.6908245949251891  0.7625228625853855  0.8738993389145976  1.0000
  H   H70       1.0  0.690139799838761  0.6223334018744923  0.8633369101594112  1.0000
  H   H71       1.0  0.7290363271292224  0.7132091395361756  0.671925551345325  1.0000
  H   H72       1.0  0.8097104504378764  0.5931478087974825  0.7157633321121537  1.0000
  H   H73       1.0  0.6573907420194659  0.6972194276837416  0.7246754021229194  1.0000
  H   H74       1.0  0.3309927226467905  0.5668529640514637  0.7170790568089345  1.0000
  H   H75       1.0  0.24850485763548144  0.6892378750945698  0.6743381645182112  1.0000
  H   H76       1.0  0.40558572325634396  0.6049437474808955  0.6707808986248763  1.0000
  H   H77       1.0  0.811653955399443  0.7017584660530292  0.3900743999485528  1.0000
  H   H78       1.0  0.24689844647736672  0.9802308687111609  0.2133449665934535  1.0000
  H   H79       1.0  0.7254039950970892  0.6195358407851473  0.5333366031529465  1.0000
  H   H80       1.0  0.013829186087399097  0.03502412422645312  0.9835980968133455  1.0000
  C   C1        1.0  0.37604968733200667  0.8945285341652324  0.5684884382473996  1.0000
  C   C2        1.0  0.8300118031594295  0.9345799932832295  0.7397729953182903  1.0000
  C   C3        1.0  0.8436792323284404  0.9202084425113958  0.7893566847314375  1.0000
  C   C4        1.0  0.3817028727937171  0.21569115584608775  0.5678734017480451  1.0000
  C   C5        1.0  0.7867756131110754  0.7600698824219094  0.7879142609224132  1.0000
  C   C6        1.0  0.7755945890242514  0.7709383969189789  0.7373592867834873  1.0000
  C   C7        1.0  0.7971524692932662  0.859863294276899  0.7134079400157988  1.0000
  C   C8        1.0  0.8239613853427632  0.8316702254282264  0.8143693299846007  1.0000
  C   C9        1.0  0.8517848733081479  0.8106235576480216  0.8642150433095637  1.0000
  C   C10       1.0  0.7797877425420837  0.8784699148344618  0.6628251478061244  1.0000
  C   C11       1.0  0.8838294979550055  0.7932411224721679  0.9065221669177532  1.0000
  C   C12       1.0  0.415604920662645  0.268668118400548  0.7870411522878129  1.0000
  C   C13       1.0  0.3413040546740831  0.8735295616809965  0.6155475417978097  1.0000
  C   C14       1.0  0.341692233002995  0.7308332861163225  0.7289256626393836  1.0000
  C   C15       1.0  0.35005816441847776  0.7140257502178502  0.7790230138767315  1.0000
  C   C16       1.0  0.710366110532689  0.91392764504014  0.5713107734967053  1.0000
  C   C17       1.0  0.35974735815820236  0.9047070213483438  0.7896062564522738  1.0000
  C   C18       1.0  0.355675522619066  0.9189653260066638  0.7393870146494521  1.0000
  C   C19       1.0  0.3434609408037018  0.8357337058852823  0.709346280247857  1.0000
  C   C20       1.0  0.35584997543424646  0.801108725600976  0.8093002784421373  1.0000
  C   C21       1.0  0.351750385513327  0.7841184085914109  0.8596647464051586  1.0000
  C   C22       1.0  0.3388708028780414  0.8561853000711327  0.6588981009436522  1.0000
  C   C23       1.0  0.42456626848655077  0.26050296443091997  0.7372714752673346  1.0000
  C   C24       1.0  0.34279706862875503  0.767217509797199  0.9026151016073243  1.0000
  C   C25       1.0  0.34276262439270516  0.291973123478016  0.3860827531799202  1.0000
  C   C26       1.0  0.22955878503078953  0.34703453666951856  0.36237960629853916  1.0000
  C   C27       1.0  0.22729606542399952  0.3634216055510606  0.3122822378936405  1.0000
  C   C28       1.0  0.39009692992033257  0.8857335584167958  0.43266999287014585  1.0000
  C   C29       1.0  0.32915348192644706  0.3323401423958429  0.2835109416427173  1.0000
  C   C30       1.0  0.4361150830585316  0.29971966828757973  0.3102884064069755  1.0000
  C   C31       1.0  0.442160634511758  0.27538294021709936  0.3597647880767881  1.0000
  C   C32       1.0  0.4143302339437795  0.32984191453331857  0.200752172981133  1.0000
  C   C33       1.0  0.4124360681995115  0.3333236392717893  0.1505996116732575  1.0000
  C   C34       1.0  0.32306550688610247  0.32319105090060424  0.7064539535984268  1.0000
  C   C35       1.0  0.22546532941860423  0.32724976564829694  0.1534470142707391  1.0000
  C   C36       1.0  0.2295794971038064  0.3259269190989259  0.2045594909945834  1.0000
  C   C37       1.0  0.32242150465015135  0.33262982249133455  0.229867758490407  1.0000
  C   C38       1.0  0.30975052959017557  0.3445270413578144  0.1256165353774392  1.0000
  C   C39       1.0  0.7621451767618409  0.8931412893687424  0.3852435127164497  1.0000
  C   C40       1.0  0.36899759960802914  0.23577320157951936  0.43559964567001697  1.0000
  C   C41       1.0  0.7618839695617865  0.9867773352332206  0.3561864445480794  1.0000
  C   C42       1.0  0.7966625701133125  0.9682313737658534  0.3080241026020687  1.0000
  C   C43       1.0  0.8303111908092831  0.852711730574164  0.2884883014319612  1.0000
  C   C44       1.0  0.8394651146752353  0.7565118721182957  0.31872709693047346  1.0000
  C   C45       1.0  0.30124379672732  0.3451185100799209  0.8069365285440852  1.0000
  C   C46       1.0  0.8063238119832832  0.7756954689745473  0.3667242833233574  1.0000
  C   C47       1.0  0.7787968223254681  0.8946547173845121  0.1995789604495073  1.0000
  C   C48       1.0  0.8104680089248149  0.8735198348011937  0.1510350109149385  1.0000
  C   C49       1.0  0.0128714522255536  0.7196379689405888  0.1774301832514382  1.0000
  C   C50       1.0  0.9779157526795927  0.742052107840948  0.22533094083246397  1.0000
  C   C51       1.0  0.861627258120201  0.8298868654451398  0.23699596195364592  1.0000
  C   C52       1.0  0.70695323635924  0.9185547419303508  0.4336140667058856  1.0000
  C   C53       1.0  0.9283450417411107  0.7853665991304413  0.1405176222290123  1.0000
  C   C54       1.0  0.37545267042281705  0.8470813769736338  0.383780209684879  1.0000
  C   C55       1.0  0.47849401840750266  0.762097987535114  0.3588094234439936  1.0000
  C   C56       1.0  0.2911562073974708  0.3673180002419087  0.8568490342879471  1.0000
  C   C57       1.0  0.46916224471315354  0.7528616528699744  0.3085260941199977  1.0000
  C   C58       1.0  0.35545446085564  0.8087509635290145  0.2855278675638218  1.0000
  C   C59       1.0  0.2502272398577219  0.8793242978811407  0.311614045699919  1.0000
  C   C60       1.0  0.2626093111776697  0.9024028519021956  0.3599602357477991  1.0000
  C   C61       1.0  0.2869751554106729  0.8873112065104892  0.2004146862116869  1.0000
  C   C62       1.0  0.27791132663243456  0.8681074951768651  0.1517985628306491  1.0000
  C   C63       1.0  0.3946692602106694  0.6488104130882563  0.16754910116357993  1.0000
  C   C64       1.0  0.35220272618803966  0.2713476661022512  0.6141957364751036  1.0000
  C   C65       1.0  0.3994732579365702  0.6687919105427796  0.2162953593181385  1.0000
  C   C66       1.0  0.34668492731778855  0.7884079220802392  0.23356378630133182  1.0000
  C   C67       1.0  0.33725962446276725  0.3003646422512602  0.6563694217321938  1.0000
  C   C68       1.0  0.3325623200188942  0.7482947548602399  0.1350069487206866  1.0000
  C   C69       1.0  0.9442872784626671  0.7646126250657804  0.9526390333144832  1.0000
  C   C70       1.0  0.26285781823587934  0.445301930189551  0.9461302999108697  1.0000
  C   C71       1.0  0.3038459659424719  0.7462184397597297  0.9487046993038676  1.0000
  C   C72       1.0  0.9730529814586499  0.7617280828113878  0.08976828222036198  1.0000
  C   C73       1.0  0.27589326937980724  0.4080299965844888  0.0776815160764031  1.0000
  C   C74       1.0  0.3104011934228056  0.7267037929718613  0.0846299817056533  1.0000
  C   C75       1.0  0.20870436342943327  0.398420308369957  0.7255390436886061  1.0000
  C   C76       1.0  0.19897598201557531  0.4073163702376804  0.7759364124142962  1.0000
  C   C77       1.0  0.09928073744148956  0.4665500220456948  0.6939384947575107  1.0000
  C   C78       1.0  0.2820541232591794  0.39252344319114474  0.8994567543277868  1.0000
  C   C79       1.0  0.4581126246696668  0.5204787931865555  0.8192165454484338  1.0000
  C   C80       1.0  0.36774844181529454  0.9963730127413584  0.8212055168304673  1.0000
  C   C81       1.0  0.47549456205130974  0.9863562565600434  0.6990886625285812  1.0000
  C   C82       1.0  0.11376621506234136  0.3911598392421283  0.3886967717250798  1.0000
  C   C83       1.0  0.5206580443243568  0.32536679002511454  0.1259394839493524  1.0000
  C   C84       1.0  0.14449447798959622  0.20590972572517793  0.2331092124075624  1.0000
  C   C85       1.0  0.15053112111785788  0.23985626257338322  0.0953601444580983  1.0000
  C   C86       1.0  0.5892266131952795  0.3546900198382162  0.3085926860571888  1.0000
  C   C87       1.0  0.03807465450806553  0.4338987776026357  0.8279360964676812  1.0000
  C   C88       1.0  0.7218348065236456  0.9436539028765198  0.11090865579463129  1.0000
  C   C89       1.0  0.7590263205378561  0.8958107146524841  0.6195251859798958  1.0000
  C   C90       1.0  0.8022836225138407  0.06735848776173733  0.2780370497202966  1.0000
  C   C91       1.0  0.1385090856538796  0.6282038310963715  0.1655187251972023  1.0000
  C   C92       1.0  0.5968023833143903  0.6811134130024856  0.3837061660470198  1.0000
  C   C93       1.0  0.5243580818830581  0.1985579047592411  0.8191253614725937  1.0000
  C   C94       1.0  0.5820326990130696  0.6887028417665207  0.2794183875965359  1.0000
  C   C95       1.0  0.12703763351792208  0.9233575341668758  0.2903223693672031  1.0000
  C   C96       1.0  0.1052028610422369  0.10081328288816853  0.3765265673609264  1.0000
  C   C97       1.0  0.6789087710436021  0.7075838345554858  0.8463893729899894  1.0000
  C   C98       1.0  0.7407823018213194  0.6898847181148896  0.710645482830131  1.0000
  C   C99       1.0  0.33132771285514195  0.6423835791106642  0.6963162782663588  1.0000
  O   O1        1.0  0.6880304310170473  0.8317897430248069  0.5569322394812986  1.0000
  O   O2        1.0  0.3448416913669662  0.46665067211822725  0.9621564572291774  1.0000
  O   O3        1.0  0.3773518915099602  0.6491275042926362  0.973461373405982  1.0000
  O   O4        1.0  0.4835114289381935  0.8238540689349847  0.5578303904372319  1.0000
  O   O5        1.0  0.22525423525301858  0.8137575625182905  0.0611493617107257  1.0000
  O   O6        1.0  0.0037415340819748942  0.8351992749565088  0.0709951427037225  1.0000
  O   O7        1.0  0.9832999524667088  0.6649530605059796  0.0699943399589742  1.0000
  O   O8        1.0  0.1665476058343317  0.45291779977116425  0.0627034140476894  1.0000
  O   O9        1.0  0.35149476122584405  0.42911054334050663  0.0549972203443332  1.0000
  O   O10       1.0  0.3757737492377089  0.6170540642187137  0.0688837125760173  1.0000
  O   O11       1.0  0.16979317856495876  0.6611047650148906  0.0164325804596288  1.0000
  O   O12       1.0  0.29641986826958094  0.20361721103109431  0.4542338619808106  1.0000
  O   O13       1.0  0.2974722999576117  0.9863023506839996  0.5425586778568814  1.0000
  O   O14       1.0  0.3100650459761454  0.1838580817649459  0.549135842780224  1.0000
  O   O15       1.0  0.4813339740776428  0.19726324202536466  0.550225265928681  1.0000
  O   O16       1.0  0.6886408127757165  0.013168459680528604  0.5477839625061165  1.0000
  O   O17       1.0  0.6885610025083299  0.8371062974200499  0.4535929943546861  1.0000
  O   O18       1.0  0.4813692108492376  0.8138462634784748  0.4579114029969347  1.0000
  O   O19       1.0  0.3138472653920844  0.9948681421859078  0.4458874415989484  1.0000
  O   O20       1.0  0.3454109391134423  0.6150934724315678  0.7997428313420158  1.0000
  O   O21       1.0  0.36020397028195117  0.018010096711357407  0.7186538222209649  1.0000
  O   O22       1.0  0.1359566112009816  0.3244060317986667  0.2282892797268445  1.0000
  O   O23       1.0  0.46880213437616186  0.21210230093930704  0.4554761095597257  1.0000
  O   O24       1.0  0.1306585061789463  0.320688395184476  0.1346799919053936  1.0000
  O   O25       1.0  0.5381735584427787  0.28579884149912266  0.2880623642342357  1.0000
  O   O26       1.0  0.08730317354779521  0.48351756177698507  0.7926567481626208  1.0000
  O   O27       1.0  0.16097542843264295  0.9711079293181655  0.3861497632832637  1.0000
  O   O28       1.0  0.7687045081000575  0.6708929242213632  0.8096936932705745  1.0000
  O   O29       1.0  0.6754940937531232  0.024963407790821214  0.4512998672670676  1.0000
  O   O30       1.0  0.49892735084733175  0.9934590778607205  0.5017536939449059  1.0000
  O   O31       1.0  0.19828413253814878  0.8224940941630051  0.9600792762454375  1.0000
  O   O32       1.0  0.9793609033008436  0.836699909089852  0.9674388516482892  1.0000
  O   O33       1.0  0.9616362727443144  0.663798478203475  0.974258911979831  1.0000
  O   O34       1.0  0.16491586018056392  0.4715061885068082  0.9672137718814255  1.0000
  O   O35       1.0  0.6747040891013895  0.6577814936055972  0.5051862703799301  1.0000
  O   O36       1.0  0.030218297819928457  0.9962159245668758  0.0154222142761355  1.0000
