data_image0
_chemical_formula_structural       U2H12C16O14
_chemical_formula_sum              "U2 H12 C16 O14"
_cell_length_a       6.582479829190756
_cell_length_b       8.143910237918181
_cell_length_c       10.251871323069572
_cell_angle_alpha    93.83639232177688
_cell_angle_beta     98.00767463261994
_cell_angle_gamma    102.38985851927448

_space_group_name_H-M_alt    "P 1"
_space_group_IT_number       1

loop_
  _space_group_symop_operation_xyz
  'x, y, z'

loop_
  _atom_site_type_symbol
  _atom_site_label
  _atom_site_symmetry_multiplicity
  _atom_site_fract_x
  _atom_site_fract_y
  _atom_site_fract_z
  _atom_site_occupancy
  U   U1        1.0  0.1768760053439991  0.062299959015398094  0.27113998253053506  1.0000
  U   U2        1.0  0.8231316408127964  0.9377245708477556  0.7288541218664975  1.0000
  H   H1        1.0  0.679803803316787  0.4725098753829754  0.38157167792395097  1.0000
  H   H2        1.0  0.32020914705847753  0.5274775662898178  0.6184334064367151  1.0000
  H   H3        1.0  0.6916627852942481  0.7049985822651407  0.2357772865627652  1.0000
  H   H4        1.0  0.3083402435506172  0.2949976862355541  0.7642351040339223  1.0000
  H   H5        1.0  0.7416581832509692  0.6581666402416034  0.0018910440385724292  1.0000
  H   H6        1.0  0.25832728766356167  0.34183637455365085  0.998110161642252  1.0000
  H   H7        1.0  0.7701774799978264  0.3752961780518404  0.9110186948677425  1.0000
  H   H8        1.0  0.22980495078382282  0.6247018015592828  0.08898188561730082  1.0000
  H   H9        1.0  0.3584575264561494  0.09624932519807317  0.5610252608782886  1.0000
  H   H10       1.0  0.6415442933271862  0.9037398593689403  0.43896217549968947  1.0000
  H   H11       1.0  0.1588300220067467  0.1734493405374238  0.5502192842002814  1.0000
  H   H12       1.0  0.8411721894854052  0.826537121280765  0.44977680967294026  1.0000
  C   C1        1.0  0.7807477654385904  0.10229157838463007  0.03879602456552786  1.0000
  C   C2        1.0  0.21925431076473242  0.8977354501886267  0.9612025282847442  1.0000
  C   C3        1.0  0.7242539620136198  0.1583397369924313  0.3208792807406837  1.0000
  C   C4        1.0  0.27573830563004986  0.8416493761437708  0.6791159338917582  1.0000
  C   C5        1.0  0.7262346401712206  0.2940948517225053  0.22937819244437216  1.0000
  C   C6        1.0  0.27376834944445955  0.7059003121126964  0.77062632004764  1.0000
  C   C7        1.0  0.7035703208368813  0.45189498406563183  0.2791420315799797  1.0000
  C   C8        1.0  0.2964359990410087  0.5481075234022297  0.7208740113586103  1.0000
  C   C9        1.0  0.7100222791007836  0.5822716926920676  0.1971959073968534  1.0000
  C   C10       1.0  0.28997283081089614  0.41771837050833227  0.8028133243141796  1.0000
  C   C11       1.0  0.7368737944771553  0.5562421199669527  0.06559537744171001  1.0000
  C   C12       1.0  0.26312005483665496  0.44376948787117226  0.9344160116087252  1.0000
  C   C13       1.0  0.7525736334518881  0.3978549444217163  0.014286073550380278  1.0000
  C   C14       1.0  0.2474201003634703  0.6021402867472287  0.9857194258541215  1.0000
  C   C15       1.0  0.749814959219705  0.2659184758895137  0.0955761714357237  1.0000
  C   C16       1.0  0.2501920941455466  0.7340803825755983  0.904431919168033  1.0000
  O   O1        1.0  0.10219553369798721  0.8552385355875174  0.32782767171761423  1.0000
  O   O2        1.0  0.8978060607211518  0.14477992973328205  0.6721556711718932  1.0000
  O   O3        1.0  0.2428604407153187  0.2712260467375741  0.2192224111897474  1.0000
  O   O4        1.0  0.7571561087621601  0.7288022432061609  0.7807699269042275  1.0000
  O   O5        1.0  0.8992209534095605  0.13423421169277108  0.37557696365973214  1.0000
  O   O6        1.0  0.1007641480013675  0.865752307492258  0.6244241735254192  1.0000
  O   O7        1.0  0.8678909072119936  0.008324325410718796  0.11370193914801519  1.0000
  O   O8        1.0  0.1321239242777635  0.9916846648865557  0.886303679992274  1.0000
  O   O9        1.0  0.7224033206395503  0.06098367361160228  0.9148798865114572  1.0000
  O   O10       1.0  0.2775901115423521  0.9390255663074568  0.08512350786330808  1.0000
  O   O11       1.0  0.549834996615715  0.07098401151029779  0.34563311541533187  1.0000
  O   O12       1.0  0.45016179194164596  0.9289988528021311  0.6543553606674807  1.0000
  O   O13       1.0  0.2881458224004732  0.17528784811345585  0.5120987244354893  1.0000
  O   O14       1.0  0.7118506529064489  0.8246999482787983  0.48789685036143743  1.0000
