data_image0
_chemical_formula_structural       Hg4H44C40N4Cl8O8
_chemical_formula_sum              "Hg4 H44 C40 N4 Cl8 O8"
_cell_length_a       7.119989055
_cell_length_b       7.486245716626295
_cell_length_c       25.964
_cell_angle_alpha    90.0
_cell_angle_beta     90.0
_cell_angle_gamma    118.26259863711395

_space_group_name_H-M_alt    "P 1"
_space_group_IT_number       1

loop_
  _space_group_symop_operation_xyz
  'x, y, z'

loop_
  _atom_site_type_symbol
  _atom_site_label
  _atom_site_symmetry_multiplicity
  _atom_site_fract_x
  _atom_site_fract_y
  _atom_site_fract_z
  _atom_site_occupancy
  Hg  Hg1       1.0  0.5843239104998403  0.2998444652551626  0.004622169157293901  1.0000
  Hg  Hg2       1.0  0.9156708815929661  0.200152106592526  0.5046248651979681  1.0000
  Hg  Hg3       1.0  0.41566454754870114  0.7001441287014813  0.9953786011400396  1.0000
  Hg  Hg4       1.0  0.08432533832007044  0.7998577194782257  0.4953762902480393  1.0000
  H   H1        1.0  0.4699100077509684  0.1401486355270833  0.231735865043909  1.0000
  H   H2        1.0  0.030093833657417697  0.3598494529001854  0.7317385610845761  1.0000
  H   H3        1.0  0.5300892480865613  0.8598475413274542  0.7682625943614243  1.0000
  H   H4        1.0  0.9699153592818635  0.6401497571135124  0.26825989832074987  1.0000
  H   H5        1.0  0.6108969163534325  0.716306317280889  0.19750462178400605  1.0000
  H   H6        1.0  0.8890926797363861  0.7836833982621769  0.6975057772300134  1.0000
  H   H7        1.0  0.389103094545348  0.2836913761532287  0.8024946079186537  1.0000
  H   H8        1.0  0.11090506597862772  0.21630974543320042  0.3024934524726532  1.0000
  H   H9        1.0  0.43218255390865323  0.6518592680473247  0.1433226775535346  1.0000
  H   H10       1.0  0.0678111229458622  0.8481304474957483  0.6433242181482088  1.0000
  H   H11       1.0  0.5678173513641553  0.3481353922276327  0.8566765521491322  1.0000
  H   H12       1.0  0.9321881328916674  0.15186572935878928  0.35667578185179144  1.0000
  H   H13       1.0  0.3331209088030178  0.5558385485468094  0.205519180403634  1.0000
  H   H14       1.0  0.16686952087506773  0.9441587498941502  0.705519565552301  1.0000
  H   H15       1.0  0.6668769425379679  0.44415762830772815  0.794480819596366  1.0000
  H   H16       1.0  0.8331256270988021  0.0558404601195406  0.2944800492990325  1.0000
  H   H17       1.0  0.9880597381768722  0.1484989226921627  0.20586619935294695  1.0000
  H   H18       1.0  0.5119457460789504  0.3515021988942664  0.7058669696502877  1.0000
  H   H19       1.0  0.011934443483809874  0.8514927044236416  0.7941338006470533  1.0000
  H   H20       1.0  0.4880708918469168  0.6485091437560655  0.2941322600523791  1.0000
  H   H21       1.0  0.9195232554462294  0.966810382494522  0.1549888306886444  1.0000
  H   H22       1.0  0.5804765946232563  0.533191465685185  0.6549896009859781  1.0000
  H   H23       1.0  0.0804696273438736  0.0331842777804354  0.8450107841626889  1.0000
  H   H24       1.0  0.4195357241870212  0.4668168438059865  0.3450084732706813  1.0000
  H   H25       1.0  0.112145269232542  0.2229250655592594  0.1443406254814334  1.0000
  H   H26       1.0  0.3878538148769053  0.2770775726067498  0.6443413957787669  1.0000
  H   H27       1.0  0.8878518270471858  0.777069594715698  0.8556601448159  1.0000
  H   H28       1.0  0.6121585039333723  0.7229307368844289  0.3556582190725592  1.0000
  H   H29       1.0  0.19639043861166527  0.9817623405694391  0.0756050685564631  1.0000
  H   H30       1.0  0.303601606814901  0.518241024189841  0.5756100754891378  1.0000
  H   H31       1.0  0.8035987744981341  0.0182277699667779  0.9243949314435371  1.0000
  H   H32       1.0  0.696403689512664  0.4817672853013306  0.4243914651055292  1.0000
  H   H33       1.0  0.9462826851765129  0.7395494159172884  0.010969034047143103  1.0000
  H   H34       1.0  0.5537114412808393  0.7604493991032584  0.5109728855338176  1.0000
  H   H35       1.0  0.053710847048883216  0.2604437277780889  0.9890313511015238  1.0000
  H   H36       1.0  0.44628477863219734  0.2395604269674934  0.4890278847635159  1.0000
  H   H37       1.0  0.7339782408291313  0.2612156667840893  0.11479548605761643  1.0000
  H   H38       1.0  0.7660160074543612  0.2387854548023398  0.6147974118009571  1.0000
  H   H39       1.0  0.2660025453014256  0.7387744437521278  0.8852052842397173  1.0000
  H   H40       1.0  0.2339836708870422  0.7612228546888389  0.3852025881990429  1.0000
  H   H41       1.0  0.9743374254922229  0.4838449993253349  0.1837490371283295  1.0000
  H   H42       1.0  0.5256641621518838  0.016165221738575  0.6837532737636707  1.0000
  H   H43       1.0  0.025651032556318426  0.5161435946313091  0.8162509628716708  1.0000
  H   H44       1.0  0.47434480385599903  0.9838476374913441  0.31624865197966306  1.0000
  C   C1        1.0  0.4530517581146327  0.6889381221880839  0.18457595131720692  1.0000
  C   C2        1.0  0.04694353448836348  0.8110576596733026  0.6845771067632072  1.0000
  C   C3        1.0  0.5469497629066566  0.3110626044051941  0.8154236635341264  1.0000
  C   C4        1.0  0.953057125845703  0.188938517181235  0.3154236635341263  1.0000
  C   C5        1.0  0.42305038540884965  0.8688393416546917  0.19709828993991613  1.0000
  C   C6        1.0  0.07695279036407503  0.6311609899454352  0.6971017562779238  1.0000
  C   C7        1.0  0.5769502749252169  0.131156835199846  0.8029009397627505  1.0000
  C   C8        1.0  0.9230493800925004  0.3688382200682625  0.3028990140194097  1.0000
  C   C9        1.0  0.25282563736301006  0.8954446972189842  0.17475234940687304  1.0000
  C   C10       1.0  0.24718271821273421  0.6045632172790434  0.6747569711908812  1.0000
  C   C11       1.0  0.7471763218416214  0.1045484464764002  0.8252480357417937  1.0000
  C   C12       1.0  0.7528232275501239  0.3954435756325552  0.3252445694037931  1.0000
  C   C13       1.0  0.2256913967615333  0.061083275726098  0.19042828531813433  1.0000
  C   C14       1.0  0.27431330533407566  0.4389193624399113  0.6904313665074755  1.0000
  C   C15       1.0  0.7743034343344277  0.9389068348101262  0.8095709443845323  1.0000
  C   C16       1.0  0.7257005235987108  0.5610919802104206  0.30956901864119873  1.0000
  C   C17       1.0  0.0493719717679681  0.099812168449418  0.173039208134341  1.0000
  C   C18       1.0  0.4506292718992739  0.4001919862961643  0.6730395932830078  1.0000
  C   C19       1.0  0.9506222098927068  0.9001794586663792  0.8269619473116592  1.0000
  C   C20       1.0  0.5493845570335125  0.5998193563541676  0.3269588661223254  1.0000
  C   C21       1.0  0.10884975472887964  0.7533093424426694  0.1355588507163787  1.0000
  C   C22       1.0  0.3911586008468717  0.746698572055351  0.6355619319057128  1.0000
  C   C23       1.0  0.8911450763670885  0.24668076809354736  0.864443075026962  1.0000
  C   C24       1.0  0.6088539292153428  0.2533158037541412  0.3644403789862878  1.0000
  C   C25       1.0  0.0984710084056033  0.8229355109404537  0.0859898320751782  1.0000
  C   C26       1.0  0.40152946400021955  0.6770678538188335  0.5859936835618527  1.0000
  C   C27       1.0  0.9015274923706684  0.17705914933451078  0.9140109382221553  1.0000
  C   C28       1.0  0.598471513211763  0.3229374225131849  0.41400747188414755  1.0000
  C   C29       1.0  0.9603087722494194  0.6900649408156951  0.0496156216299468  1.0000
  C   C30       1.0  0.5396854598338976  0.8099369073640048  0.5496202434139548  1.0000
  C   C31       1.0  0.039687885846966316  0.309937302357163  0.9503836080727126  1.0000
  C   C32       1.0  0.4603140072555689  0.1900653358088462  0.4503801417347121  1.0000
  C   C33       1.0  0.8406406322495458  0.42157424178844133  0.10785972885533823  1.0000
  C   C34       1.0  0.659350263231552  0.0784314295367281  0.6078608843013384  1.0000
  C   C35       1.0  0.15934728198968173  0.578418901906943  0.8921414265906622  1.0000
  C   C36       1.0  0.34064866004860056  0.9215753633748704  0.3921383454013282  1.0000
  C   C37       1.0  0.9757139383027322  0.5467451373877452  0.1458561854875953  1.0000
  C   C38       1.0  0.5242903365083151  0.9532627771102752  0.6458604221229367  1.0000
  C   C39       1.0  0.024283807412281488  0.4532480063076322  0.8541430442150643  1.0000
  C   C40       1.0  0.475713011513399  0.0467500821196367  0.3541395778770635  1.0000
  N   N1        1.0  0.834157014432968  0.4925243842591769  0.0605415190263443  1.0000
  N   N2        1.0  0.665845011394488  0.0074782539068323  0.5605438299183519  1.0000
  N   N3        1.0  0.1658400818467669  0.5074702760157805  0.9394588661223224  1.0000
  N   N4        1.0  0.3341526130150925  0.9925315721639265  0.4394557849329815  1.0000
  Cl  Cl1       1.0  0.690521917889285  0.6198700549755785  0.9377919426898773  1.0000
  Cl  Cl2       1.0  0.8094609725957369  0.8801287600449683  0.4377919426898772  1.0000
  Cl  Cl3       1.0  0.3094615716083808  0.3801170224014783  0.06220998305345661  1.0000
  Cl  Cl4       1.0  0.19054302486126318  0.11988258260537069  0.5622072870127895  1.0000
  Cl  Cl5       1.0  0.3467856846577959  0.0404335281707517  0.9468317670620863  1.0000
  Cl  Cl6       1.0  0.15320692077825976  0.459564560256517  0.44683099676475285  1.0000
  Cl  Cl7       1.0  0.6532042835132543  0.9595580989450454  0.05317054382992131  1.0000
  Cl  Cl8       1.0  0.8467921081278575  0.5404452658142418  0.5531682329379137  1.0000
  O   O1        1.0  0.5526166311356349  0.0007234084594501  0.22879679556308474  1.0000
  O   O2        1.0  0.947386693562386  0.4992761965473989  0.7287991064550925  1.0000
  O   O3        1.0  0.4473841348243964  0.9992758015542477  0.7712008935449077  1.0000
  O   O4        1.0  0.052616020703510485  0.5007184637275586  0.27120050839624105  1.0000
  O   O5        1.0  0.3588047177527471  0.1940782053763712  0.22373440147897133  1.0000
  O   O6        1.0  0.14119555960130006  0.3059183664713174  0.7237370975196455  1.0000
  O   O7        1.0  0.6411902189691858  0.8059149383190061  0.7762644430750285  1.0000
  O   O8        1.0  0.8588194625760864  0.694086909860701  0.2762617470343542  1.0000
