data_image0
_chemical_formula_structural       Zn4H7C14BrO13
_chemical_formula_sum              "Zn4 H7 C14 Br1 O13"
_cell_length_a       10.909801128867167
_cell_length_b       10.877613802280115
_cell_length_c       13.330191496393676
_cell_angle_alpha    100.09027920366255
_cell_angle_beta     94.64893020833341
_cell_angle_gamma    96.6879683120311

_space_group_name_H-M_alt    "P 1"
_space_group_IT_number       1

loop_
  _space_group_symop_operation_xyz
  'x, y, z'

loop_
  _atom_site_type_symbol
  _atom_site_label
  _atom_site_symmetry_multiplicity
  _atom_site_fract_x
  _atom_site_fract_y
  _atom_site_fract_z
  _atom_site_occupancy
  Zn  Zn1       1.0  0.4077331180234722  0.6019284048611057  0.5797197560185764  1.0000
  Zn  Zn2       1.0  0.5941831434027949  0.40129539663126934  0.5914422242268103  1.0000
  Zn  Zn3       1.0  0.6184434572754255  0.583639819003409  0.43035515816644204  1.0000
  Zn  Zn4       1.0  0.3851876847019682  0.36411407996032363  0.39570782831636814  1.0000
  H   H1        1.0  0.5086482981519326  0.40314576757037196  0.9145580765961367  1.0000
  H   H2        1.0  0.3530202086434712  0.9667627813623484  0.4618903904213383  1.0000
  H   H3        1.0  0.014004396558306102  0.5128495598717393  0.6205756324948267  1.0000
  H   H4        1.0  0.6342419429586102  0.008281912318402411  0.5335660351263413  1.0000
  H   H5        1.0  0.46335402361116707  0.34859406467153786  0.07011003529502349  1.0000
  H   H6        1.0  0.5413307787896571  0.6887200836548077  0.915272508595585  1.0000
  H   H7        1.0  0.990761976556641  0.46101479474643287  0.3835950497873313  1.0000
  C   C1        1.0  0.8327672542831693  0.4976792028119592  0.5301550626714543  1.0000
  C   C2        1.0  0.46435333335873724  0.15423873567021934  0.48561100455969347  1.0000
  C   C3        1.0  0.17124727079673363  0.4750724000503725  0.4744938127157353  1.0000
  C   C4        1.0  0.49840081723473156  0.45402263095913054  0.22587003187278032  1.0000
  C   C5        1.0  0.5175171579262213  0.5509512889724277  0.7722457324696634  1.0000
  C   C6        1.0  0.5313297543959409  0.5879044716525785  0.8850328225854937  1.0000
  C   C7        1.0  0.523350560701438  0.5036888070489242  0.9480113394774533  1.0000
  C   C8        1.0  0.5281266656886174  0.8188946952479057  0.5089442080724068  1.0000
  C   C9        1.0  0.497928139239967  0.44263074295107446  0.11380251240196058  1.0000
  C   C10       1.0  0.5297443965094645  0.5333651255373228  0.05898214052886169  1.0000
  C   C11       1.0  0.03549009201994831  0.4796956158637969  0.4619320277769388  1.0000
  C   C12       1.0  0.445933092902841  0.01706882448539911  0.4869964581636096  1.0000
  C   C13       1.0  0.9695756485184507  0.500161430076034  0.5424425757388036  1.0000
  C   C14       1.0  0.5408708971566937  0.9571413066668129  0.5132165521522437  1.0000
  Br  Br1       1.0  0.5808606284202115  0.7048001127416442  0.12070887181256747  1.0000
  O   O1        1.0  0.5004146674994631  0.4845134221336879  0.4977572075831559  1.0000
  O   O2        1.0  0.5601251051247119  0.2193815112495799  0.5391472365901676  1.0000
  O   O3        1.0  0.6220312039043066  0.7657532753818829  0.4819759715431643  1.0000
  O   O4        1.0  0.7854610037272849  0.5354531239541276  0.4521405262781996  1.0000
  O   O5        1.0  0.3821058558141318  0.19445216368341534  0.43038910852499856  1.0000
  O   O6        1.0  0.21622136985771334  0.4139452529673024  0.3984063368445944  1.0000
  O   O7        1.0  0.5661629064840669  0.5473161883066027  0.2832201615357519  1.0000
  O   O8        1.0  0.5460985213718246  0.44395086593524274  0.7317622453685642  1.0000
  O   O9        1.0  0.4766347136727944  0.6325002641164374  0.7240600786431557  1.0000
  O   O10       1.0  0.43014837447364573  0.36567409862243505  0.2553415535390755  1.0000
  O   O11       1.0  0.7743396266548502  0.4572060973182417  0.5997964224172846  1.0000
  O   O12       1.0  0.4269033994261946  0.7649942433321401  0.5322607663347937  1.0000
  O   O13       1.0  0.2313923015579462  0.5326092436486078  0.5593052808699425  1.0000
