data_image0
_chemical_formula_structural       Mn6H12C24O18
_chemical_formula_sum              "Mn6 H12 C24 O18"
_cell_length_a       7.110502224916587
_cell_length_b       15.0020177416382
_cell_length_c       15.002858545442551
_cell_angle_alpha    117.53161796825545
_cell_angle_beta     99.09982810683701
_cell_angle_gamma    99.09103585162286

_space_group_name_H-M_alt    "P 1"
_space_group_IT_number       1

loop_
  _space_group_symop_operation_xyz
  'x, y, z'

loop_
  _atom_site_type_symbol
  _atom_site_label
  _atom_site_symmetry_multiplicity
  _atom_site_fract_x
  _atom_site_fract_y
  _atom_site_fract_z
  _atom_site_occupancy
  Mn  Mn1       1.0  0.971329327214782  0.2610740493124553  0.585204570414277  1.0000
  Mn  Mn2       1.0  0.38624268378116955  0.41484274290720424  0.6759496770499569  1.0000
  Mn  Mn3       1.0  0.7102683304723597  0.32403314847642395  0.7389305794158647  1.0000
  Mn  Mn4       1.0  0.028675823690264172  0.7389259458548167  0.4147976819146352  1.0000
  Mn  Mn5       1.0  0.6137574873330962  0.5851588121223796  0.32404693749644764  1.0000
  Mn  Mn6       1.0  0.28972175672286227  0.6759652886179879  0.26106585679424654  1.0000
  H   H1        1.0  0.6451899680425015  0.473340246356436  0.25799199384209004  1.0000
  H   H2        1.0  0.3872325084232456  0.7420551350890462  0.21530748651115766  1.0000
  H   H3        1.0  0.1720262320911629  0.7846550366644747  0.5266136710091659  1.0000
  H   H4        1.0  0.3548191730074493  0.5266620874496012  0.742008966240576  1.0000
  H   H5        1.0  0.6127723597521565  0.25794719864298077  0.7846931630369769  1.0000
  H   H6        1.0  0.8279900371267388  0.21533872417142416  0.4733858330216948  1.0000
  H   H7        1.0  0.3058811472129932  0.44628893279034526  0.4698740637696376  1.0000
  H   H8        1.0  0.8360208994248522  0.5300439518798966  0.9764296830701014  1.0000
  H   H9        1.0  0.8595387450371986  0.023395080329805796  0.5537835375128709  1.0000
  H   H10       1.0  0.6941179891389734  0.5537048286034503  0.5301201962270241  1.0000
  H   H11       1.0  0.16398407573435478  0.4699614997569481  0.023569753251059856  1.0000
  H   H12       1.0  0.14044975924015538  0.9766056927429076  0.4462231980931222  1.0000
  C   C1        1.0  0.7664211580370617  0.43904494119037435  0.6143083744280631  1.0000
  C   C2        1.0  0.15205833832755639  0.38574059262343496  0.8247321148990708  1.0000
  C   C3        1.0  0.327617183102994  0.17532134482832618  0.561074150272134  1.0000
  C   C4        1.0  0.2335839721841068  0.5609550544038624  0.3856918769528193  1.0000
  C   C5        1.0  0.8479447020536168  0.6142609620285241  0.1752667076183839  1.0000
  C   C6        1.0  0.6723804773149097  0.824677870448589  0.43892919589343654  1.0000
  C   C7        1.0  0.8890269215206031  0.46666997599541554  0.5547536029291892  1.0000
  C   C8        1.0  0.33422234945374635  0.4453146554164176  0.9119206402034055  1.0000
  C   C9        1.0  0.42246659847117474  0.08810965825038858  0.5334265146608246  1.0000
  C   C10       1.0  0.11097742237902242  0.5333284610610461  0.4452452023613915  1.0000
  C   C11       1.0  0.6657773318578745  0.5546830022259851  0.08807746499883239  1.0000
  C   C12       1.0  0.5775300411579207  0.9118903360572544  0.46657845151239735  1.0000
  C   C13       1.0  0.06454971007039488  0.43549212645356755  0.5368172741195991  1.0000
  C   C14       1.0  0.5277387247559631  0.46318636796390666  0.8987018307077295  1.0000
  C   C15       1.0  0.6291768946978352  0.10125532140440187  0.564613742252867  1.0000
  C   C16       1.0  0.9354535854619215  0.5645070902029159  0.463180483247932  1.0000
  C   C17       1.0  0.4722591358403036  0.5368190834072663  0.10129775503855136  1.0000
  C   C18       1.0  0.3708201208554696  0.8987454525279331  0.435390279508816  1.0000
  C   C19       1.0  0.17108995839404165  0.4699671792830243  0.4831201087514217  1.0000
  C   C20       1.0  0.6879794371053831  0.5168258496709297  0.9868668669040093  1.0000
  C   C21       1.0  0.7011366850253324  0.013052164250851195  0.5300833927463844  1.0000
  C   C22       1.0  0.8289161926159279  0.5300320372804703  0.5168785226218091  1.0000
  C   C23       1.0  0.3120123366113674  0.4831788222615143  0.013131915242411134  1.0000
  C   C24       1.0  0.2988553126996505  0.9869470502157749  0.4699228742865174  1.0000
  O   O1        1.0  0.6040220658078752  0.46353632598195543  0.6186664113154309  1.0000
  O   O2        1.0  0.985284885384587  0.38132882375065674  0.8448374360201643  1.0000
  O   O3        1.0  0.14074236723546818  0.15521554251656505  0.5365986906108233  1.0000
  O   O4        1.0  0.39598290916708817  0.5364605527037226  0.3813303844136868  1.0000
  O   O5        1.0  0.01471462707582555  0.6186742902189974  0.15515852015699486  1.0000
  O   O6        1.0  0.8592546896855991  0.8447852305618467  0.4634093330469113  1.0000
  O   O7        1.0  0.832358462094156  0.39169725776738307  0.6611668607261549  1.0000
  O   O8        1.0  0.1712063749560144  0.33885174401904544  0.7305778201059356  1.0000
  O   O9        1.0  0.44088023819819705  0.26948333512480355  0.6083668436778569  1.0000
  O   O10       1.0  0.16764848902661098  0.6083035170492436  0.3388345507027354  1.0000
  O   O11       1.0  0.8288026315316157  0.6611474724514678  0.26942168527299504  1.0000
  O   O12       1.0  0.5591106628970832  0.7305166599380891  0.39163370655325724  1.0000
  O   O13       1.0  0.13454770051500012  0.3722869294845877  0.56796955684208  1.0000
  O   O14       1.0  0.5666351160785722  0.4319963135352862  0.8043674537509418  1.0000
  O   O15       1.0  0.7624556711421916  0.1955759063543922  0.6278192083611175  1.0000
  O   O16       1.0  0.8654499977562009  0.6277068321691812  0.43202326567772087  1.0000
  O   O17       1.0  0.4333575507592896  0.5680044618885843  0.1956289206667634  1.0000
  O   O18       1.0  0.23754273422948535  0.8044248683142209  0.37218158199869567  1.0000
