data_image0
_chemical_formula_structural       Rb4H24C32Cl8O14
_chemical_formula_sum              "Rb4 H24 C32 Cl8 O14"
_cell_length_a       4.240613032555284
_cell_length_b       12.901644045651702
_cell_length_c       19.95254794250973
_cell_angle_alpha    98.09849525824029
_cell_angle_beta     96.09019134938875
_cell_angle_gamma    89.9535907415041

_space_group_name_H-M_alt    "P 1"
_space_group_IT_number       1

loop_
  _space_group_symop_operation_xyz
  'x, y, z'

loop_
  _atom_site_type_symbol
  _atom_site_label
  _atom_site_symmetry_multiplicity
  _atom_site_fract_x
  _atom_site_fract_y
  _atom_site_fract_z
  _atom_site_occupancy
  Rb  Rb1       1.0  0.24178475482607814  0.410404811827661  0.06502770660409851  1.0000
  Rb  Rb2       1.0  0.17716398627533184  0.0897035778941273  0.9349124796892242  1.0000
  Rb  Rb3       1.0  0.7582141248081842  0.5895951007136446  0.9349711113971751  1.0000
  Rb  Rb4       1.0  0.8228278565273756  0.9102986769479883  0.0650888984395053  1.0000
  H   H1        1.0  0.6321238033496146  0.2669030989709639  0.9619389466088536  1.0000
  H   H2        1.0  0.669673589255176  0.23315248607756442  0.03809277937847361  1.0000
  H   H3        1.0  0.36787271126245713  0.7330975888817548  0.038062394455423  1.0000
  H   H4        1.0  0.3303253026848624  0.7668482028985791  0.9619081154220978  1.0000
  H   H5        1.0  0.46034378303107104  0.3903873570141627  0.21844587977469843  1.0000
  H   H6        1.0  0.24067794906530796  0.10957529744358399  0.7813164392296628  1.0000
  H   H7        1.0  0.5396692544304288  0.6096109864848387  0.7815531197319033  1.0000
  H   H8        1.0  0.7593233318496999  0.8904253959293058  0.21868300749488165  1.0000
  H   H9        1.0  0.5797667020575331  0.46288291440234264  0.4377300055983397  1.0000
  H   H10       1.0  0.14028275837922885  0.037044920054548  0.5620393801925445  1.0000
  H   H11       1.0  0.4202393632896957  0.5371185625622203  0.5622691226796236  1.0000
  H   H12       1.0  0.8597161510313144  0.9629557738315739  0.4379600118895582  1.0000
  H   H13       1.0  0.0026768481334186957  0.6613693892619565  0.31940851058687514  1.0000
  H   H14       1.0  0.6822806698496748  0.8387883179303015  0.6805183150671112  1.0000
  H   H15       1.0  0.9973314935659303  0.3386297415182824  0.6805894509972035  1.0000
  H   H16       1.0  0.3177182460431496  0.1612131507540084  0.31948365472044327  1.0000
  H   H17       1.0  0.07364064734056093  0.7087990204951566  0.2059463057857016  1.0000
  H   H18       1.0  0.8687194606529475  0.791265088185483  0.7940128811432602  1.0000
  H   H19       1.0  0.926360419975751  0.2911969749888996  0.7940527018907915  1.0000
  H   H20       1.0  0.13127486627708151  0.20873951672447788  0.20598827024579694  1.0000
  H   H21       1.0  0.7304023084746873  0.6455336307234275  0.2268183472477787  1.0000
  H   H22       1.0  0.5040754134522986  0.8544910456895282  0.7733141982410247  1.0000
  H   H23       1.0  0.26960113034608213  0.35446236424740374  0.7731807150711634  1.0000
  H   H24       1.0  0.49591643517390344  0.14551121078924473  0.2266866789815509  1.0000
  C   C1        1.0  0.21783455799450016  0.5293248899618206  0.2609129876220777  1.0000
  C   C2        1.0  0.9560083285938533  0.9707296121941127  0.7389421571646366  1.0000
  C   C3        1.0  0.7821713054010291  0.4706718923872232  0.7390846997955195  1.0000
  C   C4        1.0  0.043988298641075105  0.0292734262396834  0.2610589025175116  1.0000
  C   C5        1.0  0.4113609156983244  0.44147012692838666  0.2644029614459242  1.0000
  C   C6        1.0  0.1456167150097514  0.058552754068948304  0.7353720001897416  1.0000
  C   C7        1.0  0.5886473787542387  0.5585282175970646  0.7355959287757798  1.0000
  C   C8        1.0  0.8543846254578258  0.941449501993574  0.2646285946964682  1.0000
  C   C9        1.0  0.5372889264260937  0.41997621112602707  0.3281642351544036  1.0000
  C   C10       1.0  0.20744850334036613  0.0800194603561408  0.6715908522922619  1.0000
  C   C11       1.0  0.4627170204747841  0.5800229136208088  0.6718356754118417  1.0000
  C   C12       1.0  0.7925551730319002  0.9199820122116835  0.3284097240617214  1.0000
  C   C13       1.0  0.47911065203024367  0.48201394172299666  0.3886592487449505  1.0000
  C   C14       1.0  0.08873661773165512  0.017969774912501207  0.6111267000423908  1.0000
  C   C15       1.0  0.5208905576851989  0.5179851856869534  0.6113400516302505  1.0000
  C   C16       1.0  0.9112621674090351  0.9820285651192292  0.38887397523414796  1.0000
  C   C17       1.0  0.28551023603761655  0.5682476493096756  0.3831879177916022  1.0000
  C   C18       1.0  0.9008387291684842  0.9318066787072112  0.6166599136942139  1.0000
  C   C19       1.0  0.7144933568292943  0.43175148086035614  0.6168104354137399  1.0000
  C   C20       1.0  0.09915772006751672  0.06819244481921768  0.3833407801145512  1.0000
  C   C21       1.0  0.1548896518897394  0.59375218160816  0.32043431227333496  1.0000
  C   C22       1.0  0.8332773387646528  0.9063550716845015  0.6794440123566902  1.0000
  C   C23       1.0  0.8451162768818608  0.40624616506718064  0.6795640223997736  1.0000
  C   C24       1.0  0.16672156482238884  0.09364562056495632  0.3205558806315665  1.0000
  C   C25       1.0  0.9158341615588128  0.6396307981692714  0.1918772192927989  1.0000
  C   C26       1.0  0.7246901588832771  0.8604184031134636  0.8081455060050757  1.0000
  C   C27       1.0  0.08416456985280972  0.3603659808094832  0.8081218069159206  1.0000
  C   C28       1.0  0.27530642692836693  0.13958385070220203  0.19185598140855123  1.0000
  C   C29       1.0  0.749503260463385  0.6406014603975762  0.12015599096257293  1.0000
  C   C30       1.0  0.6307254925870964  0.8594850497437676  0.8799278490141661  1.0000
  C   C31       1.0  0.250497913652275  0.3593968840308932  0.8798432362379459  1.0000
  C   C32       1.0  0.3692687217200757  0.140517204585116  0.1200735837570122  1.0000
  Cl  Cl1       1.0  0.7710170020621092  0.3103611454803499  0.3332558715939414  1.0000
  Cl  Cl2       1.0  0.43580718431991994  0.1895233528907241  0.6664277607416694  1.0000
  Cl  Cl3       1.0  0.22899372344748772  0.6896387612215094  0.6667442214318771  1.0000
  Cl  Cl4       1.0  0.5641986913813855  0.8104742058931649  0.3335720034752256  1.0000
  Cl  Cl5       1.0  0.19676522608493494  0.6466981227571154  0.45642656231698453  1.0000
  Cl  Cl6       1.0  0.7389989554352071  0.8533695150153304  0.5434565203200279  1.0000
  Cl  Cl7       1.0  0.803240815309515  0.3533025744992954  0.5435714909739957  1.0000
  Cl  Cl8       1.0  0.26099512229632893  0.1466296090243233  0.45654411884629553  1.0000
  O   O1        1.0  0.7874785036751106  0.2501104411498076  8.199383506740219e-05  1.0000
  O   O2        1.0  0.2125204122177138  0.7498910275344953  0.999919975952487  1.0000
  O   O3        1.0  0.09537788713557661  0.5458755090796146  0.19687219872801623  1.0000
  O   O4        1.0  0.8984632201045104  0.9541862052664669  0.8030350376211859  1.0000
  O   O5        1.0  0.9046255575086947  0.4541204875278737  0.8031263626847719  1.0000
  O   O6        1.0  0.10152870554476583  0.045817618811902605  0.19696548504459344  1.0000
  O   O7        1.0  0.7521809954768275  0.5601018651089475  0.07609070737093053  1.0000
  O   O8        1.0  0.6774504596636676  0.9399855507050815  0.9239797637997145  1.0000
  O   O9        1.0  0.24781551847646457  0.43989804958224  0.9239075550817404  1.0000
  O   O10       1.0  0.3225436776204378  0.06001513602420519  0.0760220235282674  1.0000
  O   O11       1.0  0.6109755695525724  0.7263135798850442  0.11229542123940922  1.0000
  O   O12       1.0  0.5004837535866713  0.7737965852385997  0.8878397982720614  1.0000
  O   O13       1.0  0.3890256285158742  0.2736855442515918  0.8877048809480925  1.0000
  O   O14       1.0  0.49951277267240374  0.226204105887426  0.1121605409799002  1.0000
