data_image0
_chemical_formula_structural       Cd2H34C40N10O10
_chemical_formula_sum              "Cd2 H34 C40 N10 O10"
_cell_length_a       8.498326461292871
_cell_length_b       10.592891064441833
_cell_length_c       11.838712412907636
_cell_angle_alpha    64.67224011073523
_cell_angle_beta     84.18234108998917
_cell_angle_gamma    76.05809676672067

_space_group_name_H-M_alt    "P 1"
_space_group_IT_number       1

loop_
  _space_group_symop_operation_xyz
  'x, y, z'

loop_
  _atom_site_type_symbol
  _atom_site_label
  _atom_site_symmetry_multiplicity
  _atom_site_fract_x
  _atom_site_fract_y
  _atom_site_fract_z
  _atom_site_occupancy
  Cd  Cd1       1.0  0.05545997843936589  0.8557751094145659  0.2329691541284689  1.0000
  Cd  Cd2       1.0  0.9445302118316549  0.14422942723413001  0.7670327193179388  1.0000
  H   H1        1.0  0.9751001880476692  0.369719773710969  0.21135474109661354  1.0000
  H   H2        1.0  0.024894187633307727  0.6302783884690586  0.7886577027743725  1.0000
  H   H3        1.0  0.8676827564064168  0.27563091133419704  0.08281146473909468  1.0000
  H   H4        1.0  0.1323407166907485  0.7243587040468642  0.9171916746666894  1.0000
  H   H5        1.0  0.6582076499054709  0.4391778720252121  0.9197282956411071  1.0000
  H   H6        1.0  0.3418127409478161  0.5608041857607374  0.08026791087446845  1.0000
  H   H7        1.0  0.5599640324810693  0.691751129042352  0.8882609855280135  1.0000
  H   H8        1.0  0.44005050882394403  0.30822666272312205  0.11174414084234027  1.0000
  H   H9        1.0  0.6542557971036871  0.8478616830369035  0.08740058492877982  1.0000
  H   H10       1.0  0.3457404958929046  0.1521363906989706  0.9125931428402009  1.0000
  H   H11       1.0  0.5393595833856466  0.8741436304937127  0.960205261475991  1.0000
  H   H12       1.0  0.4606398218434009  0.12585122466821727  0.039786917719922585  1.0000
  H   H13       1.0  0.443153065937345  0.744849904387067  0.17887679057219685  1.0000
  H   H14       1.0  0.556823000565558  0.2551685268808868  0.8211217304317839  1.0000
  H   H15       1.0  0.639049599322078  0.47431845947009793  0.2917297514895053  1.0000
  H   H16       1.0  0.36094626966457355  0.5257053531436143  0.708259910074858  1.0000
  H   H17       1.0  0.18265757655746737  0.4928515021162453  0.4775473138550977  1.0000
  H   H18       1.0  0.8173402086684617  0.5071455126486769  0.5224483878517105  1.0000
  H   H19       1.0  0.6863875608672956  0.2482112428970282  0.38502815466308954  1.0000
  H   H20       1.0  0.3136195119626635  0.751791151855585  0.6149646578285015  1.0000
  H   H21       1.0  0.5786895158382778  0.8956096050308843  0.7181775519949695  1.0000
  H   H22       1.0  0.4213202213688945  0.10440251422765812  0.28182645490925745  1.0000
  H   H23       1.0  0.2801916747022801  0.29728384382315204  0.6266739021800445  1.0000
  H   H24       1.0  0.7198187310698145  0.702729297492091  0.3733195117468924  1.0000
  H   H25       1.0  0.830299111691197  0.0847761067710522  0.3273135034750964  1.0000
  H   H26       1.0  0.16971405179540253  0.9152220778627368  0.6726922532990542  1.0000
  H   H27       1.0  0.8122061229429746  0.7814647346884058  0.703824841570437  1.0000
  H   H28       1.0  0.18779263401103208  0.21852910271099552  0.2961787720246462  1.0000
  H   H29       1.0  0.027295396918518105  0.6559412165155931  0.5706833057930468  1.0000
  H   H30       1.0  0.9726984034260298  0.3440536879903817  0.4293220067827619  1.0000
  H   H31       1.0  0.7164608645175293  0.9857993342557662  0.20500608410628726  1.0000
  H   H32       1.0  0.2835452914195358  0.0142073771418509  0.7949918857426466  1.0000
  H   H33       1.0  0.7888953703720816  0.03911456171361039  0.06691549604708057  1.0000
  H   H34       1.0  0.21110960738263163  0.9608824926041281  0.9330837983070309  1.0000
  C   C1        1.0  0.8372415076070607  0.5850422309423351  0.11744635451086792  1.0000
  C   C2        1.0  0.16274526252779958  0.4149526683641015  0.8825620967926681  1.0000
  C   C3        1.0  0.8850746966670684  0.4403945574292933  0.13945647644678158  1.0000
  C   C4        1.0  0.11492899175717498  0.5596035988009831  0.8605492581882785  1.0000
  C   C5        1.0  0.8243659537094743  0.387174213918513  0.06775079218446219  1.0000
  C   C6        1.0  0.17565051065302126  0.6128196643917648  0.9322504438335172  1.0000
  C   C7        1.0  0.7092735799919722  0.47925993444187054  0.9753226907936892  1.0000
  C   C8        1.0  0.29073341297237926  0.5207242613986908  0.024679745180030473  1.0000
  C   C9        1.0  0.6568520460999068  0.6224614954701339  0.9557628727754517  1.0000
  C   C10       1.0  0.34315955251135927  0.37752268666015  0.044234105025601926  1.0000
  C   C11       1.0  0.7212600934040694  0.6785032451252135  0.02402670023146675  1.0000
  C   C12       1.0  0.2787365745091605  0.32148412544230354  0.9759728502461439  1.0000
  C   C13       1.0  0.9098648555421605  0.639044135635139  0.19448539452233857  1.0000
  C   C14       1.0  0.09010959591576297  0.36094861943417567  0.805530860257015  1.0000
  C   C15       1.0  0.6627869407544436  0.8337953040939042  0.00020249784974170904  1.0000
  C   C16       1.0  0.3372121123269238  0.1661963406297247  0.9997918056916432  1.0000
  C   C17       1.0  0.7663755593312513  0.9334800252482017  0.9095458610242985  1.0000
  C   C18       1.0  0.23362365725434137  0.06651591766330262  0.0904492903546981  1.0000
  C   C19       1.0  0.41968449020225757  0.6511196618685066  0.2584525019247009  1.0000
  C   C20       1.0  0.5802979845596637  0.34889663473361315  0.7415446111926228  1.0000
  C   C21       1.0  0.5163028578561466  0.5169228192761606  0.312858136515537  1.0000
  C   C22       1.0  0.4836877478024775  0.4830934683625259  0.6871323697762007  1.0000
  C   C23       1.0  0.2790133690121195  0.5268297782413782  0.4120524754163525  1.0000
  C   C24       1.0  0.720978899708463  0.4731704404818232  0.5879432968404785  1.0000
  C   C25       1.0  0.4753630789322472  0.2915526536379359  0.49282293408290906  1.0000
  C   C26       1.0  0.5246409437200583  0.7084572364056926  0.5071680677099764  1.0000
  C   C27       1.0  0.6125066397793404  0.2046009666687141  0.46711458965174296  1.0000
  C   C28       1.0  0.38749865072841055  0.795403553333614  0.532875013975719  1.0000
  C   C29       1.0  0.6516754083262342  0.05979094784953529  0.5488257908478714  1.0000
  C   C30       1.0  0.3483271209116053  0.9402157373304337  0.45116912054459835  1.0000
  C   C31       1.0  0.5537929802654774  0.008173209520634803  0.6534346232878362  1.0000
  C   C32       1.0  0.44621810714181714  0.9918378207078576  0.34656546760107443  1.0000
  C   C33       1.0  0.38569212133803177  0.23233064203481046  0.6011854733352919  1.0000
  C   C34       1.0  0.6143179119964942  0.7676792845479669  0.39880922351524356  1.0000
  C   C35       1.0  0.8571156438222689  0.9864139818184582  0.4113715792248486  1.0000
  C   C36       1.0  0.1428925021852123  0.013585257039423499  0.5886333522644022  1.0000
  C   C37       1.0  0.8446530550151935  0.8226003251715995  0.6058902653973987  1.0000
  C   C38       1.0  0.15534491281971438  0.17739672824075836  0.39411300910630587  1.0000
  C   C39       1.0  0.954711851548218  0.764724226692259  0.5385336214678134  1.0000
  C   C40       1.0  0.04528375259356918  0.23527282069275662  0.461469857856592  1.0000
  N   N1        1.0  0.27310741821439416  0.6558511160058202  0.32092483818782813  1.0000
  N   N2        1.0  0.7268780040906151  0.3441533999998754  0.6790757620562143  1.0000
  N   N3        1.0  0.4264527198970781  0.43760060870357625  0.41120340396921046  1.0000
  N   N4        1.0  0.5735456633254331  0.5624081956987722  0.588788503379831  1.0000
  N   N5        1.0  0.4255456587963096  0.0934909265134962  0.6787067215039783  1.0000
  N   N6        1.0  0.574461613268312  0.9065211652469145  0.3212932831115651  1.0000
  N   N7        1.0  0.7825600092535084  0.9639635815083026  0.524302451212101  1.0000
  N   N8        1.0  0.2174406744221855  0.036036688369698304  0.47569849412543147  1.0000
  N   N9        1.0  0.9605591086963655  0.868085308974777  0.4174956843437839  1.0000
  N   N10       1.0  0.03944482924098478  0.1319117723884062  0.5825096023738182  1.0000
  O   O1        1.0  0.9653447559602665  0.7515607289231313  0.13098406960064318  1.0000
  O   O2        1.0  0.03463987367022977  0.24843421159171442  0.8690338421642423  1.0000
  O   O3        1.0  0.9097800786237684  0.5746064524226072  0.3125702578584821  1.0000
  O   O4        1.0  0.09019022681881941  0.4253884218690942  0.6874429928774358  1.0000
  O   O5        1.0  0.8381458421072024  0.910661152035615  0.8197385900010516  1.0000
  O   O6        1.0  0.1618601957547483  0.08933587953083588  0.18025555341144178  1.0000
  O   O7        1.0  0.7686225868688936  0.046284819056936016  0.9259098482440393  1.0000
  O   O8        1.0  0.23137536552546575  0.953706839829657  0.07408792339520429  1.0000
  O   O9        1.0  0.8043438823668224  0.0312082403466292  0.1526865298066227  1.0000
  O   O10       1.0  0.1956598287175807  0.9687984478470072  0.8473082791755001  1.0000
