data_image0
_chemical_formula_structural       Cs4H8C4O12
_chemical_formula_sum              "Cs4 H8 C4 O12"
_cell_length_a       6.22668406851803
_cell_length_b       6.134345093793033
_cell_length_c       11.001036836594075
_cell_angle_alpha    90.00117903313237
_cell_angle_beta     89.99950750258559
_cell_angle_gamma    110.74440313905592

_space_group_name_H-M_alt    "P 1"
_space_group_IT_number       1

loop_
  _space_group_symop_operation_xyz
  'x, y, z'

loop_
  _atom_site_type_symbol
  _atom_site_label
  _atom_site_symmetry_multiplicity
  _atom_site_fract_x
  _atom_site_fract_y
  _atom_site_fract_z
  _atom_site_occupancy
  Cs  Cs1       1.0  0.19878136257832302  0.8808160111621031  0.11458553179136288  1.0000
  Cs  Cs2       1.0  0.3012222736683867  0.11919072047957258  0.614587451165221  1.0000
  Cs  Cs3       1.0  0.8012355542113241  0.11919574229051479  0.8854143122479812  1.0000
  Cs  Cs4       1.0  0.6987595034941448  0.8807955308788136  0.3854160288376676  1.0000
  H   H1        1.0  0.8827193343439601  0.33153365388394446  0.145147819902725  1.0000
  H   H2        1.0  0.6172846856654246  0.6684890965151807  0.6451496335029745  1.0000
  H   H3        1.0  0.11727409200720015  0.6684927597471457  0.8548502062681536  1.0000
  H   H4        1.0  0.38271683610080487  0.3314984184582883  0.3548465744160083  1.0000
  H   H5        1.0  0.07391265537793146  0.3397996868798215  0.240952673087115  1.0000
  H   H6        1.0  0.4260893888462646  0.6601993757169565  0.7409501244325442  1.0000
  H   H7        1.0  0.926098196707251  0.6602087008439523  0.7590453529377612  1.0000
  H   H8        1.0  0.5739077421868471  0.3398023204800109  0.2590451745728188  1.0000
  C   C1        1.0  0.07354749558147225  0.5240123772747793  0.4399267851497726  1.0000
  C   C2        1.0  0.42644446418313453  0.4759678034771396  0.9399421372326487  1.0000
  C   C3        1.0  0.9264408676981118  0.47595260194163547  0.560061241626812  1.0000
  C   C4        1.0  0.5735543408203796  0.5240514396887404  0.06005497987879949  1.0000
  O   O1        1.0  0.13644610249506428  0.7246293332679768  0.3940211872054746  1.0000
  O   O2        1.0  0.36354216510897425  0.27535630328665656  0.8940318441282145  1.0000
  O   O3        1.0  0.8635352493192983  0.2753340630023969  0.6059732026161982  1.0000
  O   O4        1.0  0.6364652429831777  0.7246644832425702  0.1059770900385146  1.0000
  O   O5        1.0  0.1172110504220498  0.3495638009323017  0.39703245429289785  1.0000
  O   O6        1.0  0.38277932400066544  0.6503972679473333  0.8970400095172124  1.0000
  O   O7        1.0  0.8827819094055657  0.6504309643681336  0.6029664807043674  1.0000
  O   O8        1.0  0.6172323924926459  0.3495917505415135  0.10297165147376572  1.0000
  O   O9        1.0  0.03286010227214577  0.31109704443420577  0.1535199443933806  1.0000
  O   O10       1.0  0.46715941110821996  0.6889195020443494  0.6535338795194434  1.0000
  O   O11       1.0  0.9671931615905435  0.6889261097674787  0.8464798996201068  1.0000
  O   O12       1.0  0.5328048991505484  0.31107598187923446  0.3464741456056757  1.0000
