data_image0
_chemical_formula_structural       Gd2Cu2H26C30N4O26
_chemical_formula_sum              "Gd2 Cu2 H26 C30 N4 O26"
_cell_length_a       8.12402245880973
_cell_length_b       10.53733535192313
_cell_length_c       12.137640864570669
_cell_angle_alpha    100.38461099799693
_cell_angle_beta     105.70694249712388
_cell_angle_gamma    102.5124255984365

_space_group_name_H-M_alt    "P 1"
_space_group_IT_number       1

loop_
  _space_group_symop_operation_xyz
  'x, y, z'

loop_
  _atom_site_type_symbol
  _atom_site_label
  _atom_site_symmetry_multiplicity
  _atom_site_fract_x
  _atom_site_fract_y
  _atom_site_fract_z
  _atom_site_occupancy
  Gd  Gd1       1.0  0.9952851634601244  0.16497587839452882  0.9220106191473433  1.0000
  Gd  Gd2       1.0  0.004711789988377313  0.8350239603115668  0.07798879486077939  1.0000
  Cu  Cu1       1.0  0.032278505829246795  0.7318870151323509  0.5468751740083632  1.0000
  Cu  Cu2       1.0  0.9677221535589028  0.2681088360033215  0.45312101241894714  1.0000
  H   H1        1.0  0.7896123301713729  0.29625129597227573  0.058274669729428276  1.0000
  H   H2        1.0  0.21038623325559058  0.7037495322037158  0.9417268564067599  1.0000
  H   H3        1.0  0.8332362181990334  0.1854743158739325  0.13124769479452422  1.0000
  H   H4        1.0  0.1667603206850217  0.8145245018811806  0.8687531253825113  1.0000
  H   H5        1.0  0.5998341871326075  0.8290170932226884  0.8601627068189969  1.0000
  H   H6        1.0  0.4001600634121303  0.1709826894324422  0.13984195208322348  1.0000
  H   H7        1.0  0.22769635035143668  0.4379753884052919  0.03399293524654469  1.0000
  H   H8        1.0  0.7723022338805807  0.5620254477049046  0.9660077721237741  1.0000
  H   H9        1.0  0.1618267757100895  0.3933295046307137  0.13749029976329297  1.0000
  H   H10       1.0  0.8381716279457123  0.6066743385372176  0.8625116772278858  1.0000
  H   H11       1.0  0.8369895127156468  0.3601134320453879  0.8013208386112041  1.0000
  H   H12       1.0  0.16300688720228612  0.6398884086358835  0.19867961365495287  1.0000
  H   H13       1.0  0.6846755260182178  0.23552364245907845  0.7991064503488019  1.0000
  H   H14       1.0  0.3153195277176551  0.7644742334314145  0.20088734510494521  1.0000
  H   H15       1.0  0.4863313122230934  0.027842501544206803  0.6968822333217731  1.0000
  H   H16       1.0  0.5136712676827246  0.9721553203412799  0.30311875289405077  1.0000
  H   H17       1.0  0.5498683509225089  0.1388352299866256  0.5414280358607257  1.0000
  H   H18       1.0  0.45013550761753157  0.8611625921546134  0.4585731935885916  1.0000
  H   H19       1.0  0.31444247044039747  0.2364695584008487  0.42935378494950527  1.0000
  H   H20       1.0  0.6855643183224203  0.7635292693344411  0.5706481623296327  1.0000
  H   H21       1.0  0.5062456621693627  0.4558724609515751  0.78318053133696  1.0000
  H   H22       1.0  0.49375744145884676  0.5441303622883565  0.21682382475711384  1.0000
  H   H23       1.0  0.5876928811583043  0.5634141908220228  0.6304113976596141  1.0000
  H   H24       1.0  0.41230714147909  0.43658363055197913  0.36958910208920764  1.0000
  H   H25       1.0  0.3717190817166482  0.6722402745150903  0.5165012998949904  1.0000
  H   H26       1.0  0.6282779015400237  0.32775256086139853  0.4834937059768477  1.0000
  C   C1        1.0  0.7079546922183511  0.919165498491303  0.8704005550841386  1.0000
  C   C2        1.0  0.2920396831566734  0.0808343317690969  0.12959919122285868  1.0000
  C   C3        1.0  0.2020773330922694  0.0019079003410241002  0.7703402858705317  1.0000
  C   C4        1.0  0.7979239681793402  0.9980899212887235  0.22966045711179106  1.0000
  C   C5        1.0  0.2345936170276275  0.07211198773421762  0.6765372915138245  1.0000
  C   C6        1.0  0.7654045734449895  0.9278878353592075  0.32346400325953784  1.0000
  C   C7        1.0  0.3918440772846239  0.0743369033516501  0.6487880545704385  1.0000
  C   C8        1.0  0.6081566704564236  0.9256629202532664  0.3512137266699184  1.0000
  C   C9        1.0  0.4266477620920881  0.13568300505340153  0.5619742123582085  1.0000
  C   C10       1.0  0.5733568215516056  0.8643168193187588  0.4380282985826368  1.0000
  C   C11       1.0  0.3004250988546033  0.19078897674690154  0.5010759306377963  1.0000
  C   C12       1.0  0.6995802306977907  0.8092128577903849  0.4989270430287077  1.0000
  C   C13       1.0  0.11534335658374321  0.1312291055514976  0.6129300716215056  1.0000
  C   C14       1.0  0.8846583800573599  0.8687697449634443  0.38706844642603494  1.0000
  C   C15       1.0  0.9379207936163283  0.13474527315670307  0.6273016308719191  1.0000
  C   C16       1.0  0.062081709738521416  0.8652555954575762  0.3726965311354036  1.0000
  C   C17       1.0  0.2120337940546192  0.4474651874145933  0.8491911427828  1.0000
  C   C18       1.0  0.7879660480065593  0.5525356410171368  0.15081062658688876  1.0000
  C   C19       1.0  0.2523480753954459  0.500074037103758  0.7490620208991032  1.0000
  C   C20       1.0  0.7476534598643951  0.4999278125347146  0.25093858553516657  1.0000
  C   C21       1.0  0.4151538183503903  0.5005630595373773  0.7300652268759221  1.0000
  C   C22       1.0  0.5848464174701891  0.4994387819111381  0.26993595509072316  1.0000
  C   C23       1.0  0.4607385328555296  0.5606859924603925  0.6454428560764001  1.0000
  C   C24       1.0  0.5392622773006578  0.43931385494715863  0.3545564688663418  1.0000
  C   C25       1.0  0.3438336160805022  0.6219048861173774  0.582947612261421  1.0000
  C   C26       1.0  0.6561673746518936  0.3780919542324312  0.4170504430604609  1.0000
  C   C27       1.0  0.1392514099621849  0.5588670545800695  0.6799642471601856  1.0000
  C   C28       1.0  0.86075307632548  0.4411358085866651  0.32003625833803534  1.0000
  C   C29       1.0  0.957502682432505  0.561958975824176  0.6861636711098171  1.0000
  C   C30       1.0  0.04250048361085131  0.4380438712183974  0.31383822868664873  1.0000
  N   N1        1.0  0.14997759088663543  0.18782024657036092  0.5271246221075288  1.0000
  N   N2        1.0  0.8500248708581212  0.8121806061755024  0.4728751774315398  1.0000
  N   N3        1.0  0.18839159018310161  0.6210644369140111  0.6009017740438125  1.0000
  N   N4        1.0  0.8116092199730859  0.3789354104935327  0.39909755089892945  1.0000
  O   O1        1.0  0.6716717125273632  0.02235760084465  0.8447139006004534  1.0000
  O   O2        1.0  0.32831756911584625  0.9776422363269717  0.15528405400668524  1.0000
  O   O3        1.0  0.8523718276143059  0.22636067547846037  0.06624494985781122  1.0000
  O   O4        1.0  0.14762638366335787  0.7736391555491763  0.9337555261496746  1.0000
  O   O5        1.0  0.8700317091106909  0.9154198630245957  0.9092160806819932  1.0000
  O   O6        1.0  0.12996341217303353  0.08458197740093  0.0907841283506627  1.0000
  O   O7        1.0  0.1983027309360423  0.3597422372652588  0.06932602493288437  1.0000
  O   O8        1.0  0.8016894601249049  0.6402585975662091  0.9306734662699511  1.0000
  O   O9        1.0  0.8003152297732399  0.2969225949660839  0.8472976623692361  1.0000
  O   O10       1.0  0.19967808915387766  0.703074243849251  0.15269893355166883  1.0000
  O   O11       1.0  0.8838475320980878  0.0808448193980666  0.6996943529277148  1.0000
  O   O12       1.0  0.11615074159471558  0.9191550354322046  0.3003036667821704  1.0000
  O   O13       1.0  0.8466133764361814  0.1925302005715608  0.5579477783380326  1.0000
  O   O14       1.0  0.15338639807714574  0.8074666633251439  0.4420475774527405  1.0000
  O   O15       1.0  0.20718983214403147  0.07167999491063169  0.8684558213969494  1.0000
  O   O16       1.0  0.7928050759565083  0.9283178254403808  0.13154370541789  1.0000
  O   O17       1.0  0.18100686833484772  0.8762884789660961  0.7445868971541431  1.0000
  O   O18       1.0  0.8189927047972247  0.1237113840541326  0.2554105470233665  1.0000
  O   O19       1.0  0.8865103920320864  0.49768220134212265  0.7468159035796874  1.0000
  O   O20       1.0  0.11349713363630799  0.5023256478221327  0.2531900957955173  1.0000
  O   O21       1.0  0.8809807980530523  0.6327262933404609  0.6244347805362338  1.0000
  O   O22       1.0  0.11902082042697512  0.36727558803485755  0.3755625508345588  1.0000
  O   O23       1.0  0.25905777437690597  0.5350514268677101  0.9465263820088837  1.0000
  O   O24       1.0  0.740945157678219  0.4649473921661311  0.05347565433563518  1.0000
  O   O25       1.0  0.14404423269177605  0.32225308959376514  0.8293933358217416  1.0000
  O   O26       1.0  0.8559530937110722  0.677747754194904  0.1706063095492141  1.0000
