data_image0
_chemical_formula_structural       Zn2H32C34N12Cl2O4
_chemical_formula_sum              "Zn2 H32 C34 N12 Cl2 O4"
_cell_length_a       8.923034860655338
_cell_length_b       8.87198680559676
_cell_length_c       11.732953454221931
_cell_angle_alpha    99.87649138988807
_cell_angle_beta     106.63610961574443
_cell_angle_gamma    91.94611885905155

_space_group_name_H-M_alt    "P 1"
_space_group_IT_number       1

loop_
  _space_group_symop_operation_xyz
  'x, y, z'

loop_
  _atom_site_type_symbol
  _atom_site_label
  _atom_site_symmetry_multiplicity
  _atom_site_fract_x
  _atom_site_fract_y
  _atom_site_fract_z
  _atom_site_occupancy
  Zn  Zn1       1.0  0.03690708256858949  0.665305052911627  0.26938933321557107  1.0000
  Zn  Zn2       1.0  0.9630914375941302  0.33469534006582086  0.7306108915243783  1.0000
  H   H1        1.0  0.5309107830351394  0.5041870010967955  0.21197391290782264  1.0000
  H   H2        1.0  0.4690899720521884  0.49581225272356033  0.7880257887315524  1.0000
  H   H3        1.0  0.5464152103793297  0.6995854560765054  0.2803284641519141  1.0000
  H   H4        1.0  0.4535843746942163  0.3004137934716836  0.7196709867012315  1.0000
  H   H5        1.0  0.5804555142723374  0.30449413511630036  0.3566971149560628  1.0000
  H   H6        1.0  0.4195440708012086  0.6955051144318884  0.6433023358970829  1.0000
  H   H7        1.0  0.48995946842860155  0.7699542726977595  0.46975649511879414  1.0000
  H   H8        1.0  0.5100413917616606  0.2300461288240213  0.5302442311936204  1.0000
  H   H9        1.0  0.08308802177677418  0.6950715186647826  0.5607522964489816  1.0000
  H   H10       1.0  0.9169128322929012  0.30492888370208954  0.4392475763522867  1.0000
  H   H11       1.0  0.22751908359590095  0.0060659558804161  0.3703656008717715  1.0000
  H   H12       1.0  0.7724817704737745  0.9939344464864565  0.629634271929497  1.0000
  H   H13       1.0  0.08296468851548157  0.9475981548942795  0.7529222079048737  1.0000
  H   H14       1.0  0.9170349894198254  0.0524022440455241  0.24707656059901237  1.0000
  H   H15       1.0  0.22903759426529297  0.09663857256962417  0.7667009814138694  1.0000
  H   H16       1.0  0.7709619969288469  0.9033606761334737  0.23329932295042252  1.0000
  H   H17       1.0  0.1490946050839028  0.763384106813582  0.8768441842883024  1.0000
  H   H18       1.0  0.8509048748867016  0.23661399503318137  0.12315424189181097  1.0000
  H   H19       1.0  0.34672419566793183  0.6365974637740875  0.014707007948018715  1.0000
  H   H20       1.0  0.65327528430268  0.36340063807267586  0.9852914182320945  1.0000
  H   H21       1.0  0.6310462943537871  0.6872518174055812  0.03846296399423461  1.0000
  H   H22       1.0  0.3689543678717797  0.3127462870231596  0.9615374199944071  1.0000
  H   H23       1.0  0.5182722503252604  0.9972180223108674  0.7864164774009054  1.0000
  H   H24       1.0  0.4817286221061892  0.0027823775207238993  0.2135859559338016  1.0000
  H   H25       1.0  0.7910384530016473  0.9818723079965109  0.900989415055456  1.0000
  H   H26       1.0  0.2089600610404787  0.018128085826035097  0.0990099561733473  1.0000
  H   H27       1.0  0.8392450307158371  0.8616181371464577  0.011612945732231594  1.0000
  H   H28       1.0  0.1607558294744251  0.13838226437531634  0.9883877805801832  1.0000
  H   H29       1.0  0.8637431448616512  0.5676949572581191  0.9320734325232465  1.0000
  H   H30       1.0  0.1362564402118949  0.4323042922900697  0.06792601832989927  1.0000
  H   H31       1.0  0.8556568303260053  0.619847544032325  0.5801219609058208  1.0000
  H   H32       1.0  0.14434285372989564  0.38015285406238053  0.41987766110921143  1.0000
  C   C1        1.0  0.7624820395198245  0.595134788505419  0.3110429960738302  1.0000
  C   C2        1.0  0.23751765065666325  0.4048656087441883  0.6889574794523483  1.0000
  C   C3        1.0  0.5863842182759812  0.5872232555307875  0.2965512594074511  1.0000
  C   C4        1.0  0.41361546577991964  0.41277714256391806  0.7034483626075813  1.0000
  C   C5        1.0  0.5404065846778038  0.5423276627789659  0.40059728571179676  1.0000
  C   C6        1.0  0.4595929075339883  0.45767043737760804  0.5994028474906159  1.0000
  C   C7        1.0  0.5464201342174207  0.39104545429225357  0.42026704556222677  1.0000
  C   C8        1.0  0.45357945697671914  0.6089537944108441  0.5797332588020652  1.0000
  C   C9        1.0  0.49317828220860366  0.6507923352057573  0.48207188697036674  1.0000
  C   C10       1.0  0.5068213089855362  0.34920691349734057  0.5179284173939322  1.0000
  C   C11       1.0  0.1268354049724252  0.7975665852004283  0.5373503000532622  1.0000
  C   C12       1.0  0.8731643780658233  0.20243496144079387  0.46264949312364934  1.0000
  C   C13       1.0  0.2054457193065744  0.9562317966549259  0.4430662193223185  1.0000
  C   C14       1.0  0.7945551347631011  0.04376860571194639  0.5569336534789429  1.0000
  C   C15       1.0  0.19984489273809905  0.9716103012983548  0.7433324557824577  1.0000
  C   C16       1.0  0.8001559674521701  0.0283901002234259  0.25666827052995694  1.0000
  C   C17       1.0  0.3200049483052396  0.8880746481732088  0.822023741776775  1.0000
  C   C18       1.0  0.6799946367683136  0.1119246013749802  0.17797570907637092  1.0000
  C   C19       1.0  0.2731779856877239  0.7850801015727527  0.8855677143842797  1.0000
  C   C20       1.0  0.7268215932652354  0.2149191488205346  0.11443088295771987  1.0000
  C   C21       1.0  0.384717648199704  0.7126847986409642  0.9627562607664758  1.0000
  C   C22       1.0  0.6152817266679663  0.2873121555043809  0.03724114074061191  1.0000
  C   C23       1.0  0.5437880950741061  0.7409198847093349  0.9754269526137024  1.0000
  C   C24       1.0  0.45621140325827275  0.25907821460214825  0.024574034099849512  1.0000
  C   C25       1.0  0.5919666732364278  0.8421401189143861  0.910380601480888  1.0000
  C   C26       1.0  0.4080328189753644  0.15785798124218783  0.08961953172151738  1.0000
  C   C27       1.0  0.4800750167276746  0.916032063279296  0.8348873001161367  1.0000
  C   C28       1.0  0.5199258373420008  0.08396833908757628  0.16511257268513185  1.0000
  C   C29       1.0  0.7636149182083545  0.8697161278385436  0.9211601123931744  1.0000
  C   C30       1.0  0.2363847719681331  0.1302842694110709  0.07884036313300409  1.0000
  C   C31       1.0  0.8520389012143569  0.6133058048621718  0.8503287417258533  1.0000
  C   C32       1.0  0.14796068385918912  0.38669344468601696  0.1496707091272924  1.0000
  C   C33       1.0  0.8502353709371705  0.6455363697474752  0.672953896813638  1.0000
  C   C34       1.0  0.14976431923932407  0.3544640275021393  0.3270465787125403  1.0000
  N   N1        1.0  0.13486642366611787  0.8114965407701359  0.42738117209877663  1.0000
  N   N2        1.0  0.8651344304035576  0.18850386159673602  0.5726187007024919  1.0000
  N   N3        1.0  0.2396150708694051  0.03209646794832109  0.5562478574761229  1.0000
  N   N4        1.0  0.7603857832002633  0.9679039344185509  0.4437520153251384  1.0000
  N   N5        1.0  0.1881029177935147  0.9296324268809285  0.6144650779056207  1.0000
  N   N6        1.0  0.8118967662623859  0.07036797121377696  0.3855345441094117  1.0000
  N   N7        1.0  0.8112238040915686  0.7542553315377559  0.8359340868158114  1.0000
  N   N8        1.0  0.188775886084926  0.24574506571185128  0.16406638871036708  1.0000
  N   N9        1.0  0.8088938887071963  0.7769819717540614  0.7233961037555829  1.0000
  N   N10       1.0  0.19110580146929118  0.22301842549554599  0.2766043717705955  1.0000
  N   N11       1.0  0.8787265108422488  0.5418412748580294  0.7487430191297548  1.0000
  N   N12       1.0  0.12127434934801332  0.45815912666375164  0.2512577071826527  1.0000
  Cl  Cl1       1.0  0.10612832010301082  0.7697621269380973  0.1267144596911578  1.0000
  Cl  Cl2       1.0  0.8938726390696061  0.23023942313019316  0.8732864377831362  1.0000
  O   O1        1.0  0.8035000813195625  0.6520840501784377  0.22805283996484602  1.0000
  O   O2        1.0  0.19649950375399064  0.34791519936975124  0.7719466108882926  1.0000
  O   O3        1.0  0.8590698556533028  0.5487449839445019  0.3954581422300976  1.0000
  O   O4        1.0  0.1409299273849456  0.45125656269672015  0.6045416509468212  1.0000
