data_image0
_chemical_formula_structural       Zn2H48C60N4O8
_chemical_formula_sum              "Zn2 H48 C60 N4 O8"
_cell_length_a       9.363003883962078
_cell_length_b       9.815260326004148
_cell_length_c       14.496
_cell_angle_alpha    106.95441741641841
_cell_angle_beta     97.40548171291461
_cell_angle_gamma    102.0088695452856

_space_group_name_H-M_alt    "P 1"
_space_group_IT_number       1

loop_
  _space_group_symop_operation_xyz
  'x, y, z'

loop_
  _atom_site_type_symbol
  _atom_site_label
  _atom_site_symmetry_multiplicity
  _atom_site_fract_x
  _atom_site_fract_y
  _atom_site_fract_z
  _atom_site_occupancy
  Zn  Zn1       1.0  0.0827217204130051  0.6136793711823003  0.909734680345835  1.0000
  Zn  Zn2       1.0  0.9172795322156019  0.386319813455941  0.09026581481951716  1.0000
  H   H1        1.0  0.4096672469417939  0.7792836012219482  0.005258059504065166  1.0000
  H   H2        1.0  0.5903307746361648  0.2207155834162933  0.994741476828615  1.0000
  H   H3        1.0  0.5492219172581088  0.0232268930942681  0.1294890285439791  1.0000
  H   H4        1.0  0.45077639308706097  0.9767733942782968  0.8705121292546775  1.0000
  H   H5        1.0  0.12328687411167749  0.12481629281461439  0.14994802241530175  1.0000
  H   H6        1.0  0.8767102811646551  0.8751795836206495  0.8500535479742053  1.0000
  H   H7        1.0  0.0051653324672358124  0.8767620073774864  0.02653237544841856  1.0000
  H   H8        1.0  0.9948321115763078  0.1232349717921011  0.9734694367161151  1.0000
  H   H9        1.0  0.5515194506096391  0.254955484217561  0.2416340743211619  1.0000
  H   H10       1.0  0.44847857096831933  0.7450437004206805  0.7583661518569967  1.0000
  H   H11       1.0  0.2441183863505145  0.3223038804023091  0.2535487256009786  1.0000
  H   H12       1.0  0.7558782694433505  0.6776942015016019  0.7464518589852317  1.0000
  H   H13       1.0  0.6676715945800068  0.45531900292569816  0.3496487208430209  1.0000
  H   H14       1.0  0.3323280815492566  0.5446823871811901  0.6503513887021056  1.0000
  H   H15       1.0  0.7864548546096373  0.6906171450600594  0.4815586745488928  1.0000
  H   H16       1.0  0.21354589853650902  0.3093842450468358  0.5184387652767342  1.0000
  H   H17       1.0  0.3569710766729628  0.7807811144357331  0.4976692344873894  1.0000
  H   H18       1.0  0.6430293877059725  0.2192191729368318  0.5023321026360604  1.0000
  H   H19       1.0  0.23663064048034949  0.5425265415751852  0.3652500916421743  1.0000
  H   H20       1.0  0.763368746881703  0.4574737457973796  0.6347497761279257  1.0000
  H   H21       1.0  0.5688539308168145  0.9492700974704249  0.6115203579001757  1.0000
  H   H22       1.0  0.4311454565452379  0.05073018990214  0.38847882002445283  1.0000
  H   H23       1.0  0.8685249055976597  0.9318424841930266  0.5488100646876217  1.0000
  H   H24       1.0  0.13147671385011248  0.068162214116839  0.4511887903085422  1.0000
  H   H25       1.0  0.0629862733882334  0.1615461677224559  0.6144236491180166  1.0000
  H   H26       1.0  0.9370155567747885  0.8384552223844324  0.3855773295973818  1.0000
  H   H27       1.0  0.16540891568922692  0.41249100719881676  0.7389702277009034  1.0000
  H   H28       1.0  0.8345921262241303  0.5875114856423949  0.2610295234361643  1.0000
  H   H29       1.0  0.7884245157342632  0.37760600681723827  0.860353186324893  1.0000
  H   H30       1.0  0.21157875826480677  0.622400896961274  0.13964624188371735  1.0000
  H   H31       1.0  0.669006035599935  0.1288842797407312  0.7422471748814914  1.0000
  H   H32       1.0  0.3309929303316109  0.8711226240377883  0.2577512048320542  1.0000
  H   H33       1.0  0.2948821282015786  0.973921723313012  0.6098170639987898  1.0000
  H   H34       1.0  0.7051197019614434  0.0260796667938763  0.39018322487113  1.0000
  H   H35       1.0  0.4633550522142755  0.22687766282619748  0.6796333621591655  1.0000
  H   H36       1.0  0.536644335147777  0.7731226245463674  0.3203685751473556  1.0000
  H   H37       1.0  0.4715471528313913  0.382238593717922  0.8501256284947586  1.0000
  H   H38       1.0  0.5284519457634502  0.6177605909203194  0.14987468734579315  1.0000
  H   H39       1.0  0.14922256838806897  0.027571666336044097  0.8848343480920845  1.0000
  H   H40       1.0  0.850777817938912  0.9724242100992199  0.11516473190272333  1.0000
  H   H41       1.0  0.987749240703998  0.838363695435433  0.6822235450709399  1.0000
  H   H42       1.0  0.012253088941491795  0.1616354892028085  0.3177756600658553  1.0000
  H   H43       1.0  0.13201347825707893  0.7728226808098808  0.6287558656331524  1.0000
  H   H44       1.0  0.8679905059397085  0.2271787092970072  0.3712446025615676  1.0000
  H   H45       1.0  0.43278281283454584  0.3792060743232852  0.015695394691029173  1.0000
  H   H46       1.0  0.5672181510268501  0.6207920075806328  0.9843055485447748  1.0000
  H   H47       1.0  0.28704094983692124  0.2410301551573895  0.028635953333484596  1.0000
  H   H48       1.0  0.7129616685757724  0.7589701322151825  0.9713662529602372  1.0000
  C   C1        1.0  0.351754878194896  0.8597269675199043  0.039689567268325676  1.0000
  C   C2        1.0  0.6482442203999452  0.140272217118337  0.960310748572226  1.0000
  C   C3        1.0  0.4281368420156824  0.9953610840659338  0.10885035354792896  1.0000
  C   C4        1.0  0.571860602027854  0.0046358951036538  0.8911500789256547  1.0000
  C   C5        1.0  0.3491955973952301  0.0959731738014753  0.15254675899672776  1.0000
  C   C6        1.0  0.6508018466483136  0.9040238053681122  0.847455053167806  1.0000
  C   C7        1.0  0.19267116366010836  0.0523048945186986  0.12120618775627885  1.0000
  C   C8        1.0  0.8073262803834351  0.9476920846508888  0.8787963142537334  1.0000
  C   C9        1.0  0.1255488954314643  0.9153202157967186  0.05183672263283507  1.0000
  C   C10       1.0  0.8744485486120722  0.0846767633728689  0.9481643996862201  1.0000
  C   C11       1.0  0.430296230052832  0.2365519510622534  0.2258892012431558  1.0000
  C   C12       1.0  0.5697015027579155  0.7634461308416647  0.7741114730054475  1.0000
  C   C13       1.0  0.36533655074265425  0.3413955197766185  0.27217462934966347  1.0000
  C   C14       1.0  0.6346614708353043  0.6586036648616158  0.7278249069830165  1.0000
  C   C15       1.0  0.4424974309541199  0.4811968693380422  0.3475355813449851  1.0000
  C   C16       1.0  0.5575022451751436  0.5188045207688461  0.6524638383546629  1.0000
  C   C17       1.0  0.5990226477122746  0.526431031362776  0.381807504055473  1.0000
  C   C18       1.0  0.40097673964977787  0.4735692560097887  0.6181916738691554  1.0000
  C   C19       1.0  0.6658828576293985  0.6597913097299895  0.45536128611680465  1.0000
  C   C20       1.0  0.3341192613008346  0.3402111831112222  0.5446385546826632  1.0000
  C   C21       1.0  0.5808129554565156  0.7552980269118521  0.49836419975351015  1.0000
  C   C22       1.0  0.4191877976896308  0.2447033631950362  0.5016346197630596  1.0000
  C   C23       1.0  0.4248394426461317  0.7089379731409693  0.4653059380212027  1.0000
  C   C24       1.0  0.5751613105000146  0.2910634169659261  0.5346935713408455  1.0000
  C   C25       1.0  0.3574385004331404  0.5758324264029041  0.3910137829758184  1.0000
  C   C26       1.0  0.642560886928912  0.4241678609696606  0.6089853949488102  1.0000
  C   C27       1.0  0.6468509738954893  0.8991486169158591  0.5719596157343998  1.0000
  C   C28       1.0  0.35314762521689147  0.1008527731910291  0.4280383346119051  1.0000
  C   C29       1.0  0.7913781045996515  0.977030331376099  0.5918548611302156  1.0000
  C   C30       1.0  0.2086218602968231  0.0229721614651197  0.4081420409625522  1.0000
  C   C31       1.0  0.853723340934799  0.1225556874477007  0.6646494437020107  1.0000
  C   C32       1.0  0.14628014377952775  0.8774479081278413  0.3353486589984555  1.0000
  C   C33       1.0  0.9963336721395137  0.2062664555515923  0.6662217675826057  1.0000
  C   C34       1.0  0.003666792239421601  0.7937338318209726  0.33377956954084437  1.0000
  C   C35       1.0  0.0551920018965149  0.3454866641235697  0.7357153825777515  1.0000
  C   C36       1.0  0.9448114828178119  0.6545169314519725  0.2642847896591363  1.0000
  C   C37       1.0  0.8441745173052624  0.3266982766887239  0.8033243008077732  1.0000
  C   C38       1.0  0.1558278903921817  0.6733053188868183  0.1966744020757715  1.0000
  C   C39       1.0  0.7780434378033404  0.187250904845726  0.7365439195440115  1.0000
  C   C40       1.0  0.2219543730593685  0.8127515879954856  0.2634541829149199  1.0000
  C   C41       1.0  0.20815425187578274  0.9838419213036146  0.7419728706495972  1.0000
  C   C42       1.0  0.7918475002352848  0.0161550578659728  0.2580279204735802  1.0000
  C   C43       1.0  0.2989818581609782  0.0410128950274  0.6853725502900118  1.0000
  C   C44       1.0  0.7010204714845115  0.9589862896108413  0.3146287243832118  1.0000
  C   C45       1.0  0.3933861888769883  0.1834850671247494  0.7242933777660026  1.0000
  C   C46       1.0  0.6066107556840947  0.8165141175134849  0.27570882828617727  1.0000
  C   C47       1.0  0.3986581035356451  0.2706242362460713  0.8201808656263125  1.0000
  C   C48       1.0  0.6013409950591964  0.7293749483921701  0.17981945021423934  1.0000
  C   C49       1.0  0.3108081884091405  0.2153849656876829  0.8790698500302552  1.0000
  C   C50       1.0  0.6891927754522555  0.784613116216228  0.12093178305102004  1.0000
  C   C51       1.0  0.21626058227575123  0.07233275533521069  0.8390450551539174  1.0000
  C   C52       1.0  0.7837408810681055  0.9276631211000533  0.16095549419424054  1.0000
  C   C53       1.0  0.10339835075529888  0.8305761856300008  0.6983123893309225  1.0000
  C   C54       1.0  0.8966039788901838  0.16942299900824048  0.3016875056513512  1.0000
  C   C55       1.0  0.11221818703918975  0.7384647874358022  0.7668029547382955  1.0000
  C   C56       1.0  0.887782488054995  0.2615321917337852  0.23319498734058183  1.0000
  C   C57       1.0  0.3184006026928188  0.3098926055708091  0.9834300673240504  1.0000
  C   C58       1.0  0.6816003611685771  0.6901054763331089  0.016570875911753477  1.0000
  C   C59       1.0  0.21317561086056  0.41096482289257347  0.9861174851237917  1.0000
  C   C60       1.0  0.786825641768047  0.5890343617456679  0.013883010041560305  1.0000
  N   N1        1.0  0.20229202722974546  0.8188044967071803  0.011706548736348977  1.0000
  N   N2        1.0  0.7977057055810022  0.1811935851967306  0.988293435666783  1.0000
  N   N3        1.0  0.9804134432824937  0.4058569574976829  0.8034929152028523  1.0000
  N   N4        1.0  0.0195873098636454  0.5941444326092125  0.19650728400467432  1.0000
  O   O1        1.0  0.2211523053617057  0.683263009844481  0.7756613568336304  1.0000
  O   O2        1.0  0.778845427449042  0.31673507205943  0.22433586818760173  1.0000
  O   O3        1.0  0.006547861824607495  0.7241523986274458  0.8145803695904732  1.0000
  O   O4        1.0  0.9934503704686077  0.2758434778078183  0.185416461543113  1.0000
  O   O5        1.0  0.09417738888532767  0.3775817466620808  0.016461888072619463  1.0000
  O   O6        1.0  0.9058235749760682  0.6224163352418302  0.9835376754722345  1.0000
  O   O7        1.0  0.2515076792538196  0.5198201390824693  0.9555013718229686  1.0000
  O   O8        1.0  0.7484960161757641  0.4801801482900956  0.0445009241331533  1.0000
