data_image0
_chemical_formula_structural       Zn2H20C8N4O20
_chemical_formula_sum              "Zn2 H20 C8 N4 O20"
_cell_length_a       7.18842647020446
_cell_length_b       7.791639585562059
_cell_length_c       9.842815054455086
_cell_angle_alpha    90.85058189264167
_cell_angle_beta     89.97282574029934
_cell_angle_gamma    117.49993570949006

_space_group_name_H-M_alt    "P 1"
_space_group_IT_number       1

loop_
  _space_group_symop_operation_xyz
  'x, y, z'

loop_
  _atom_site_type_symbol
  _atom_site_label
  _atom_site_symmetry_multiplicity
  _atom_site_fract_x
  _atom_site_fract_y
  _atom_site_fract_z
  _atom_site_occupancy
  Zn  Zn1       1.0  0.8133584937812657  0.999983433451817  0.749992290727981  1.0000
  Zn  Zn2       1.0  0.18663977183592806  1.625440168599999e-05  0.2500081464529273  1.0000
  H   H1        1.0  0.4700570100820512  0.6526394870985468  0.7390836877603206  1.0000
  H   H2        1.0  0.8178498293789712  0.34747815522688785  0.7610017594977094  1.0000
  H   H3        1.0  0.5299468803095593  0.34736310019650324  0.26091373627841824  1.0000
  H   H4        1.0  0.1821491026393716  0.6525200845266498  0.23899967568481634  1.0000
  H   H5        1.0  0.8860168547239126  0.11830930370176419  0.48010992590690194  1.0000
  H   H6        1.0  0.7675712030000807  0.8816925093010538  0.019995936412982505  1.0000
  H   H7        1.0  0.1139849174171558  0.8816918320090038  0.5198905285143313  1.0000
  H   H8        1.0  0.23242845392983463  0.11830717892731707  0.9800045005308036  1.0000
  H   H9        1.0  0.31639967265805075  0.6645480727323446  0.523160380802274  1.0000
  H   H10       1.0  0.6523370449624792  0.3354748496821499  0.977011866047107  1.0000
  H   H11       1.0  0.6836021579934338  0.33545595955322227  0.476838077378595  1.0000
  H   H12       1.0  0.34766049574314895  0.6645233896965265  0.022989569372541006  1.0000
  H   H13       1.0  0.572135410449327  0.6777321890045228  0.5111538979213821  1.0000
  H   H14       1.0  0.8948055949947856  0.3221947288615894  0.9890626777172713  1.0000
  H   H15       1.0  0.4278656932643229  0.3222703920716227  0.488847590404852  1.0000
  H   H16       1.0  0.1051926696092734  0.6778049576246232  0.010938775416946102  1.0000
  H   H17       1.0  0.588145242274521  0.9380204218396384  0.37758506220347954  1.0000
  H   H18       1.0  0.649864754281296  0.06183338496317958  0.1224895857637378  1.0000
  H   H19       1.0  0.41185653087967466  0.061980715238419685  0.6224143762644376  1.0000
  H   H20       1.0  0.35013417672391245  0.9381648534230677  0.8775128653721044  1.0000
  C   C1        1.0  0.4831249623947044  0.7512239615010898  0.548951037672559  1.0000
  C   C2        1.0  0.7322937301731686  0.24876700347640926  0.9512013211449714  1.0000
  C   C3        1.0  0.516874029147189  0.24877717619453674  0.45104738531628646  1.0000
  C   C4        1.0  0.26770381053245257  0.7512312359022599  0.0488001142746768  1.0000
  C   C5        1.0  0.5707630605859464  0.9513732180830486  0.4877477066740994  1.0000
  C   C6        1.0  0.6194068761801714  0.048584935891511784  0.012309108806313404  1.0000
  C   C7        1.0  0.42924155167783334  0.048630813584949785  0.5122517669858341  1.0000
  C   C8        1.0  0.38059066351232207  0.9514133021198674  0.9876933425666509  1.0000
  N   N1        1.0  0.9247465044557543  0.6878333860021824  0.7278483793568071  1.0000
  N   N2        1.0  0.23716579309122912  0.3121638431832777  0.7719984028057925  1.0000
  N   N3        1.0  0.07525176014830487  0.3121663004840229  0.2721530737774104  1.0000
  N   N4        1.0  0.7628359276313359  0.6878344055237378  0.2279969361826133  1.0000
  O   O1        1.0  0.5086040357232519  0.7791759897555365  0.694838056331662  1.0000
  O   O2        1.0  0.7300166431589827  0.22091669956846252  0.805328796682261  1.0000
  O   O3        1.0  0.4913928406074888  0.2208237004576858  0.3051603491797366  1.0000
  O   O4        1.0  0.2699816204319416  0.7790829855504596  0.1946736724052727  1.0000
  O   O5        1.0  0.7719324703013086  0.07353206999743378  0.5489400253127528  1.0000
  O   O6        1.0  0.6983922428844236  0.926426330625361  0.951138178610819  1.0000
  O   O7        1.0  0.22806930183975274  0.9264690657133343  0.45106042910847327  1.0000
  O   O8        1.0  0.30160529883433185  0.07357191012060578  0.0488622408555202  1.0000
  O   O9        1.0  0.9529546499390305  0.8364534712367798  0.6543252777342445  1.0000
  O   O10       1.0  0.11684734859184687  0.16330784982262964  0.8454167478695922  1.0000
  O   O11       1.0  0.047040778594841  0.16354332476136343  0.34567309234802224  1.0000
  O   O12       1.0  0.8831537047164415  0.8366918456170608  0.154578609070505  1.0000
  O   O13       1.0  0.8642102566708869  0.6811194984047615  0.8470052854717879  1.0000
  O   O14       1.0  0.18312824010352094  0.319143318036211  0.6529835467831191  1.0000
  O   O15       1.0  0.13579079055860882  0.31888018883118  0.152996167188185  1.0000
  O   O16       1.0  0.8168769871429189  0.6808563785280696  0.3470118094456112  1.0000
  O   O17       1.0  0.9589818565393811  0.5581992848944849  0.6735265983847825  1.0000
  O   O18       1.0  0.4012224211051885  0.4417776504396612  0.8262316336522986  1.0000
  O   O19       1.0  0.0410185242889654  0.4418018504414221  0.32647385627357295  1.0000
  O   O20       1.0  0.5987828061412513  0.5582220461246264  0.17376372257643882  1.0000
