data_image0
_chemical_formula_structural       Zn2H48C60N8O8
_chemical_formula_sum              "Zn2 H48 C60 N8 O8"
_cell_length_a       9.250575216
_cell_length_b       10.937899167549666
_cell_length_c       16.192
_cell_angle_alpha    107.66298760729178
_cell_angle_beta     90.0
_cell_angle_gamma    115.01561593675234

_space_group_name_H-M_alt    "P 1"
_space_group_IT_number       1

loop_
  _space_group_symop_operation_xyz
  'x, y, z'

loop_
  _atom_site_type_symbol
  _atom_site_label
  _atom_site_symmetry_multiplicity
  _atom_site_fract_x
  _atom_site_fract_y
  _atom_site_fract_z
  _atom_site_occupancy
  Zn  Zn1       1.0  0.221960673653264  0.9999905591470793  0.7500413579644203  1.0000
  Zn  Zn2       1.0  0.778039678841985  9.6362547524e-06  0.24995874384449476  1.0000
  H   H1        1.0  0.4661219124624552  0.1063564143824749  0.5440415301746668  1.0000
  H   H2        1.0  0.3596922704962537  0.8934703284338356  0.9560267753186834  1.0000
  H   H3        1.0  0.5338779046887865  0.8936427103243858  0.45595896977098244  1.0000
  H   H4        1.0  0.6403091630128515  0.1065298669679962  0.04397332649023869  1.0000
  H   H5        1.0  0.6518768116562015  0.2065734637935535  0.4442765495021206  1.0000
  H   H6        1.0  0.4455475271658003  0.7933614192149676  0.05572251750130159  1.0000
  H   H7        1.0  0.34812354083904745  0.7934267316082781  0.5557235523068016  1.0000
  H   H8        1.0  0.5544528253294487  0.206638776186864  0.9442775843076205  1.0000
  H   H9        1.0  0.9998295050297797  0.5257519178281669  0.6694651496445232  1.0000
  H   H10       1.0  0.474327194164232  0.47427183286306024  0.8304638166740401  1.0000
  H   H11       1.0  0.00016976645161286414  0.47424827757366467  0.3305343345754608  1.0000
  H   H12       1.0  0.525673158331017  0.5257283625387715  0.16953628513487473  1.0000
  H   H13       1.0  0.8146426037878882  0.423196470597496  0.7672630749747993  1.0000
  H   H14       1.0  0.39147891272562413  0.5768187145339496  0.7327172483743993  1.0000
  H   H15       1.0  0.185358829721217  0.5768037248043356  0.23273702683412267  1.0000
  H   H16       1.0  0.6085214397696248  0.42318148086788204  0.2672822358455917  1.0000
  H   H17       1.0  0.8948314626594109  0.3673061930413226  0.41996774922566965  1.0000
  H   H18       1.0  0.5274488135969263  0.6326447503917834  0.08003522714967198  1.0000
  H   H19       1.0  0.10516835449183051  0.6326929316655381  0.5800321331310485  1.0000
  H   H20       1.0  0.47255153889832247  0.3673554450100482  0.9199648746592501  1.0000
  H   H21       1.0  0.16811338739208986  0.240872106537509  0.7321982796716568  1.0000
  H   H22       1.0  0.9272365700432986  0.7589332223793548  0.7678082010069573  1.0000
  H   H23       1.0  0.831886965103159  0.7591280888643226  0.26780182213726517  1.0000
  H   H24       1.0  0.07276378245195049  0.2410669730224768  0.2321919008019577  1.0000
  H   H25       1.0  0.10502645700579188  0.3683287067399021  0.7966200138229809  1.0000
  H   H26       1.0  0.7366810498344663  0.6314445013277918  0.7033483862540848  1.0000
  H   H27       1.0  0.8949744411593058  0.6316704179669586  0.20337986853373735  1.0000
  H   H28       1.0  0.2633198380047901  0.3685567647690107  0.2966525525959653  1.0000
  H   H29       1.0  0.9596167794542225  0.1906179673157382  0.738111015911997  1.0000
  H   H30       1.0  0.7690004341521046  0.8091563114469338  0.7618606915619353  1.0000
  H   H31       1.0  0.040382492027170334  0.8093822280861006  0.2618890858969252  1.0000
  H   H32       1.0  0.23100098903116617  0.1908460253448467  0.2381398491513878  1.0000
  H   H33       1.0  0.1853513475510624  0.0259697065541218  0.9469378081519364  1.0000
  H   H34       1.0  0.15939703571373803  0.9740893770711879  0.5531552676781359  1.0000
  H   H35       1.0  0.8146495402882009  0.9740315595426878  0.053062513109182384  1.0000
  H   H36       1.0  0.8406027814374964  0.0259097476356658  0.4468446146785823  1.0000
  H   H37       1.0  0.08750976577390901  0.22102891661512564  0.0549691167271078  1.0000
  H   H38       1.0  0.8665282547635655  0.7790387325699655  0.4450818659063315  1.0000
  H   H39       1.0  0.912490041051491  0.778972349481684  0.9450312045340111  1.0000
  H   H40       1.0  0.1334704813738199  0.2209603921368952  0.5549180164503866  1.0000
  H   H41       1.0  0.8357714411739039  0.3038439606407479  0.862718160092669  1.0000
  H   H42       1.0  0.5318742191760677  0.6961433864214115  0.6372768379341309  1.0000
  H   H43       1.0  0.16422729496347435  0.6961551640661128  0.13728110467511806  1.0000
  H   H44       1.0  0.46812559797516684  0.3038557382854421  0.3627230444225872  1.0000
  H   H45       1.0  0.2200657477599108  0.4884992276555167  0.0804457324778269  1.0000
  H   H46       1.0  0.7315619216500763  0.5115041798312276  0.4195865247232645  1.0000
  H   H47       1.0  0.7799324427076185  0.5115009677463149  0.919553751742157  1.0000
  H   H48       1.0  0.2684389765150144  0.4884949448756331  0.5804133576334607  1.0000
  C   C1        1.0  0.5167798750162262  0.2007306813294889  0.7222872498389917  1.0000
  C   C2        1.0  0.31605022924141213  0.7992909279717892  0.7777851757965236  1.0000
  C   C3        1.0  0.4832204774790227  0.7992695140723427  0.2777128519699303  1.0000
  C   C4        1.0  0.6839517396117073  0.2007103381250204  0.22221452787566418  1.0000
  C   C5        1.0  0.6276560221853842  0.2597323984752933  0.662004518105995  1.0000
  C   C6        1.0  0.3678768614404078  0.7401928482784754  0.8380216005074743  1.0000
  C   C7        1.0  0.37234433030985764  0.7402677969265383  0.3379955837029271  1.0000
  C   C8        1.0  0.6321229453849925  0.2598084178183271  0.1619787207536447  1.0000
  C   C9        1.0  0.583049413109137  0.1984586665981851  0.5707339981615218  1.0000
  C   C10       1.0  0.38460974503899337  0.8014216109667487  0.9292866089931734  1.0000
  C   C11       1.0  0.41695093938611183  0.8015415288036465  0.4292654860584618  1.0000
  C   C12       1.0  0.6153906074562557  0.19857858443509002  0.0707134928157416  1.0000
  C   C13       1.0  0.6864961511000374  0.2540148873229953  0.5152984289351608  1.0000
  C   C14       1.0  0.4327967573101573  0.7459906615537051  0.984699064601159  1.0000
  C   C15       1.0  0.313502585037341  0.7459842373838654  0.48470083583263346  1.0000
  C   C16       1.0  0.5672035951850845  0.2540095338481336  0.015301037207756002  1.0000
  C   C17       1.0  0.8366454287214893  0.3752486083461406  0.5496113323985554  1.0000
  C   C18       1.0  0.4617652463693958  0.6248158287540306  0.9503593229059604  1.0000
  C   C19       1.0  0.16335492377375968  0.624751587055691  0.4503887694103668  1.0000
  C   C20       1.0  0.5382351061258531  0.375184366647801  0.049641396491892906  1.0000
  C   C21       1.0  0.8824578013485507  0.4343027895455834  0.6413668982897249  1.0000
  C   C22       1.0  0.4484654981550875  0.5657509406048646  0.8585830348248109  1.0000
  C   C23       1.0  0.117542015802691  0.5656963351612774  0.3586323664780622  1.0000
  C   C24       1.0  0.5515359353540177  0.434249254796967  0.14141706698411127  1.0000
  C   C25       1.0  0.7795191948418108  0.3770538000695112  0.6963931371068738  1.0000
  C   C26       1.0  0.4025601207396079  0.6229431832474077  0.8035921017999925  1.0000
  C   C27       1.0  0.2204811576534382  0.6229463953323275  0.30360696470204823  1.0000
  C   C28       1.0  0.5974402317556411  0.3770570121544239  0.1964080000089226  1.0000
  C   C29       1.0  0.9354687764724474  0.4349302167993798  0.4888497462903345  1.0000
  C   C30       1.0  0.500616261989478  0.5650881804169856  0.011147292727706272  1.0000
  C   C31       1.0  0.06453157602280164  0.5650699786024589  0.5111509731075117  1.0000
  C   C32       1.0  0.4993862422076417  0.4349141563747949  0.9888538655745408  1.0000
  C   C33       1.0  0.099761594908756  0.2116924564563121  0.8519605083718389  1.0000
  C   C34       1.0  0.8881108956942753  0.7881888918035855  0.6480634061797232  1.0000
  C   C35       1.0  0.9002387575864931  0.7883077389455195  0.1480395934370762  1.0000
  C   C36       1.0  0.1118894568009736  0.2118113035982461  0.3519366956291989  1.0000
  C   C37       1.0  0.0817033525942037  0.2557247871938202  0.7758428170222516  1.0000
  C   C38       1.0  0.8259882520374761  0.7440291483643762  0.724136455049617  1.0000
  C   C39       1.0  0.9182975352450596  0.7442764789029823  0.22415750423886752  1.0000
  C   C40       1.0  0.1740121004577659  0.2559710470374554  0.275863646759305  1.0000
  C   C41       1.0  0.14893849886806268  0.1003937140815125  0.932929949296053  1.0000
  C   C42       1.0  0.0485362212278844  0.8996899955281634  0.5671650859899415  1.0000
  C   C43       1.0  0.8510618536271862  0.8996064813203191  0.0670701525128621  1.0000
  C   C44       1.0  0.9514630502535084  0.1003101998736682  0.43283439823004943  1.0000
  C   C45       1.0  0.1025203668231711  0.1962187727160511  0.9865137875599146  1.0000
  C   C46       1.0  0.9063239236555916  0.8038595834187632  0.5135486534295098  1.0000
  C   C47       1.0  0.897479440002229  0.8037824933807585  0.013486533701204468  1.0000
  C   C48       1.0  0.0936758934956501  0.1961395412880975  0.4864512289272085  1.0000
  C   C49       1.0  0.03319965415404621  0.3835561306365349  0.96774686833659  1.0000
  C   C50       1.0  0.6496786422202803  0.6164761856144736  0.5322721688169594  1.0000
  C   C51       1.0  0.9667996173273463  0.6164440647653038  0.032251998294462694  1.0000
  C   C52       1.0  0.3503222559448104  0.38352293909238716  0.46772833112869705  1.0000
  C   C53       1.0  0.9114651413148708  0.3908207960238599  0.9214554661329686  1.0000
  C   C54       1.0  0.5206309766638951  0.6091933184126077  0.5785301960644276  1.0000
  C   C55       1.0  0.0885335844966733  0.6091804700729426  0.07854361995028823  1.0000
  C   C56       1.0  0.47936884048733924  0.390805806294253  0.42146968629229775  1.0000
  C   C57       1.0  0.12103454688858048  0.4917627059312153  0.04630051704989308  1.0000
  C   C58       1.0  0.6292894296419433  0.5082396308605652  0.45374016694405117  1.0000
  C   C59       1.0  0.878963643578949  0.5082374894706163  0.9536983495811597  1.0000
  C   C60       1.0  0.3707103875092912  0.4917594938462955  0.5462597154126668  1.0000
  N   N1        1.0  0.1473798886585413  0.1115589212530779  0.8501819590827324  1.0000
  N   N2        1.0  0.03584174793017769  0.8883952342649407  0.6498797290088943  1.0000
  N   N3        1.0  0.8526204638367076  0.8884412741487538  0.1498181427261898  1.0000
  N   N4        1.0  0.9641575235512149  0.1116049611368908  0.3501203728000277  1.0000
  N   N5        1.0  0.07124445831581738  0.2660548522869632  0.93515253255201  1.0000
  N   N6        1.0  0.8052279672734385  0.7339314240802324  0.564875595824958  1.0000
  N   N7        1.0  0.9287558941794313  0.7339453431148684  0.06484756925690499  1.0000
  N   N8        1.0  0.1947718498777959  0.2660677006266283  0.43512428653176727  1.0000
  O   O1        1.0  0.371077479058286  0.1068200253055025  0.6841019679967033  1.0000
  O   O2        1.0  0.2642073093274675  0.8931523320270501  0.8159801256834953  1.0000
  O   O3        1.0  0.628922873436963  0.8931801700963291  0.31589813381221177  1.0000
  O   O4        1.0  0.7357941241816377  0.1068478633747816  0.18401997612542687  1.0000
  O   O5        1.0  0.5651241967256837  0.2418057525533897  0.8025736834913743  1.0000
  O   O6        1.0  0.3234147295122867  0.7583582591792108  0.697499520195727  1.0000
  O   O7        1.0  0.43487615576955824  0.758194442848442  0.1974264183175478  1.0000
  O   O8        1.0  0.6765872393408258  0.2416430069175988  0.30250080106539196  1.0000
