data_image0
_chemical_formula_structural       Zn2H40C42N6O12
_chemical_formula_sum              "Zn2 H40 C42 N6 O12"
_cell_length_a       11.823931210585584
_cell_length_b       15.973587251701428
_cell_length_c       17.069792030159363
_cell_angle_alpha    88.94394377791178
_cell_angle_beta     89.5021168825166
_cell_angle_gamma    89.58691901404092

_space_group_name_H-M_alt    "P 1"
_space_group_IT_number       1

loop_
  _space_group_symop_operation_xyz
  'x, y, z'

loop_
  _atom_site_type_symbol
  _atom_site_label
  _atom_site_symmetry_multiplicity
  _atom_site_fract_x
  _atom_site_fract_y
  _atom_site_fract_z
  _atom_site_occupancy
  Zn  Zn1       1.0  0.5064636564769814  0.5921196988087588  0.5033417973109167  1.0000
  Zn  Zn2       1.0  0.4942472010167123  0.41241871585879863  0.48863270318319973  1.0000
  H   H1        1.0  0.3804354378543167  0.5964055716157404  0.7449684954895162  1.0000
  H   H2        1.0  0.5394427527241846  0.34859527389311046  0.8868575519101114  1.0000
  H   H3        1.0  0.380365346548338  0.6967637828222167  0.3202843225281242  1.0000
  H   H4        1.0  0.35724562758316136  0.7261004565866359  0.21963302219624836  1.0000
  H   H5        1.0  0.534105321905848  0.805109308846447  0.32507667259466194  1.0000
  H   H6        1.0  0.5037847065605163  0.8361551559850967  0.2275975578682505  1.0000
  H   H7        1.0  0.3046547649366643  0.8778639410037813  0.2693490195636201  1.0000
  H   H8        1.0  0.4075751407383663  0.9324919485532562  0.3230581750825793  1.0000
  H   H9        1.0  0.33564860514263734  0.8463380494707877  0.36713645195278133  1.0000
  H   H10       1.0  0.5351687345008076  0.2430509284172189  0.7862000565333106  1.0000
  H   H11       1.0  0.6702531147905904  0.2846204165274387  0.8097642558974557  1.0000
  H   H12       1.0  0.4566025153456437  0.38824744296340435  0.2580706058369842  1.0000
  H   H13       1.0  0.6089117733015287  0.23158520338911612  0.6441471048813625  1.0000
  H   H14       1.0  0.7445270536741547  0.25510902206384867  0.6783536507732393  1.0000
  H   H15       1.0  0.735853338175623  0.125574250375891  0.7695242351596718  1.0000
  H   H16       1.0  0.7218086674977683  0.09975099507312281  0.6695233021448813  1.0000
  H   H17       1.0  0.600557977451821  0.1028145072007405  0.7313239315870206  1.0000
  H   H18       1.0  0.8436250593740199  0.7036947483383855  0.454479410459534  1.0000
  H   H19       1.0  0.8035311876544429  0.8063549878812495  0.4837451471618266  1.0000
  H   H20       1.0  0.7719726519004765  0.7363874154355232  0.3186959810800687  1.0000
  H   H21       1.0  0.7448300939758923  0.8408964242677897  0.3452991120196884  1.0000
  H   H22       1.0  0.9533686534501555  0.8591197523745038  0.3771567852778688  1.0000
  H   H23       1.0  0.6591120362178557  0.13281514455803028  0.401409125356146  1.0000
  H   H24       1.0  0.9344835500439076  0.8299356261366739  0.27838949356311815  1.0000
  H   H25       1.0  0.9795325198608893  0.7542113361120643  0.3489977004743636  1.0000
  H   H26       1.0  0.3878863017094715  0.2494210291753376  0.680858841481367  1.0000
  H   H27       1.0  0.27047161937323244  0.1936682357440063  0.6414782759439532  1.0000
  H   H28       1.0  0.2733043634384487  0.38327314607549573  0.6621560269671534  1.0000
  H   H29       1.0  0.15472031164023292  0.32233441359444026  0.6381616605201756  1.0000
  H   H30       1.0  0.1698739723671991  0.24867431742583795  0.7738063634968172  1.0000
  H   H31       1.0  0.14429153389295377  0.3579338301076192  0.7796630353946553  1.0000
  H   H32       1.0  0.282281857695196  0.3178095216630368  0.7957886907553798  1.0000
  H   H33       1.0  0.6586601055072663  0.8943470683756517  0.466992455073111  1.0000
  H   H34       1.0  0.32393267285502253  0.8754050330242438  0.5676569930570068  1.0000
  H   H35       1.0  0.394815284600341  0.11183334078097573  0.5763821468367923  1.0000
  H   H36       1.0  0.622176962892759  0.289901636954106  0.3969353371990465  1.0000
  H   H37       1.0  0.34033064357227977  0.7169892455759453  0.5555795012989861  1.0000
  H   H38       1.0  0.3564194860543495  0.5815234752039514  0.8913025983495757  1.0000
  H   H39       1.0  0.42418854386222193  0.3827586714020512  0.11290891186505549  1.0000
  H   H40       1.0  0.4692947826096158  0.6496392373815285  0.09785454891367347  1.0000
  C   C1        1.0  0.5012059490658559  0.5165136092847292  0.3462116904132415  1.0000
  C   C2        1.0  0.4910705246616871  0.8942281434760634  0.5181456987157205  1.0000
  C   C3        1.0  0.5942581492338945  0.16180211115901952  0.4376977326000784  1.0000
  C   C4        1.0  0.3997278555737438  0.8454719771165387  0.5444430391434095  1.0000
  C   C5        1.0  0.5734707194236607  0.2474397743954029  0.43460310718991485  1.0000
  C   C6        1.0  0.408512085366759  0.759154689119562  0.5380533391794486  1.0000
  C   C7        1.0  0.7181109830272376  0.47953354946132276  0.505931263384646  1.0000
  C   C8        1.0  0.2806625688760604  0.5110212403695799  0.494165899321402  1.0000
  C   C9        1.0  0.8402720388095446  0.48076934853038006  0.5095331214747176  1.0000
  C   C10       1.0  0.15892795296865364  0.5071742868007334  0.5013255761080019  1.0000
  C   C11       1.0  0.9431692962384233  0.4886797329448882  0.5090311786625817  1.0000
  C   C12       1.0  0.4854689068094941  0.49505945712554217  0.6468035081851937  1.0000
  C   C13       1.0  0.056388961590165806  0.49799201888115624  0.5061152210723279  1.0000
  C   C14       1.0  0.48201559010385614  0.5206573063245017  0.2594810691846163  1.0000
  C   C15       1.0  0.4733254664224091  0.4818842198143329  0.7335564394254703  1.0000
  C   C16       1.0  0.4590005118083695  0.44494047692994343  0.2216003324174309  1.0000
  C   C17       1.0  0.41462651660490474  0.5422300279144994  0.7768344408458461  1.0000
  C   C18       1.0  0.44084297839012987  0.44158482115653913  0.1416786653744566  1.0000
  C   C19       1.0  0.4007768246169263  0.5343029611255902  0.857424964246583  1.0000
  C   C20       1.0  0.4454258308236803  0.516261188349489  0.09680978135148172  1.0000
  C   C21       1.0  0.44845583579282783  0.4644660209372304  0.8962123863962788  1.0000
  C   C22       1.0  0.46483969678956777  0.5923987714025787  0.1335525333714145  1.0000
  C   C23       1.0  0.4846723510744297  0.5953447847594406  0.21397666555238004  1.0000
  C   C24       1.0  0.5035850897341235  0.40132231160173154  0.8539665812729211  1.0000
  C   C25       1.0  0.4203287216934016  0.7240279672209909  0.26711907478922825  1.0000
  C   C26       1.0  0.4655053030574123  0.8109634315200156  0.28211175869893174  1.0000
  C   C27       1.0  0.3732789795352359  0.8701201238334023  0.3120313474973671  1.0000
  C   C28       1.0  0.6101405209006501  0.2755541317314965  0.7614898534685608  1.0000
  C   C29       1.0  0.6639765106942052  0.22575993884462522  0.6956083889999931  1.0000
  C   C30       1.0  0.6815784952743088  0.1335988986411039  0.7178896954279139  1.0000
  C   C31       1.0  0.7862038208992744  0.756527333249153  0.44173451850063833  1.0000
  C   C32       1.0  0.8002418382267747  0.7864895737142136  0.3571354917066714  1.0000
  C   C33       1.0  0.9236226864745163  0.8087365159587422  0.33951075061336417  1.0000
  C   C34       1.0  0.5175922573279551  0.4101096623564898  0.7727378748797165  1.0000
  C   C35       1.0  0.31245490684408855  0.25505067370067275  0.6435450974374248  1.0000
  C   C36       1.0  0.23255937647325453  0.3225286183149052  0.6730349498514272  1.0000
  C   C37       1.0  0.20583824534617173  0.31070809388930354  0.760293100083345  1.0000
  C   C38       1.0  0.42942238477403555  0.23654271959946976  0.5285331742198309  1.0000
  C   C39       1.0  0.5906633583621428  0.7686974743848013  0.4849155838503947  1.0000
  C   C40       1.0  0.4459336969820242  0.1500575843849248  0.5366242102023832  1.0000
  C   C41       1.0  0.588782931164154  0.8561769637249911  0.4884068603021561  1.0000
  C   C42       1.0  0.5282872271314504  0.11276352048304975  0.4891751142627925  1.0000
  N   N1        1.0  0.4369360931961594  0.5224475049631535  0.014558248369787898  1.0000
  N   N2        1.0  0.45110525582888533  0.4542862368370707  0.9787426753079914  1.0000
  N   N3        1.0  0.49339233999300103  0.2837644702317448  0.4790112513269307  1.0000
  N   N4        1.0  0.501543628314245  0.7217565876273612  0.509047205537982  1.0000
  N   N5        1.0  0.5491616772359009  0.025102897553693992  0.4874837330618433  1.0000
  N   N6        1.0  0.4738922327240403  0.9820994096624532  0.5218883597848105  1.0000
  O   O1        1.0  0.48543787455577814  0.5826673149773284  0.3853430171097045  1.0000
  O   O2        1.0  0.5760099575212935  0.3545673159437968  0.7280407568054982  1.0000
  O   O3        1.0  0.6755183333366476  0.7218974193554787  0.4575445967194582  1.0000
  O   O4        1.0  0.34981455851183096  0.28087054053674626  0.5657898220221682  1.0000
  O   O5        1.0  0.46792684289585645  0.4319461627877104  0.6043536630297269  1.0000
  O   O6        1.0  0.5297076009948681  0.44507602616692316  0.3747830992141132  1.0000
  O   O7        1.0  0.5086176368060363  0.5688142123296415  0.6225977049195777  1.0000
  O   O8        1.0  0.6723273779208155  0.5515176527606869  0.498935754444716  1.0000
  O   O9        1.0  0.3277026458302075  0.4454938946763179  0.4675589282813704  1.0000
  O   O10       1.0  0.6695578818395872  0.4088511069862477  0.5089349309486906  1.0000
  O   O11       1.0  0.3283045765681365  0.5781072549360787  0.5150786895400756  1.0000
  O   O12       1.0  0.5142633875428332  0.6713989669613126  0.24433081499001466  1.0000
