data_image0
_chemical_formula_structural       Ho2H18C18N2O22
_chemical_formula_sum              "Ho2 H18 C18 N2 O22"
_cell_length_a       7.376111890788684
_cell_length_b       9.253330943318922
_cell_length_c       11.462371748186996
_cell_angle_alpha    72.2039137545809
_cell_angle_beta     69.72109387413124
_cell_angle_gamma    80.48918201899498

_space_group_name_H-M_alt    "P 1"
_space_group_IT_number       1

loop_
  _space_group_symop_operation_xyz
  'x, y, z'

loop_
  _atom_site_type_symbol
  _atom_site_label
  _atom_site_symmetry_multiplicity
  _atom_site_fract_x
  _atom_site_fract_y
  _atom_site_fract_z
  _atom_site_occupancy
  Ho  Ho1       1.0  0.10793666967880003  0.5545984134707211  0.2196171615173554  1.0000
  Ho  Ho2       1.0  0.8920599964812441  0.44540594274685924  0.78038695903129  1.0000
  H   H1        1.0  0.1826692787415283  0.15056630174595403  0.6107491116065589  1.0000
  H   H2        1.0  0.8173296202335366  0.8494325375664856  0.38924883931230886  1.0000
  H   H3        1.0  0.36976222050885355  0.6862810645055007  0.5965106934309574  1.0000
  H   H4        1.0  0.63024264872206  0.31371675292131573  0.4034836166353202  1.0000
  H   H5        1.0  0.22337504840563585  0.0131068263308691  0.27576525156216286  1.0000
  H   H6        1.0  0.7766159041651052  0.9868851229975846  0.7242351072254749  1.0000
  H   H7        1.0  0.8196992721694231  0.6113078693963627  0.45607420708903124  1.0000
  H   H8        1.0  0.1802975625634105  0.3886953883329908  0.5439283879981858  1.0000
  H   H9        1.0  0.6835200866496365  0.6086724905263096  0.3711491966477566  1.0000
  H   H10       1.0  0.31647989200633486  0.39132854068288475  0.6288523799712422  1.0000
  H   H11       1.0  0.48093501137299915  0.5553786717450109  0.22752774145365606  1.0000
  H   H12       1.0  0.5190650625497637  0.4446199880291459  0.7724787303430176  1.0000
  H   H13       1.0  0.5488763390202253  0.505097192232739  0.09533490894593652  1.0000
  H   H14       1.0  0.45111796009490485  0.49490141032310936  0.9046727953418455  1.0000
  H   H15       1.0  0.1205248676644786  0.8476207271006543  0.9966710161734013  1.0000
  H   H16       1.0  0.8794941014399172  0.1523794303483967  0.0033232635879513433  1.0000
  H   H17       1.0  0.006021389998004226  0.8858742958153625  0.13086927905641227  1.0000
  H   H18       1.0  0.994009653847961  0.1141350884293004  0.8691203048903943  1.0000
  C   C1        1.0  0.16043154302041532  0.2597184962630975  0.3637292933493653  1.0000
  C   C2        1.0  0.8395561776806633  0.7402768362266057  0.6362709606677441  1.0000
  C   C3        1.0  0.20971499650120515  0.1004367465997476  0.4322574770913477  1.0000
  C   C4        1.0  0.7902813864113157  0.8995586717174219  0.5677409281890959  1.0000
  C   C5        1.0  0.21817000749641124  0.06452912289226728  0.5579817323786286  1.0000
  C   C6        1.0  0.7818332225843748  0.9354697593339126  0.4420152941719095  1.0000
  C   C7        1.0  0.2745834445309897  0.915515972715397  0.6135642260163792  1.0000
  C   C8        1.0  0.7254240824598384  0.08448414783417489  0.3864289871269548  1.0000
  C   C9        1.0  0.3237072753104685  0.8009055313405824  0.549715470129179  1.0000
  C   C10       1.0  0.676305777288931  0.199095686762675  0.4502806846846497  1.0000
  C   C11       1.0  0.29905786459221423  0.8358065011903263  0.42849265803319975  1.0000
  C   C12       1.0  0.7009510865453664  0.16419239948559283  0.5715049018263443  1.0000
  C   C13       1.0  0.24245654615494774  0.9850774802987982  0.3704937404815638  1.0000
  C   C14       1.0  0.7575455846897796  0.014917975852398497  0.629504315207832  1.0000
  C   C15       1.0  0.32077126687324414  0.7128924165422674  0.3626239808635957  1.0000
  C   C16       1.0  0.6792380629258689  0.2871018769535922  0.6373771890508947  1.0000
  C   C17       1.0  0.893183042671332  0.49628510450563823  0.04311965574915888  1.0000
  C   C18       1.0  0.10680710599853432  0.5037259792658586  0.9568860210585513  1.0000
  N   N1        1.0  0.28353533225283917  0.8756572492321837  0.7448364077497516  1.0000
  N   N2        1.0  0.716458830079553  0.12434613496230182  0.25515974038255956  1.0000
  O   O1        1.0  0.15655503325007203  0.37048994738917423  0.41014164153577326  1.0000
  O   O2        1.0  0.8434239446132993  0.6295052411201991  0.589863109918177  1.0000
  O   O3        1.0  0.12458574263320807  0.28485991229702273  0.2581387748240118  1.0000
  O   O4        1.0  0.8754044330593093  0.7151400172133222  0.7418590186927146  1.0000
  O   O5        1.0  0.18571065692649577  0.7148068806512099  0.3167831493794537  1.0000
  O   O6        1.0  0.8142944834642593  0.2851862520584021  0.6832183023420056  1.0000
  O   O7        1.0  0.4664402171607237  0.6176561574216352  0.3569503778953588  1.0000
  O   O8        1.0  0.5335582934707689  0.3823287878931864  0.6430613600113091  1.0000
  O   O9        1.0  0.4017068448510841  0.7737798719841466  0.7755326788281707  1.0000
  O   O10       1.0  0.5982910428344539  0.226214384612227  0.22446742446830828  1.0000
  O   O11       1.0  0.16790570224582532  0.9468574191980673  0.8220183348914248  1.0000
  O   O12       1.0  0.8320895130392715  0.05313696386343739  0.17797532145014114  1.0000
  O   O13       1.0  0.8525721037554704  0.515109832424585  0.1537582727561143  1.0000
  O   O14       1.0  0.14741102662048183  0.48491493813164505  0.8462413379780855  1.0000
  O   O15       1.0  0.7746988150033404  0.47086615393692427  0.9941936651810508  1.0000
  O   O16       1.0  0.22529661022326766  0.5291358940781945  0.0058121270678200216  1.0000
  O   O17       1.0  0.820316620261224  0.6013519109273203  0.37157928971256393  1.0000
  O   O18       1.0  0.17968278428499931  0.39865480656587954  0.6284210852129632  1.0000
  O   O19       1.0  0.4351992146568762  0.5410405585314066  0.15970917683518587  1.0000
  O   O20       1.0  0.5647964133382148  0.4589591955858197  0.8402979789911313  1.0000
  O   O21       1.0  0.06453716128574175  0.8033319605221363  0.09032406653369661  1.0000
  O   O22       1.0  0.9354828533038743  0.19667158423332856  0.9096709498889125  1.0000
