data_image0
_chemical_formula_structural       DyH9C5N2O8
_chemical_formula_sum              "Dy1 H9 C5 N2 O8"
_cell_length_a       6.561168565015399
_cell_length_b       6.701877718589037
_cell_length_c       6.701826465495264
_cell_angle_alpha    64.23885867975673
_cell_angle_beta     73.12000248168269
_cell_angle_gamma    73.12046716061629

_space_group_name_H-M_alt    "P 1"
_space_group_IT_number       1

loop_
  _space_group_symop_operation_xyz
  'x, y, z'

loop_
  _atom_site_type_symbol
  _atom_site_label
  _atom_site_symmetry_multiplicity
  _atom_site_fract_x
  _atom_site_fract_y
  _atom_site_fract_z
  _atom_site_occupancy
  Dy  Dy1       1.0  6.023081198045268e-07  0.9944855069390643  0.005508007970064465  1.0000
  H   H1        1.0  0.13001321728589232  0.8519048328580752  0.5280188479543853  1.0000
  H   H2        1.0  0.8699783344266907  0.47196614834625444  0.14809628937647545  1.0000
  H   H3        1.0  0.5000040915751782  0.07718148151789708  0.9228148200205835  1.0000
  H   H4        1.0  0.17693667240189373  0.44556148838174886  0.5355595988275041  1.0000
  H   H5        1.0  0.8230618738392294  0.46442587000171187  0.5544515168362453  1.0000
  H   H6        1.0  0.5996507335879001  0.19980200782227084  0.36399194357939274  1.0000
  H   H7        1.0  0.40034625255054124  0.6360026616141993  0.8002129828952533  1.0000
  H   H8        1.0  0.47150251209561844  0.4912961407103253  0.2636117875369734  1.0000
  H   H9        1.0  0.528512979440258  0.73638721124631  0.5087058786718188  1.0000
  C   C1        1.0  0.9609971131944377  0.9480936812769372  0.532919052637247  1.0000
  C   C2        1.0  0.038993138086532035  0.4670685993540075  0.051915664048316  1.0000
  C   C3        1.0  0.49999999039935983  0.9230358048847048  0.07697029041703736  1.0000
  C   C4        1.0  0.29650971804809256  0.291284776617033  0.5346065641866602  1.0000
  C   C5        1.0  0.7035061517467297  0.4653649920458207  0.7087416748169771  1.0000
  N   N1        1.0  0.4693771903527235  0.32795898543233176  0.37346206948135574  1.0000
  N   N2        1.0  0.5306285753203357  0.6265399332977565  0.6720480558379832  1.0000
  O   O1        1.0  0.8688440872811823  0.009813470895288398  0.6947902923714082  1.0000
  O   O2        1.0  0.131151130596507  0.3052033915947376  0.9901942947246594  1.0000
  O   O3        1.0  0.8731373334420527  0.988985659716995  0.3685818633576189  1.0000
  O   O4        1.0  0.1268453489903223  0.6314148108511546  0.011019238273846073  1.0000
  O   O5        1.0  0.332379169644028  0.8331534428885732  0.15517690115763827  1.0000
  O   O6        1.0  0.6676236836876016  0.8448111126801617  0.16684447335902777  1.0000
  O   O7        1.0  0.26410497965463253  0.09966038878906859  0.6780954619526368  1.0000
  O   O8        1.0  0.7358924736294626  0.3219057950238167  0.9003514017606022  1.0000
