data_image0
_chemical_formula_structural       Ag4H56C64Cl4O16
_chemical_formula_sum              "Ag4 H56 C64 Cl4 O16"
_cell_length_a       5.385233526183455
_cell_length_b       13.258936363407248
_cell_length_c       20.399487291474223
_cell_angle_alpha    89.9994613000111
_cell_angle_beta     90.00058856303359
_cell_angle_gamma    89.99928312911274

_space_group_name_H-M_alt    "P 1"
_space_group_IT_number       1

loop_
  _space_group_symop_operation_xyz
  'x, y, z'

loop_
  _atom_site_type_symbol
  _atom_site_label
  _atom_site_symmetry_multiplicity
  _atom_site_fract_x
  _atom_site_fract_y
  _atom_site_fract_z
  _atom_site_occupancy
  Ag  Ag1       1.0  0.7210037045671029  0.23549182146684441  0.2500003131178445  1.0000
  Ag  Ag2       1.0  0.2209965452305198  0.26451263457743585  0.7499953845449171  1.0000
  Ag  Ag3       1.0  0.7789987692047261  0.7354933252164814  0.2500009329365724  1.0000
  Ag  Ag4       1.0  0.2789916100298271  0.7645088588348871  0.7500004162543092  1.0000
  H   H1        1.0  0.0524096337387121  0.15860288480940452  0.1247037398814186  1.0000
  H   H2        1.0  0.5524105039013776  0.3413862261700232  0.6247052553071271  1.0000
  H   H3        1.0  0.052393598151226704  0.1586198085886608  0.3752953319937404  1.0000
  H   H4        1.0  0.44761198773367994  0.6586065808173844  0.1247048623602751  1.0000
  H   H5        1.0  0.9475912519022031  0.8413796944943502  0.8752950287171191  1.0000
  H   H6        1.0  0.44760709378818586  0.6586152083081985  0.3752925328456982  1.0000
  H   H7        1.0  0.9475961456066243  0.8413861511697578  0.6247073581886299  1.0000
  H   H8        1.0  0.5523981825764465  0.341371473236471  0.8752909650146351  1.0000
  H   H9        1.0  0.0782155521683237  0.32532617397529856  0.1803037193688866  1.0000
  H   H10       1.0  0.5782050391724525  0.17465742850296812  0.6803032455078295  1.0000
  H   H11       1.0  0.0781808557159707  0.3253484801149116  0.3196983991018669  1.0000
  H   H12       1.0  0.4217971176252036  0.8253352757191764  0.1802983921733201  1.0000
  H   H13       1.0  0.9218076167320461  0.6746526342135226  0.8196975003156269  1.0000
  H   H14       1.0  0.42180141691834905  0.8253447602145911  0.3196940524178303  1.0000
  H   H15       1.0  0.9218014603110803  0.6746582338699767  0.6803042910672803  1.0000
  H   H16       1.0  0.5781629154269865  0.1746450411351077  0.8196905722028021  1.0000
  H   H17       1.0  0.7236525360014738  0.4465968222594655  0.17311493891102003  1.0000
  H   H18       1.0  0.2236428400047785  0.05339296768006111  0.6731087647119481  1.0000
  H   H19       1.0  0.7236180916361761  0.44661524649646395  0.326892823282833  1.0000
  H   H20       1.0  0.776355350819017  0.9466021100598355  0.1731067270787534  1.0000
  H   H21       1.0  0.2763780606535136  0.5533872653164736  0.8268931436870729  1.0000
  H   H22       1.0  0.776346903654975  0.9466175173395616  0.3268924548323042  1.0000
  H   H23       1.0  0.2763716521078123  0.5533937300800887  0.6731118277245187  1.0000
  H   H24       1.0  0.22358611293437042  0.053384240464787104  0.8268876295448494  1.0000
  H   H25       1.0  0.36210215551265185  0.40533024417648283  0.1012416329721972  1.0000
  H   H26       1.0  0.8620979132521428  0.09467279812340482  0.60123720400059  1.0000
  H   H27       1.0  0.3620776576824909  0.4053437894081285  0.39876528696833446  1.0000
  H   H28       1.0  0.1379089004295224  0.9053286669401501  0.1012393811067369  1.0000
  H   H29       1.0  0.6379210132427814  0.5946651565422842  0.8987664495825316  1.0000
  H   H30       1.0  0.1378974011433272  0.9053399495150816  0.39876303512870953  1.0000
  H   H31       1.0  0.6379157998606003  0.5946689582008916  0.6012393640337876  1.0000
  H   H32       1.0  0.862058560371743  0.09466748814582361  0.8987657601124043  1.0000
  H   H33       1.0  0.3482769558308759  0.24506525035292984  0.040598388899908903  1.0000
  H   H34       1.0  0.8482787324148972  0.25494181118726544  0.5405969665040189  1.0000
  H   H35       1.0  0.34825644016557783  0.24507182711158051  0.4594040126452867  1.0000
  H   H36       1.0  0.15173524088299928  0.74505983440568  0.0406030411824432  1.0000
  H   H37       1.0  0.6517369280543122  0.7549354299071712  0.9594018502915208  1.0000
  H   H38       1.0  0.15174257897235316  0.7450649027740537  0.4593964097636772  1.0000
  H   H39       1.0  0.6517184480687418  0.7549379037360499  0.5405972068789708  1.0000
  H   H40       1.0  0.8482582168100092  0.2549408458892587  0.9593991588121327  1.0000
  H   H41       1.0  0.8595952318306104  0.0450772794082397  0.05236178237905881  1.0000
  H   H42       1.0  0.3596228388887752  0.45491974059018514  0.5523709631011898  1.0000
  H   H43       1.0  0.8596003007522127  0.045087808536713715  0.44763348134466696  1.0000
  H   H44       1.0  0.6404361133704343  0.5450711645364735  0.0523693421987872  1.0000
  H   H45       1.0  0.14037037196575142  0.9549090710762443  0.9476301232385326  1.0000
  H   H46       1.0  0.6404133281214754  0.5450877274562205  0.4476336879796677  1.0000
  H   H47       1.0  0.1403764444307711  0.9549196596890044  0.5523667577720204  1.0000
  H   H48       1.0  0.359609338545269  0.4549083978628446  0.9476245243908038  1.0000
  H   H49       1.0  0.32283335385182704  0.0914355840930057  0.009220549969676004  1.0000
  H   H50       1.0  0.8228673582298996  0.408581136006724  0.5092182503919958  1.0000
  H   H51       1.0  0.32284736261357233  0.09144092283619189  0.49078510401849945  1.0000
  H   H52       1.0  0.1771845106252243  0.5914307979810048  0.0092154739471582  1.0000
  H   H53       1.0  0.6771285358713683  0.9085711299758403  0.9907777282934233  1.0000
  H   H54       1.0  0.1771632376952184  0.5914421704467261  0.4907839495933501  1.0000
  H   H55       1.0  0.6771349534373031  0.9085718247622908  0.509224449050997  1.0000
  H   H56       1.0  0.822870225582278  0.40857591586080133  0.9907828044543551  1.0000
  C   C1        1.0  0.8995882980042041  0.21215114813202968  0.1199777702839455  1.0000
  C   C2        1.0  0.39958410678427475  0.28784010884704264  0.6199790811905785  1.0000
  C   C3        1.0  0.8995650002895061  0.21216950749537497  0.3800210705174081  1.0000
  C   C4        1.0  0.6004215068782272  0.7121542794334349  0.11998128914466831  1.0000
  C   C5        1.0  0.1004274430294458  0.7878336937641139  0.8800205081218806  1.0000
  C   C6        1.0  0.6004297769823311  0.7121620798712488  0.3800157657041652  1.0000
  C   C7        1.0  0.100415458725287  0.787840223342414  0.6199796588067558  1.0000
  C   C8        1.0  0.3995608093746696  0.2878313167678642  0.8800150283755741  1.0000
  C   C9        1.0  0.9099026595313687  0.3045089491199064  0.153831314001593  1.0000
  C   C10       1.0  0.4098884219416448  0.19547871876827125  0.653829720793837  1.0000
  C   C11       1.0  0.9098688909186592  0.304521042484076  0.3461689910372243  1.0000
  C   C12       1.0  0.5901276625985048  0.8045151476932589  0.1538289196326446  1.0000
  C   C13       1.0  0.09011679540972749  0.6954766469490183  0.8461703958664087  1.0000
  C   C14       1.0  0.5901236049382135  0.8045234699356671  0.34616757714012897  1.0000
  C   C15       1.0  0.090113425101606  0.6954834088947734  0.6538312480963883  1.0000
  C   C16       1.0  0.4098509397675869  0.19546894012317045  0.8461644566359824  1.0000
  C   C17       1.0  0.7135849756268087  0.37433483483539487  0.1478605739199068  1.0000
  C   C18       1.0  0.21357854066041435  0.12565539361943937  0.6478564381613695  1.0000
  C   C19       1.0  0.7135569870312608  0.3743536239781592  0.3521451198306806  1.0000
  C   C20       1.0  0.7864206222154592  0.8743393191511758  0.14785827460221415  1.0000
  C   C21       1.0  0.2864456209731756  0.6256500069677529  0.852145057634047  1.0000
  C   C22       1.0  0.7864112030115391  0.8743505661767658  0.3521413499370141  1.0000
  C   C23       1.0  0.28643275665079676  0.6256576152346585  0.647858060545012  1.0000
  C   C24       1.0  0.21353384008687473  0.1256492939325895  0.8521404939098929  1.0000
  C   C25       1.0  0.5129545135623417  0.35122594547019764  0.10674656241712202  1.0000
  C   C26       1.0  0.012954767499735502  0.14877419424504984  0.6067422946919834  1.0000
  C   C27       1.0  0.5129428213525742  0.3512358045019541  0.39325866518201746  1.0000
  C   C28       1.0  0.9870596667984799  0.8512286943548449  0.1067443710582978  1.0000
  C   C29       1.0  0.487061227493335  0.6487671926493593  0.8932605397161951  1.0000
  C   C30       1.0  0.9870572592784299  0.8512370449397297  0.3932574542581406  1.0000
  C   C31       1.0  0.48705249312546783  0.6487739262881718  0.6067435347894873  1.0000
  C   C32       1.0  0.012915221671647697  0.14876896914091733  0.8932592995424146  1.0000
  C   C33       1.0  0.5049278675388394  0.26024834001419356  0.0729038027541336  1.0000
  C   C34       1.0  0.004919642652438899  0.2397546232856982  0.5729009763734609  1.0000
  C   C35       1.0  0.5049006488336828  0.2602606942598413  0.4270965280605452  1.0000
  C   C36       1.0  0.9950973197055433  0.7602450158973398  0.07290849827687401  1.0000
  C   C37       1.0  0.4950934441545983  0.7397478149703216  0.9270974168780911  1.0000
  C   C38       1.0  0.9950905271687489  0.7602513364945623  0.42709239987978254  1.0000
  C   C39       1.0  0.49507795319129133  0.7397490366089344  0.5729007698020682  1.0000
  C   C40       1.0  0.004899851939804  0.2397503849265662  0.9270941919467148  1.0000
  C   C41       1.0  0.6956191100293124  0.18783552730845798  0.0796843661088218  1.0000
  C   C42       1.0  0.1956234260982015  0.31216338198392896  0.5796850479593517  1.0000
  C   C43       1.0  0.6956065090913626  0.18785100287577453  0.4203159662854219  1.0000
  C   C44       1.0  0.8044123431958923  0.6878361526213936  0.07968653227879942  1.0000
  C   C45       1.0  0.30438177550990275  0.8121561024761376  0.9203168535058737  1.0000
  C   C46       1.0  0.8043997422564216  0.6878463487683106  0.4203132303864834  1.0000
  C   C47       1.0  0.3043758068204169  0.8121602363778778  0.5796842728288142  1.0000
  C   C48       1.0  0.1956052547190907  0.3121554771185587  0.9203151775692008  1.0000
  C   C49       1.0  0.690474554356534  0.09020729307950152  0.047507357868042305  1.0000
  C   C50       1.0  0.19049060524515227  0.4097966625851015  0.547511403946345  1.0000
  C   C51       1.0  0.6904742226451432  0.09021850157667903  0.4524905754110691  1.0000
  C   C52       1.0  0.8095570349804717  0.5902063847965665  0.047511990422322  1.0000
  C   C53       1.0  0.3095040478665751  0.9097873536419528  0.9524874889956295  1.0000
  C   C54       1.0  0.80953627692395  0.5902191018018784  0.4524898156382021  1.0000
  C   C55       1.0  0.30950437941751113  0.9097942460875647  0.547511624526912  1.0000
  C   C56       1.0  0.19047727523808797  0.40978599913350433  0.9524867781980504  1.0000
  C   C57       1.0  0.49619522012709166  0.049136855125866005  0.014454394020440001  1.0000
  C   C58       1.0  0.9962353003822813  0.4508736569347391  0.5144577354509536  1.0000
  C   C59       1.0  0.49620904541546207  0.049142274574968815  0.4855480966717138  1.0000
  C   C60       1.0  0.0038111813117609  0.5491381962926811  0.0144556640286169  1.0000
  C   C61       1.0  0.5037629557591785  0.9508668421301539  0.9855424136205428  1.0000
  C   C62       1.0  0.0037952955256485995  0.549149649526271  0.48554348411759213  1.0000
  C   C63       1.0  0.5037714136954747  0.9508689646265442  0.514459495565724  1.0000
  C   C64       1.0  0.9962435548854813  0.45086700914761485  0.9855406535436018  1.0000
  Cl  Cl1       1.0  0.2327805473888418  0.06951288385801041  0.25000545148567715  1.0000
  Cl  Cl2       1.0  0.7327767128219875  0.4304794471509653  0.7500030267459011  1.0000
  Cl  Cl3       1.0  0.26722417257951747  0.5695197247243016  0.2499972124304577  1.0000
  Cl  Cl4       1.0  0.7672147673561936  0.9304779917394583  0.7499947877060649  1.0000
  O   O1        1.0  0.3078210578485709  0.17789017199145016  0.2500101560216592  1.0000
  O   O2        1.0  0.807796547392243  0.3220980209834395  0.7500049186220752  1.0000
  O   O3        1.0  0.19220062431654844  0.6779003966245869  0.250004144302082  1.0000
  O   O4        1.0  0.6921816847732885  0.8220999493153089  0.7499984167260862  1.0000
  O   O5        1.0  0.959540156821525  0.0670237277215477  0.2500036007038133  1.0000
  O   O6        1.0  0.45954061112301753  0.4329788074500487  0.7500001612622711  1.0000
  O   O7        1.0  0.5404658450708624  0.5670233812221711  0.2500030191641756  1.0000
  O   O8        1.0  0.0404533010417509  0.9329716730774253  0.7500035013898199  1.0000
  O   O9        1.0  0.32732978064294116  0.021125212047081707  0.3086758325655623  1.0000
  O   O10       1.0  0.8273411119102433  0.47885896422759106  0.8086736217937585  1.0000
  O   O11       1.0  0.32732958105365373  0.021143463329380604  0.191325824356035  1.0000
  O   O12       1.0  0.1726562588719034  0.5211362863852642  0.3086697626281065  1.0000
  O   O13       1.0  0.6726766758284555  0.978852087803766  0.6913204850143586  1.0000
  O   O14       1.0  0.17268019935993814  0.5211545376123112  0.19131926424616102  1.0000
  O   O15       1.0  0.67264159333876  0.9788587254895661  0.8086695126834371  1.0000
  O   O16       1.0  0.8273409127789932  0.4788485555940697  0.6913236136660502  1.0000
