data_image0
_chemical_formula_structural       Mn4H104C100S8N16O16
_chemical_formula_sum              "Mn4 H104 C100 S8 N16 O16"
_cell_length_a       12.23902098740821
_cell_length_b       12.238860911163956
_cell_length_c       25.088356618553554
_cell_angle_alpha    89.99994472415041
_cell_angle_beta     89.99781101110521
_cell_angle_gamma    89.99940990014416

_space_group_name_H-M_alt    "P 1"
_space_group_IT_number       1

loop_
  _space_group_symop_operation_xyz
  'x, y, z'

loop_
  _atom_site_type_symbol
  _atom_site_label
  _atom_site_symmetry_multiplicity
  _atom_site_fract_x
  _atom_site_fract_y
  _atom_site_fract_z
  _atom_site_occupancy
  Mn  Mn1       1.0  0.7501370636708771  0.7500675536190327  0.9196249757470341  1.0000
  Mn  Mn2       1.0  0.2500243854520435  0.2500077075854676  0.4196592047845868  1.0000
  Mn  Mn3       1.0  0.24999024362589486  0.25004560234752654  0.0803607755089999  1.0000
  Mn  Mn4       1.0  0.7500195803377421  0.7499902419612707  0.5803803571014186  1.0000
  H   H1        1.0  0.9489016920960368  0.9048644599169076  0.8898778065385643  1.0000
  H   H2        1.0  0.1017179237645678  0.9268668445524354  0.824026881132319  1.0000
  H   H3        1.0  0.9716059000126409  0.6436408215112123  0.7416941802145162  1.0000
  H   H4        1.0  0.8295436295519069  0.6329754632749526  0.8123864700532978  1.0000
  H   H5        1.0  0.166611684936484  0.6382858241170054  0.7237575243762535  1.0000
  H   H6        1.0  0.07839116793407189  0.7103902523757454  0.6781678593705607  1.0000
  H   H7        1.0  0.32747288955476955  0.5911916194288196  0.6595334126711805  1.0000
  H   H8        1.0  0.34428063615575877  0.6820546138002044  0.6049357943387363  1.0000
  H   H9        1.0  0.0382618779089512  0.4883012640138845  0.5677210405315449  1.0000
  H   H10       1.0  0.38738203283286776  0.5489268456837237  0.5620214944651423  1.0000
  H   H11       1.0  0.0652251123703422  0.35225830269860126  0.4944422090450189  1.0000
  H   H12       1.0  0.3968634812365224  0.4124525617394639  0.4886874222824886  1.0000
  H   H13       1.0  0.694630705745105  0.49529739863402256  0.9186573809023671  1.0000
  H   H14       1.0  0.55116395870062  0.5951514105223835  0.8898501135472614  1.0000
  H   H15       1.0  0.3984060603278081  0.5730350028120412  0.8239695910631469  1.0000
  H   H16       1.0  0.5282932036635727  0.8563491738043818  0.7416659834979954  1.0000
  H   H17       1.0  0.6702690631677654  0.8671957929729286  0.8123811231569249  1.0000
  H   H18       1.0  0.3333599830299078  0.8616088532068175  0.7237666713117079  1.0000
  H   H19       1.0  0.42160775483963414  0.7896058245810238  0.6781626386895994  1.0000
  H   H20       1.0  0.17254954710602988  0.9087301380135671  0.6595854011242749  1.0000
  H   H21       1.0  0.1557174681089393  0.8178991090790076  0.6049534658171325  1.0000
  H   H22       1.0  0.4617344782060258  0.0115643576741036  0.5677359375198918  1.0000
  H   H23       1.0  0.1125932772107774  0.951026955587686  0.5620259535787966  1.0000
  H   H24       1.0  0.43482925872132233  0.14760908648996454  0.49443322641299403  1.0000
  H   H25       1.0  0.1031611075364509  0.0875006303932153  0.48868068338088483  1.0000
  H   H26       1.0  0.8053610450794367  0.0048238961376867  0.9185899056712402  1.0000
  H   H27       1.0  0.09514775821027399  0.4487909203935487  0.38986351262019536  1.0000
  H   H28       1.0  0.0730497363342337  0.6015659328164418  0.3239960739499709  1.0000
  H   H29       1.0  0.35633608185513305  0.4716333397536446  0.24167638966068242  1.0000
  H   H30       1.0  0.3671372043475288  0.3296110157493288  0.3123796405067836  1.0000
  H   H31       1.0  0.361608258724047  0.6665616002530823  0.22374327099419133  1.0000
  H   H32       1.0  0.28955080830377256  0.5783405674458777  0.17814153784930653  1.0000
  H   H33       1.0  0.40869948758422225  0.8274424014191765  0.1595444838902011  1.0000
  H   H34       1.0  0.3178650190688188  0.8442492215427176  0.10494151288045829  1.0000
  H   H35       1.0  0.51158043893507  0.5382777900840878  0.0676854467124386  1.0000
  H   H36       1.0  0.4509898645920601  0.8874078204426749  0.0620462565251572  1.0000
  H   H37       1.0  0.6476138239681007  0.5652697697600501  0.9943945289414202  1.0000
  H   H38       1.0  0.5874588336931339  0.8969496445465877  0.9887079067468392  1.0000
  H   H39       1.0  0.5047803808339992  0.19459601129464224  0.4186527865184431  1.0000
  H   H40       1.0  0.4049646215818186  0.051137122405215486  0.389804516599888  1.0000
  H   H41       1.0  0.4269719437666026  0.8983449976802402  0.32393369949370754  1.0000
  H   H42       1.0  0.14360484605344936  0.0282835351432169  0.24168367191913379  1.0000
  H   H43       1.0  0.1328668353176781  0.17030572988061718  0.3123874506280657  1.0000
  H   H44       1.0  0.1383035900956671  0.8332915016172109  0.223777601570184  1.0000
  H   H45       1.0  0.21030740782463647  0.9215502030759093  0.1781601280179146  1.0000
  H   H46       1.0  0.09117733919779171  0.6724876222674679  0.1595530709635256  1.0000
  H   H47       1.0  0.18203077972212614  0.6556931576940594  0.1049217048386595  1.0000
  H   H48       1.0  0.9883900876186686  0.9617616411054684  0.0677099803146248  1.0000
  H   H49       1.0  0.04889131006071069  0.6125934661437071  0.061980330677307904  1.0000
  H   H50       1.0  0.8522908722614417  0.9348464103933338  0.9944287941559297  1.0000
  H   H51       1.0  0.9123833960548637  0.6031747170648173  0.9886646868417799  1.0000
  H   H52       1.0  0.9952724742511092  0.3052884277358955  0.4186501673593739  1.0000
  H   H53       1.0  0.05118557797634791  0.09512858699310556  0.1101581676225081  1.0000
  H   H54       1.0  0.8983954920357248  0.07306247079045389  0.176021449130026  1.0000
  H   H55       1.0  0.0283383851474781  0.35635386028314997  0.2583318305006301  1.0000
  H   H56       1.0  0.1703532662298528  0.36712462074275004  0.18762479320091072  1.0000
  H   H57       1.0  0.8333791740808323  0.36166146743581595  0.2762362000225309  1.0000
  H   H58       1.0  0.9216086777710898  0.2896224046764927  0.3218418085785757  1.0000
  H   H59       1.0  0.6725359455977157  0.40877364758230766  0.3404363960786582  1.0000
  H   H60       1.0  0.6557232954071495  0.31793925064332734  0.3950619158387951  1.0000
  H   H61       1.0  0.9617780049749243  0.5115381741070378  0.4322782637142383  1.0000
  H   H62       1.0  0.6126169960011012  0.4510735553330818  0.4379849847645474  1.0000
  H   H63       1.0  0.9348678785394497  0.6476301593062956  0.505571045386553  1.0000
  H   H64       1.0  0.6031829372136103  0.5875715340565363  0.5113106860815719  1.0000
  H   H65       1.0  0.3053184811524261  0.5047593804104122  0.0813762029854104  1.0000
  H   H66       1.0  0.44883261798841545  0.40495847781097877  0.11016672905068249  1.0000
  H   H67       1.0  0.6016248343085094  0.4269784711661727  0.1760221399883193  1.0000
  H   H68       1.0  0.471664156345966  0.1436406055496136  0.2583117975521674  1.0000
  H   H69       1.0  0.3296319183598015  0.13291327879989004  0.187617385136079  1.0000
  H   H70       1.0  0.666636595070571  0.13836295039691038  0.2762322347139516  1.0000
  H   H71       1.0  0.5784002618533108  0.21038967397684163  0.3218390573620624  1.0000
  H   H72       1.0  0.827448664043729  0.09123758020879787  0.3404414062762768  1.0000
  H   H73       1.0  0.8442693048087689  0.18206860921606696  0.39505819522194235  1.0000
  H   H74       1.0  0.5382743543281591  0.9883804825358593  0.4323036247079273  1.0000
  H   H75       1.0  0.8874106550062351  0.0489456650614954  0.437957805909555  1.0000
  H   H76       1.0  0.5652416708558192  0.8523333022048191  0.5055919859492661  1.0000
  H   H77       1.0  0.8969081899163031  0.9124687216533612  0.5112899219853944  1.0000
  H   H78       1.0  0.1946657657373336  0.9952598458816907  0.0813547916303605  1.0000
  H   H79       1.0  0.905005693611578  0.5511898701313098  0.6101744538818323  1.0000
  H   H80       1.0  0.9269934127691074  0.39837482187112266  0.6760414950018047  1.0000
  H   H81       1.0  0.6436694837984973  0.5283597076112442  0.7583221176843224  1.0000
  H   H82       1.0  0.6329770299861224  0.6703885676094785  0.6876216559598802  1.0000
  H   H83       1.0  0.6383654429128071  0.33338895968645216  0.7762281324528217  1.0000
  H   H84       1.0  0.7103787718932112  0.4216279682459074  0.8218342505095038  1.0000
  H   H85       1.0  0.5912276410930062  0.17256862189647384  0.8404344932109282  1.0000
  H   H86       1.0  0.6820465843976892  0.15577160666256157  0.8950641699785749  1.0000
  H   H87       1.0  0.488376921268646  0.46178307432974447  0.9322779850338634  1.0000
  H   H88       1.0  0.5489658585341387  0.11265059270166229  0.9379933061702133  1.0000
  H   H89       1.0  0.3523296458457353  0.4348335823354573  0.0055732874279357  1.0000
  H   H90       1.0  0.4124903530549203  0.10318148782805986  0.01131969825299  1.0000
  H   H91       1.0  0.4952995371110874  0.8053333042570755  0.5813556849296688  1.0000
  H   H92       1.0  0.5951880165099935  0.9488379487143699  0.6101489485613172  1.0000
  H   H93       1.0  0.5730793791552317  0.10160311066708519  0.6760201652124777  1.0000
  H   H94       1.0  0.8563713052578094  0.9716776466534326  0.7583248004906764  1.0000
  H   H95       1.0  0.8671787659529997  0.8296783295063149  0.6876190281705163  1.0000
  H   H96       1.0  0.8616554026902818  0.1666353633377682  0.7762428287468808  1.0000
  H   H97       1.0  0.7896156346181157  0.0784077107147496  0.8218499392541644  1.0000
  H   H98       1.0  0.9087522401797798  0.32750705963242416  0.8404402554046726  1.0000
  H   H99       1.0  0.8179110559986426  0.34432685331111657  0.8950564749401978  1.0000
  H   H100      1.0  0.011564002888142999  0.038295955012664286  0.9322913176340036  1.0000
  H   H101      1.0  0.9510783070284885  0.3874388007943991  0.9379611784416824  1.0000
  H   H102      1.0  0.14763543813833016  0.0652169053525498  0.005574497007238199  1.0000
  H   H103      1.0  0.08755353783320172  0.3968984035018224  0.011293164814496498  1.0000
  H   H104      1.0  0.004821332996009199  0.6946645827464405  0.5813730518300275  1.0000
  C   C1        1.0  0.9581058187253928  0.848566720073329  0.8564993030032966  1.0000
  C   C2        1.0  0.04192278670437591  0.8614019134405166  0.8199745805033558  1.0000
  C   C3        1.0  0.04996795089277839  0.7863777717463165  0.7776939550572806  1.0000
  C   C4        1.0  0.9713714752537469  0.7033162816034564  0.7738541055425969  1.0000
  C   C5        1.0  0.8907099316510596  0.6978120640807576  0.8129271689119051  1.0000
  C   C6        1.0  0.15129466024622218  0.7168389832430365  0.7037423868332482  1.0000
  C   C7        1.0  0.2857888179761119  0.6532482851083187  0.6350818062731634  1.0000
  C   C8        1.0  0.21015681919461576  0.530608234802635  0.5709432295217667  1.0000
  C   C9        1.0  0.1191024015213173  0.4739604760919319  0.5510615649846642  1.0000
  C   C10       1.0  0.3129209238567157  0.5081097171390849  0.5487291817608266  1.0000
  C   C11       1.0  0.13380735666671484  0.3994273576399293  0.510136486092378  1.0000
  C   C12       1.0  0.3186145622607626  0.43262149130750055  0.5072912003604486  1.0000
  C   C13       1.0  0.5418823655804559  0.6514933333669574  0.8564972640538854  1.0000
  C   C14       1.0  0.4580871234182168  0.6385898195068263  0.8199611814217532  1.0000
  C   C15       1.0  0.4500125785499662  0.7136050506940915  0.7776814657623987  1.0000
  C   C16       1.0  0.5285341032333973  0.7967455571188323  0.7738546332026814  1.0000
  C   C17       1.0  0.6091517416084926  0.8023207886396901  0.8129465146328414  1.0000
  C   C18       1.0  0.3486834736859804  0.7830802426521967  0.703731756269299  1.0000
  C   C19       1.0  0.2142061151622414  0.8466963950446313  0.6351003628234508  1.0000
  C   C20       1.0  0.2898210623033108  0.9693488184612846  0.570949548380355  1.0000
  C   C21       1.0  0.38091159671400016  0.025947663506762798  0.5510703923302388  1.0000
  C   C22       1.0  0.1870562408404197  0.9918432912851999  0.5487437875044705  1.0000
  C   C23       1.0  0.36623271522537953  0.10047922232503477  0.5101403685667592  1.0000
  C   C24       1.0  0.18140612247647425  0.067305520687917  0.5072905823662168  1.0000
  C   C25       1.0  0.1514639752363465  0.45804724123126295  0.35649571271650166  1.0000
  C   C26       1.0  0.1385652456079356  0.5418451721078268  0.3199601387509716  1.0000
  C   C27       1.0  0.2135859271152611  0.5499240076049148  0.2776796634734566  1.0000
  C   C28       1.0  0.29669770403796747  0.47137950889604935  0.2738476473282532  1.0000
  C   C29       1.0  0.3022558614746842  0.3907355017742375  0.3129326788796334  1.0000
  C   C30       1.0  0.2830660725677205  0.6512509575346853  0.20371599322309922  1.0000
  C   C31       1.0  0.34665811312077477  0.7857534059453002  0.1350851222304144  1.0000
  C   C32       1.0  0.4693456563752321  0.7101837085079549  0.070939099808264  1.0000
  C   C33       1.0  0.5259649929704154  0.6191153195256333  0.05104091740054171  1.0000
  C   C34       1.0  0.49183472026620473  0.8129685051891116  0.0487500845803979  1.0000
  C   C35       1.0  0.600497803037591  0.6338491873965849  0.010119242644591998  1.0000
  C   C36       1.0  0.5673047640254011  0.8186762019205244  0.007297081187232399  1.0000
  C   C37       1.0  0.34858074235994246  0.04185063117472509  0.35646129155708184  1.0000
  C   C38       1.0  0.3614273345746497  0.9580535098324957  0.31992407012247526  1.0000
  C   C39       1.0  0.2863780889183545  0.9499927271087782  0.2776541690619254  1.0000
  C   C40       1.0  0.20325051654179296  0.028529136601100895  0.2738510245151673  1.0000
  C   C41       1.0  0.19774731820182723  0.10917062095273877  0.312935321361941  1.0000
  C   C42       1.0  0.21681139039328198  0.8486275102130492  0.2037261285657976  1.0000
  C   C43       1.0  0.1532132709305003  0.7141660404894167  0.135074990544247  1.0000
  C   C44       1.0  0.030598552196138905  0.7898232809710206  0.07092962795650239  1.0000
  C   C45       1.0  0.9740043826809384  0.8809184225492855  0.05105300596295591  1.0000
  C   C46       1.0  0.0080867102445197  0.6870712076801834  0.0487111910738705  1.0000
  C   C47       1.0  0.8994461707237066  0.8662557144845162  0.0101315362639625  1.0000
  C   C48       1.0  0.9326010297942205  0.6814246199896273  0.0072729752565266  1.0000
  C   C49       1.0  0.24999734190499365  0.7499535159424436  0.6696758528334001  1.0000
  C   C50       1.0  0.24993270762971057  0.7499474356542634  0.1696646254018574  1.0000
  C   C51       1.0  0.041914453308386605  0.1514704489584418  0.1435107633399966  1.0000
  C   C52       1.0  0.9581105581662613  0.13858296306703718  0.1800450519215673  1.0000
  C   C53       1.0  0.9500482358697513  0.21360056829575305  0.22232328598202142  1.0000
  C   C54       1.0  0.028586700355376096  0.2967241560275297  0.22615436701511976  1.0000
  C   C55       1.0  0.10921801305264012  0.3022724954706816  0.18706854899641456  1.0000
  C   C56       1.0  0.8486994662584807  0.28312056431951044  0.296268875547895  1.0000
  C   C57       1.0  0.71420939430633  0.34673822574131913  0.3649135124120376  1.0000
  C   C58       1.0  0.7898536485507464  0.469366019930085  0.42906444538147076  1.0000
  C   C59       1.0  0.8809497367765359  0.5259426933838327  0.4489413264518732  1.0000
  C   C60       1.0  0.6870862759410629  0.4918751595219959  0.4512697241622519  1.0000
  C   C61       1.0  0.8662709273567727  0.6004880677415585  0.4898687966443447  1.0000
  C   C62       1.0  0.6814334903655636  0.5673519461661839  0.4927120896877355  1.0000
  C   C63       1.0  0.4580847971262259  0.3485993966593952  0.1435183830494893  1.0000
  C   C64       1.0  0.5418849419409284  0.36146287409082584  0.18005207409832022  1.0000
  C   C65       1.0  0.5499586702173076  0.2864174113434217  0.2223238179475047  1.0000
  C   C66       1.0  0.47141018274935936  0.20329488059240214  0.22614427329428818  1.0000
  C   C67       1.0  0.3907598609917855  0.19778664892308478  0.1870699301686045  1.0000
  C   C68       1.0  0.6513024827062566  0.21688665858993517  0.2962663526743299  1.0000
  C   C69       1.0  0.7857765724247798  0.15327540861862585  0.36491169684403957  1.0000
  C   C70       1.0  0.7101763325632363  0.03062543634020189  0.4290565322799722  1.0000
  C   C71       1.0  0.6191143949563055  0.9739914571486777  0.4489468486273722  1.0000
  C   C72       1.0  0.8129558615975938  0.0081129879213151  0.45125153105858834  1.0000
  C   C73       1.0  0.6338292270685953  0.8994680688421326  0.4898748790964333  1.0000
  C   C74       1.0  0.8186509186259413  0.9326368681140021  0.4926955681810981  1.0000
  C   C75       1.0  0.8486494413298045  0.5419237446791669  0.6435275062850678  1.0000
  C   C76       1.0  0.8614844406771524  0.4581176434419162  0.6800563047966435  1.0000
  C   C77       1.0  0.7864335283094732  0.4500469788038827  0.7223276127553433  1.0000
  C   C78       1.0  0.7033201176258145  0.5285947458078936  0.726150062724429  1.0000
  C   C79       1.0  0.6978248733263754  0.6092452891534136  0.6870741981826995  1.0000
  C   C80       1.0  0.7168872022798425  0.34871921217300883  0.7962609906876706  1.0000
  C   C81       1.0  0.6532616615270186  0.21424291014371724  0.8649086028202787  1.0000
  C   C82       1.0  0.5306239584526793  0.2898706192565824  0.929057414900832  1.0000
  C   C83       1.0  0.4740070735340325  0.38095371549078294  0.9489408494048064  1.0000
  C   C84       1.0  0.5081357105727448  0.18709889566036964  0.9512715413679516  1.0000
  C   C85       1.0  0.3994611903347689  0.3662508963275214  0.9898633214576124  1.0000
  C   C86       1.0  0.43266321583681133  0.18142796707829936  0.992714579992871  1.0000
  C   C87       1.0  0.6515040793125877  0.9580958428454734  0.643509712261192  1.0000
  C   C88       1.0  0.6386166343963708  0.0418978668212517  0.6800401580247099  1.0000
  C   C89       1.0  0.7136331970673311  0.049984795925723795  0.7223228143048176  1.0000
  C   C90       1.0  0.796755049262046  0.9714377645400629  0.7261470842451985  1.0000
  C   C91       1.0  0.8023162588465311  0.8908101700745232  0.6870591995312836  1.0000
  C   C92       1.0  0.7831255423051005  0.1513230498856473  0.7962783583005121  1.0000
  C   C93       1.0  0.8467154916793408  0.28582047072546857  0.864911958373284  1.0000
  C   C94       1.0  0.9693432831170553  0.2101942788158411  0.9290593137873486  1.0000
  C   C95       1.0  0.025959512857689004  0.11912119799474395  0.9489423130294979  1.0000
  C   C96       1.0  0.9918632965985594  0.3129659617570225  0.9512510449733468  1.0000
  C   C97       1.0  0.10049974913643207  0.13382230841434506  0.9898685659820217  1.0000
  C   C98       1.0  0.06734489133579298  0.31863951275566643  0.992696435464957  1.0000
  C   C99       1.0  0.7499918825538571  0.25000684872211554  0.33032743776789186  1.0000
  C   C100      1.0  0.7499895183409394  0.2500325390335334  0.8303275052649752  1.0000
  S   S1        1.0  0.7902249940131938  0.547194717203446  0.9107655629046647  1.0000
  S   S2        1.0  0.7098267681089824  0.9527729080685958  0.9107873367805867  1.0000
  S   S3        1.0  0.4528242425547688  0.2901689057477981  0.4107902378126056  1.0000
  S   S4        1.0  0.04726852566792421  0.20974357461589216  0.410787670993237  1.0000
  S   S5        1.0  0.2097462559057917  0.4527975132857236  0.08921421097142711  1.0000
  S   S6        1.0  0.2902082107593387  0.0472503706989968  0.0892303026629691  1.0000
  S   S7        1.0  0.547223809640535  0.7097522392613482  0.58923098885613  1.0000
  S   S8        1.0  0.9527885153541363  0.7902053507409618  0.5891996753262347  1.0000
  N   N1        1.0  0.8834475840110585  0.7678684203021502  0.8539625891648512  1.0000
  N   N2        1.0  0.2317001635795037  0.378677394167802  0.4875147245419882  1.0000
  N   N3        1.0  0.6164574575813404  0.7322529183937688  0.8539730652606679  1.0000
  N   N4        1.0  0.2683498456164131  0.1212341294235486  0.487512852939382  1.0000
  N   N5        1.0  0.2322127468227464  0.3834508333389976  0.35396750970828356  1.0000
  N   N6        1.0  0.6212475642447187  0.7317666156053516  0.9875134533976606  1.0000
  N   N7        1.0  0.2678558622418947  0.1164829946016113  0.35394532177321036  1.0000
  N   N8        1.0  0.8786625734173938  0.7683740891977278  0.9874998778073305  1.0000
  N   N9        1.0  0.11651712811944039  0.2322014318020108  0.1460407016377587  1.0000
  N   N10       1.0  0.7683846566742716  0.6212756163760743  0.5124917538979332  1.0000
  N   N11       1.0  0.3834721200138063  0.2678733116702858  0.1460485610545703  1.0000
  N   N12       1.0  0.7317276212947662  0.8787188811625553  0.5124888424739851  1.0000
  N   N13       1.0  0.7679178278270771  0.6165495669851778  0.6460557091254769  1.0000
  N   N14       1.0  0.3787040748369179  0.2683604314356813  0.012485054417354001  1.0000
  N   N15       1.0  0.7322526534661905  0.8835059669001806  0.6460372409597639  1.0000
  N   N16       1.0  0.1212621033185499  0.23171292158559  0.012488665487992998  1.0000
  O   O1        1.0  0.1343607664333533  0.800287976608068  0.7435482400012957  1.0000
  O   O2        1.0  0.1912808385486784  0.603664114289053  0.6105326684144785  1.0000
  O   O3        1.0  0.3656485761181473  0.699624639988791  0.7435241814360793  1.0000
  O   O4        1.0  0.3086972196757003  0.8963132935147722  0.6105362799475458  1.0000
  O   O5        1.0  0.19960940131187496  0.6342857198235378  0.2435181090597638  1.0000
  O   O6        1.0  0.39627790675275065  0.6912582677671751  0.11051870511879258  1.0000
  O   O7        1.0  0.30029436833399353  0.8656106507488629  0.24350834040899372  1.0000
  O   O8        1.0  0.1036158217310685  0.8086587721358426  0.1105194175556434  1.0000
  O   O9        1.0  0.8656546032889239  0.19966258307219678  0.256472189782869  1.0000
  O   O10       1.0  0.8087034834250914  0.39634609164333046  0.3894674334898127  1.0000
  O   O11       1.0  0.6343373801260058  0.3003528831547014  0.2564763190524957  1.0000
  O   O12       1.0  0.6912887365402726  0.1036666808368594  0.3894646191316795  1.0000
  O   O13       1.0  0.8003520436275834  0.3656599377424568  0.7564748184317835  1.0000
  O   O14       1.0  0.6036484048114232  0.3087421336465965  0.8894630621315754  1.0000
  O   O15       1.0  0.6996662596925276  0.1343701408176017  0.7564762166645451  1.0000
  O   O16       1.0  0.896314575054042  0.19131956837595956  0.8894671327574173  1.0000
