data_image0
_chemical_formula_structural       Mg2H14C14N2O12
_chemical_formula_sum              "Mg2 H14 C14 N2 O12"
_cell_length_a       7.218820175104649
_cell_length_b       7.854204700018776
_cell_length_c       7.85425748353197
_cell_angle_alpha    99.83279226029295
_cell_angle_beta     100.84512986890401
_cell_angle_gamma    100.84414207136808

_space_group_name_H-M_alt    "P 1"
_space_group_IT_number       1

loop_
  _space_group_symop_operation_xyz
  'x, y, z'

loop_
  _atom_site_type_symbol
  _atom_site_label
  _atom_site_symmetry_multiplicity
  _atom_site_fract_x
  _atom_site_fract_y
  _atom_site_fract_z
  _atom_site_occupancy
  Mg  Mg1       1.0  0.7500001268654657  0.3467588172786264  0.6532301343550913  1.0000
  Mg  Mg2       1.0  0.2500004093621015  0.6532406329902398  0.3467674200551655  1.0000
  H   H1        1.0  0.3963915221954153  0.1571724076089112  0.6096521257211335  1.0000
  H   H2        1.0  0.10360848477061779  0.390351049622268  0.8428297999035974  1.0000
  H   H3        1.0  0.6036072797505766  0.8428256678043765  0.3903487032961832  1.0000
  H   H4        1.0  0.896389551287541  0.6096496874314852  0.1571701081558813  1.0000
  H   H5        1.0  0.37853029834611374  0.31920017014347474  0.5145239662796826  1.0000
  H   H6        1.0  0.12146749445554408  0.48547888923688015  0.6808016066911973  1.0000
  H   H7        1.0  0.6214688273650071  0.6807992043513948  0.485479700190595  1.0000
  H   H8        1.0  0.8785319538600475  0.5145218400400893  0.3191998140625286  1.0000
  H   H9        1.0  0.7500027977564798  0.8326600300691778  0.16733885442107507  1.0000
  H   H10       1.0  0.2499972966385542  0.1673433669965974  0.8326618872766857  1.0000
  H   H11       1.0  0.7876267607477915  0.9530585138277629  0.657793974474451  1.0000
  H   H12       1.0  0.7123704292359818  0.3421969762980054  0.04692991805261924  1.0000
  H   H13       1.0  0.21237139366792235  0.04693696342237529  0.3422011796369445  1.0000
  H   H14       1.0  0.28763087200891857  0.6577998541057823  0.9530647449383377  1.0000
  C   C1        1.0  0.7500013890979247  0.9233526254963633  0.07664162811155942  1.0000
  C   C2        1.0  0.24999947060460675  0.076648137779209  0.9233574929592834  1.0000
  C   C3        1.0  0.760809049053421  0.8657747180013329  0.9011431985633107  1.0000
  C   C4        1.0  0.7391956743640762  0.0988522948526409  0.13421621048983198  1.0000
  C   C5        1.0  0.23919148746431063  0.13422471834239494  0.09885562663932745  1.0000
  C   C6        1.0  0.2608069202003733  0.9011498154282408  0.8657821775587065  1.0000
  C   C7        1.0  0.7670768441818865  0.988755085110334  0.791693977620987  1.0000
  C   C8        1.0  0.732919048062847  0.20830767623657925  0.011240565062443919  1.0000
  C   C9        1.0  0.23292228036856952  0.011244345085053502  0.20830460567977838  1.0000
  C   C10       1.0  0.2670807225670515  0.7916944217476212  0.9887573391823492  1.0000
  C   C11       1.0  0.7657571399732319  0.6771619060457751  0.8319192899620019  1.0000
  C   C12       1.0  0.7342488910003482  0.16808592101162392  0.322828221482375  1.0000
  C   C13       1.0  0.23424307423019286  0.3228361615907217  0.16808305174956925  1.0000
  C   C14       1.0  0.265752615071797  0.8319174961276231  0.67717149132487  1.0000
  N   N1        1.0  0.749999326573338  0.15634281061009864  0.8436503496395459  1.0000
  N   N2        1.0  0.24999947479231818  0.8436552926534586  0.15634793779302206  1.0000
  O   O1        1.0  0.7890469827977853  0.5748578011706086  0.938713798458295  1.0000
  O   O2        1.0  0.7109524243897454  0.061283901308250684  0.42513652622558595  1.0000
  O   O3        1.0  0.21095311217758447  0.42514556804490405  0.06128948482422199  1.0000
  O   O4        1.0  0.2890481121279862  0.9387155350354844  0.5748622989770523  1.0000
  O   O5        1.0  0.45749511770437595  0.2834340861535054  0.615059305036496  1.0000
  O   O6        1.0  0.04250722858011361  0.3849403432604177  0.7165654372798043  1.0000
  O   O7        1.0  0.5425054196838558  0.716565308414836  0.3849433325432796  1.0000
  O   O8        1.0  0.9574936314125891  0.6150604060900233  0.2834349545834127  1.0000
  O   O9        1.0  0.7447132165543876  0.620915782421882  0.6648162030558993  1.0000
  O   O10       1.0  0.7552886093856584  0.3351825840022897  0.3790732264252624  1.0000
  O   O11       1.0  0.2552824385624107  0.3790809398377562  0.3351851170818634  1.0000
  O   O12       1.0  0.24471257350167971  0.6648195062051201  0.620926190513785  1.0000
