data_image0
_chemical_formula_structural       Al6H62C102O31
_chemical_formula_sum              "Al6 H62 C102 O31"
_cell_length_a       12.926732107061419
_cell_length_b       12.707559063221728
_cell_length_c       27.818781158312785
_cell_angle_alpha    89.80904757084798
_cell_angle_beta     90.43189167431775
_cell_angle_gamma    59.04847510048346

_space_group_name_H-M_alt    "P 1"
_space_group_IT_number       1

loop_
  _space_group_symop_operation_xyz
  'x, y, z'

loop_
  _atom_site_type_symbol
  _atom_site_label
  _atom_site_symmetry_multiplicity
  _atom_site_fract_x
  _atom_site_fract_y
  _atom_site_fract_z
  _atom_site_occupancy
  Al  Al1       1.0  0.4101352977623663  0.19000242789567784  0.4976092400556098  1.0000
  Al  Al2       1.0  0.4116995342040681  0.9375091289860793  0.4966405841619732  1.0000
  Al  Al3       1.0  0.650591093603694  0.9228192298949124  0.49861997504783767  1.0000
  Al  Al4       1.0  0.9254557806338682  0.158919163870415  0.9851609105382124  1.0000
  Al  Al5       1.0  0.6697619322064841  0.41001294499864116  0.9834940368737861  1.0000
  Al  Al6       1.0  0.8947208986842697  0.4243961354355008  0.9827635722336082  1.0000
  H   H1        1.0  0.17975887829616244  0.34333709872795753  0.1939453612704938  1.0000
  H   H2        1.0  0.1198445582330407  0.04083190512772461  0.2834352746271733  1.0000
  H   H3        1.0  0.4382721371687666  0.778537966262512  0.6228702929394032  1.0000
  H   H4        1.0  0.8008858690656243  0.6972413754558247  0.776884424349454  1.0000
  H   H5        1.0  0.8259815980476757  0.6471275928233882  0.8640380560593144  1.0000
  H   H6        1.0  0.4625774229107549  0.7288011766877888  0.7099657991030597  1.0000
  H   H7        1.0  0.5315765763300462  0.5937151561833076  0.7673767936495892  1.0000
  H   H8        1.0  0.5508125620160415  0.5541034463615375  0.8553391687416791  1.0000
  H   H9        1.0  0.8357023456101802  0.6287323720287077  0.7025925922913457  1.0000
  H   H10       1.0  0.46276932886111416  0.6973955108464127  0.19521621662968866  1.0000
  H   H11       1.0  0.8072333170207102  0.686875131394551  0.6162072966445606  1.0000
  H   H12       1.0  0.7209950351117057  0.9236211142541325  0.6356319839292085  1.0000
  H   H13       1.0  0.5107881089543158  0.3435236554457077  0.7692405536330114  1.0000
  H   H14       1.0  0.5296156981912217  0.3798136325438082  0.8559921349711316  1.0000
  H   H15       1.0  0.7370927978865042  0.9516116642218864  0.7232214183291886  1.0000
  H   H16       1.0  0.8405782108866404  0.992935886634591  0.7802609247248355  1.0000
  H   H17       1.0  0.8557087826116286  0.029509611980316208  0.8673977986980715  1.0000
  H   H18       1.0  0.6016702058553492  0.3357500159864131  0.6973134912393562  1.0000
  H   H19       1.0  0.2346683519079846  0.3062236220014043  0.6170536993570934  1.0000
  H   H20       1.0  0.8225410637330983  0.6393875873136777  0.1960111854023552  1.0000
  H   H21       1.0  0.005305972548740097  0.13143690732194813  0.7564819383078287  1.0000
  H   H22       1.0  0.9570781669652392  0.15619620788831412  0.8434465680435252  1.0000
  H   H23       1.0  0.16963656648969316  0.3466384058630609  0.7027270511638831  1.0000
  H   H24       1.0  0.2384792943424544  0.2766115651577151  0.77916616012687  1.0000
  H   H25       1.0  0.1581575844382215  0.013773638738769004  0.7063871763546175  1.0000
  H   H26       1.0  0.21976235363090527  0.9766458979741729  0.6205851844215572  1.0000
  H   H27       1.0  0.8576064905537562  0.9950366568758259  0.2854262841818951  1.0000
  H   H28       1.0  0.8600730331504423  0.0192019697652199  0.19652314162311768  1.0000
  H   H29       1.0  0.49643457907261296  0.3114526898787561  0.28885426182871754  1.0000
  H   H30       1.0  0.20879799913827674  0.3238106689014302  0.283093373560213  1.0000
  H   H31       1.0  0.422700092183362  0.573517857129403  0.2592093733667014  1.0000
  H   H32       1.0  0.24390355991899074  0.6055678135373628  0.303793044448497  1.0000
  H   H33       1.0  0.1433177250522347  0.7772567894082629  0.3622428276261118  1.0000
  H   H34       1.0  0.22071812413777528  0.9195619692573518  0.3737422338809964  1.0000
  H   H35       1.0  0.3959825096432895  0.8900888015337076  0.3279528992065934  1.0000
  H   H36       1.0  0.9812814828277256  0.14683944678406394  0.1306666991088647  1.0000
  H   H37       1.0  0.9571321870286204  0.9920738251262762  0.0887438157802833  1.0000
  H   H38       1.0  0.040350695966829095  0.7829699966019281  0.12483741720163269  1.0000
  H   H39       1.0  0.15306694654220376  0.7326981653890883  0.2033265544934935  1.0000
  H   H40       1.0  0.1943658233274733  0.8813846656308117  0.2412359894748306  1.0000
  H   H41       1.0  0.7121122154075297  0.24149917371328666  0.5504713748865839  1.0000
  H   H42       1.0  0.639985217739209  0.4200210663173324  0.4954681522785406  1.0000
  H   H43       1.0  0.45775095029373625  0.6198048329190656  0.5157650205898037  1.0000
  H   H44       1.0  0.34653693627345206  0.6389213106366186  0.5911643042167682  1.0000
  H   H45       1.0  0.4181156507140999  0.4593497505779424  0.6459188700475664  1.0000
  H   H46       1.0  0.2311017012279423  0.42194541021169835  0.8294833886875493  1.0000
  H   H47       1.0  0.3538515671624083  0.2715915472637179  0.8439120567558334  1.0000
  H   H48       1.0  0.34391232031825325  0.33231399113124394  0.9306006759187113  1.0000
  H   H49       1.0  0.3660892028552639  0.4322312704251346  0.8930957814854352  1.0000
  H   H50       1.0  0.2204277859086261  0.4815669509916349  0.9166069010353154  1.0000
  H   H51       1.0  0.7887896488432562  0.8474849938773944  0.2808448170400766  1.0000
  H   H52       1.0  0.8943064740872017  0.7399653811254794  0.23924824809441247  1.0000
  H   H53       1.0  0.04430544999455322  0.635741329348015  0.307146931385283  1.0000
  H   H54       1.0  0.0023977332143017686  0.791910695537567  0.300284206186589  1.0000
  H   H55       1.0  0.9400559523720065  0.7475374416435514  0.3478381332259843  1.0000
  H   H56       1.0  0.5621765392218876  0.3989864743410224  0.1423267364528797  1.0000
  H   H57       1.0  0.5326295420753767  0.4869568324554194  0.1955789413593152  1.0000
  H   H58       1.0  0.3090718803160613  0.5855061806519616  0.17821599426425647  1.0000
  H   H59       1.0  0.38367401781108873  0.6111319416555363  0.13008708631978289  1.0000
  H   H60       1.0  0.34261513595535587  0.4979199962727563  0.124524111093244  1.0000
  H   H61       1.0  0.34465576508510043  0.38978840872709974  0.4708047658805938  1.0000
  H   H62       1.0  0.006505375633309898  0.9537523642223608  0.9626457956127368  1.0000
  C   C1        1.0  0.2792314883891862  0.11650602335085135  0.4273322477045909  1.0000
  C   C2        1.0  0.7413722176335612  0.6596295583915648  0.2152704370010454  1.0000
  C   C3        1.0  0.7347326049580758  0.677133027749861  0.2647984337743026  1.0000
  C   C4        1.0  0.6306411855412717  0.6997709530448903  0.29037359957088427  1.0000
  C   C5        1.0  0.6440356511605285  0.6645011090452186  0.1900983173803041  1.0000
  C   C6        1.0  0.6550204064101592  0.638820758952619  0.1402137346353314  1.0000
  C   C7        1.0  0.6275221201612098  0.7170186896433748  0.34056359741988723  1.0000
  C   C8        1.0  0.6702385473465428  0.6111531234521124  0.09780687998602389  1.0000
  C   C9        1.0  0.6592419215821508  0.11702294513633402  0.3852169968896533  1.0000
  C   C10       1.0  0.7795955987166322  0.0683859491216197  0.2665475933084096  1.0000
  C   C11       1.0  0.7812396944672673  0.08225057612379771  0.21727609125181857  1.0000
  C   C12       1.0  0.5969226483585502  0.7877371557912698  0.43078851941098856  1.0000
  C   C13       1.0  0.5782495347101528  0.26327700778438173  0.2193122904072879  1.0000
  C   C14       1.0  0.5760568693950106  0.24705677153339428  0.2687645482499335  1.0000
  C   C15       1.0  0.67575422092267  0.14948593324481863  0.2927651038080299  1.0000
  C   C16       1.0  0.6808184322182952  0.17826987431122632  0.19257607218889913  1.0000
  C   C17       1.0  0.6855459472512706  0.18931086643269884  0.1423207062888352  1.0000
  C   C18       1.0  0.6694630879696959  0.1323110793370148  0.3426426470309067  1.0000
  C   C19       1.0  0.6922291801627267  0.20257770574249184  0.0992395810573896  1.0000
  C   C20       1.0  0.2220114222657656  0.14361451092590022  0.3807674005863078  1.0000
  C   C21       1.0  0.18298499498905585  0.266752451974817  0.2633866879261291  1.0000
  C   C22       1.0  0.1668401863186375  0.27728264520468576  0.21404454240521179  1.0000
  C   C23       1.0  0.6278762160904634  0.09537752536385108  0.43210260823341423  1.0000
  C   C24       1.0  0.11897570266016538  0.11299489712575195  0.21310772898311112  1.0000
  C   C25       1.0  0.1334511744443603  0.10610886039657431  0.2631901551011993  1.0000
  C   C26       1.0  0.16711817926646694  0.17944213245330332  0.28856676667223974  1.0000
  C   C27       1.0  0.1361357350270039  0.20131659975280775  0.18818069400742127  1.0000
  C   C28       1.0  0.12303476405293881  0.21648655961507762  0.1377615815921871  1.0000
  C   C29       1.0  0.1919250825944303  0.16177761718962103  0.338507877199639  1.0000
  C   C30       1.0  0.10707174562620027  0.23366867741014374  0.09444526415792609  1.0000
  C   C31       1.0  0.6208444473883786  0.736332170056997  0.6142048605105259  1.0000
  C   C32       1.0  0.5250004799624011  0.7450024617497774  0.6407415553707878  1.0000
  C   C33       1.0  0.5396880557119489  0.7160925123041153  0.6894734243372653  1.0000
  C   C34       1.0  0.2785920325209261  0.11290452740564662  0.5642671693899075  1.0000
  C   C35       1.0  0.650745477645728  0.6759010683567014  0.713131950924783  1.0000
  C   C36       1.0  0.7475181456352968  0.6636225195845287  0.6856482213371393  1.0000
  C   C37       1.0  0.732742758009458  0.694278794591206  0.6370492671482494  1.0000
  C   C38       1.0  0.746742786363896  0.6641829450935433  0.7936208523357138  1.0000
  C   C39       1.0  0.7598957623544039  0.6383382263485589  0.8426502255459025  1.0000
  C   C40       1.0  0.6043371758014118  0.5864134734707209  0.8376666782140774  1.0000
  C   C41       1.0  0.5935601139522363  0.6096144790420797  0.7885110095566575  1.0000
  C   C42       1.0  0.6640640132121259  0.6495235928718872  0.7653545152703245  1.0000
  C   C43       1.0  0.6881975912741255  0.5996934260283879  0.8652526598551444  1.0000
  C   C44       1.0  0.6475048076398551  0.1138226455032481  0.6178842694360752  1.0000
  C   C45       1.0  0.5991532984111958  0.784639278020272  0.5642386853077141  1.0000
  C   C46       1.0  0.6957949021298477  0.0135534477099313  0.6496894383410066  1.0000
  C   C47       1.0  0.7049047961890764  0.0294890223276454  0.6986038782107045  1.0000
  C   C48       1.0  0.667442185120926  0.14675175325095322  0.716661678816301  1.0000
  C   C49       1.0  0.6238994875153523  0.24574290139732113  0.6841982208086748  1.0000
  C   C50       1.0  0.6128777719866534  0.23201870264422556  0.6348746586954376  1.0000
  C   C51       1.0  0.5870056888593923  0.27468118147879045  0.7905877475626966  1.0000
  C   C52       1.0  0.5962365500992917  0.2948204263429374  0.8390424879773021  1.0000
  C   C53       1.0  0.7798850063669674  0.09667873577480893  0.8455128778649196  1.0000
  C   C54       1.0  0.7706328861854104  0.07680396174555433  0.7970108115396144  1.0000
  C   C55       1.0  0.6748504173836737  0.16589388075459516  0.768505246301622  1.0000
  C   C56       1.0  0.6169219004652504  0.09371594731521075  0.5683438286357188  1.0000
  C   C57       1.0  0.6931574731676022  0.2065794385982045  0.866917787483807  1.0000
  C   C58       1.0  0.2306780338881396  0.13941189992268482  0.613851913871656  1.0000
  C   C59       1.0  0.21659015895069436  0.24370938117358787  0.6371641601233193  1.0000
  C   C60       1.0  0.1816766697130064  0.26470833376377817  0.6849741603991006  1.0000
  C   C61       1.0  0.15991905748147422  0.18264985438421633  0.7107675532685249  1.0000
  C   C62       1.0  0.1728248129167724  0.07927455172431763  0.6867169645265461  1.0000
  C   C63       1.0  0.2078107215352745  0.057732325449670406  0.6389337805677329  1.0000
  C   C64       1.0  0.04636521013367203  0.16802102817132442  0.7803105059129649  1.0000
  C   C65       1.0  0.017958283709028  0.18327416380922307  0.82879335882712  1.0000
  C   C66       1.0  0.14301239553775955  0.2717881553941127  0.8417899053752365  1.0000
  C   C67       1.0  0.6217726233724151  0.7358300462305535  0.38373359470244134  1.0000
  C   C68       1.0  0.17351589014693047  0.25422734883758846  0.7930252234609441  1.0000
  C   C69       1.0  0.1256116213553895  0.20258683727305282  0.7618927350726068  1.0000
  C   C70       1.0  0.0640160737907252  0.23559398707507034  0.8601249801068818  1.0000
  C   C71       1.0  0.7212670662587044  0.23065089224287053  0.05312330733428179  1.0000
  C   C72       1.0  0.7002629896476692  0.5576119248341557  0.0508523786419062  1.0000
  C   C73       1.0  0.05117386879774701  0.2565170536932015  0.047812760076737994  1.0000
  C   C74       1.0  0.7116003784889458  0.23347590153952075  0.9170913236801823  1.0000
  C   C75       1.0  0.708887175392114  0.560036397366986  0.9163733305181196  1.0000
  C   C76       1.0  0.023547309986490475  0.252538652293815  0.9108741746816378  1.0000
  C   C77       1.0  0.5314099444187265  0.7064461722987474  0.2647912829779955  1.0000
  C   C78       1.0  0.5393112581262614  0.6895328665436864  0.2151410004361836  1.0000
  C   C79       1.0  0.42226173381011756  0.729174805291585  0.2905994196477124  1.0000
  C   C80       1.0  0.3771298233920461  0.6505675507960333  0.2837283740141601  1.0000
  C   C81       1.0  0.2769987831281782  0.668173492512075  0.3091593183849781  1.0000
  C   C82       1.0  0.22047162541144866  0.7645179814561947  0.34178334923091563  1.0000
  C   C83       1.0  0.2637734613386586  0.84406065948005  0.3484259779557561  1.0000
  C   C84       1.0  0.36364527843951333  0.8268221449861174  0.3228825655175172  1.0000
  C   C85       1.0  0.09218214405035502  0.026174486145386307  0.18873301640044096  1.0000
  C   C86       1.0  0.02327598556862401  0.055121633828314  0.1460972605895989  1.0000
  C   C87       1.0  0.006462397417728033  0.9678358674279227  0.1228158033398898  1.0000
  C   C88       1.0  0.053281865924617415  0.8512238292674258  0.14311554749867375  1.0000
  C   C89       1.0  0.11709900226222221  0.8228003425760163  0.1866869251213643  1.0000
  C   C90       1.0  0.13853899438083056  0.9080289639116971  0.2087670300726714  1.0000
  C   C91       1.0  0.5702680215310422  0.3385681832552763  0.6021042450847389  1.0000
  C   C92       1.0  0.6317297752744012  0.32873701703613284  0.5594042507970372  1.0000
  C   C93       1.0  0.5914795058100567  0.42924920460823296  0.52859053008995  1.0000
  C   C94       1.0  0.48913937076842723  0.5413590897988386  0.5399731001320305  1.0000
  C   C95       1.0  0.4276158010621671  0.5522119544278327  0.5824311163410343  1.0000
  C   C96       1.0  0.4680620636602982  0.4517640592410857  0.6133632441358756  1.0000
  C   C97       1.0  0.2727109295306889  0.3523418815103484  0.8584593639466717  1.0000
  C   C98       1.0  0.3024614595911572  0.40267635245846395  0.9022597155070855  1.0000
  C   C99       1.0  0.8665726510393056  0.7534980222191696  0.2771967485797262  1.0000
  C   C100      1.0  0.9692190252041545  0.7308576931016761  0.310257601279936  1.0000
  C   C101      1.0  0.49618515059891183  0.4462637772226756  0.1707302927833751  1.0000
  C   C102      1.0  0.37560940583512803  0.5406357495856327  0.14975300227709445  1.0000
  O   O1        1.0  0.5285810898245202  0.17784240720098413  0.4490440164763214  1.0000
  O   O2        1.0  0.4988140911516085  0.8133894751752494  0.5438758971071209  1.0000
  O   O3        1.0  0.6793850688016434  0.8022253526579349  0.5454152173837628  1.0000
  O   O4        1.0  0.6938660934161119  0.9928819370762484  0.5474766245228508  1.0000
  O   O5        1.0  0.4921783892199443  0.014631122227577004  0.4968918905818355  1.0000
  O   O6        1.0  0.03342356792725099  0.17490799920753375  0.0308713871793742  1.0000
  O   O7        1.0  0.8297730128225922  0.16415658547982304  0.0404192943883217  1.0000
  O   O8        1.0  0.6370887937329711  0.3236435089832312  0.0296443287338519  1.0000
  O   O9        1.0  0.6274122922084758  0.5289551212915385  0.0316373055328256  1.0000
  O   O10       1.0  0.7993460019249101  0.5372982711994397  0.0328354407747327  1.0000
  O   O11       1.0  0.01705918843698837  0.36220831077989873  0.0282213470431927  1.0000
  O   O12       1.0  0.3151648837448634  0.1863968870980344  0.44183292402330204  1.0000
  O   O13       1.0  0.004248362843924301  0.171912379522638  0.9282270976468964  1.0000
  O   O14       1.0  0.8070193734971841  0.156664163508772  0.9391062494362004  1.0000
  O   O15       1.0  0.6302597212132852  0.33827174695039025  0.9342543949248138  1.0000
  O   O16       1.0  0.6363665078603591  0.5326081896358091  0.9358479414545469  1.0000
  O   O17       1.0  0.8030392680734622  0.5483791039866903  0.9374984588931738  1.0000
  O   O18       1.0  0.004476699317002949  0.3496297045635401  0.9330633072579033  1.0000
  O   O19       1.0  0.8281234638282625  0.3333865032685069  0.9839852645136418  1.0000
  O   O20       1.0  0.2930768070849084  0.020189369154771  0.4494541544556867  1.0000
  O   O21       1.0  0.4941332323059982  0.8176852399949796  0.4487232229152838  1.0000
  O   O22       1.0  0.6759012495167342  0.8063862341737933  0.4504280665566042  1.0000
  O   O23       1.0  0.7018984540608246  0.9907981847513908  0.452076211895573  1.0000
  O   O24       1.0  0.5148221244461553  0.17241894558460302  0.5517139558951811  1.0000
  O   O25       1.0  0.30073862663333273  0.18845302732158598  0.5443208310925343  1.0000
  O   O26       1.0  0.2993472514098201  0.010956242768621402  0.5452652683521251  1.0000
  O   O27       1.0  0.18858812177615658  0.3176193203916924  0.8739921474528669  1.0000
  O   O28       1.0  0.8282311049260543  0.6687739166072576  0.2910208570032964  1.0000
  O   O29       1.0  0.47804863227388955  0.3593380648828061  0.19836363628639478  1.0000
  O   O30       1.0  0.3337295683591607  0.35070453991296807  0.4985531073604649  1.0000
  O   O31       1.0  0.013122854970987304  0.9980947164115863  0.989475973321909  1.0000
