data_image0
_chemical_formula_structural       Cu4H24C36S12N20
_chemical_formula_sum              "Cu4 H24 C36 S12 N20"
_cell_length_a       8.390956126274226
_cell_length_b       11.077081612349426
_cell_length_c       13.788697898052321
_cell_angle_alpha    90.00023126356143
_cell_angle_beta     90.00012027521058
_cell_angle_gamma    111.14946274562355

_space_group_name_H-M_alt    "P 1"
_space_group_IT_number       1

loop_
  _space_group_symop_operation_xyz
  'x, y, z'

loop_
  _atom_site_type_symbol
  _atom_site_label
  _atom_site_symmetry_multiplicity
  _atom_site_fract_x
  _atom_site_fract_y
  _atom_site_fract_z
  _atom_site_occupancy
  Cu  Cu1       1.0  0.7503320148820833  0.604493513328208  0.7455091363545204  1.0000
  Cu  Cu2       1.0  0.24966971480031958  0.895510455240569  0.24550776808334962  1.0000
  Cu  Cu3       1.0  0.24966360275332997  0.3955114711258503  0.2544911175544583  1.0000
  Cu  Cu4       1.0  0.7503324407248827  0.1044906911630079  0.7544924858234976  1.0000
  H   H1        1.0  0.007074402524118303  0.0296309678090836  0.1914467016244784  1.0000
  H   H2        1.0  0.992931054993818  0.47036887354581586  0.6914495791628564  1.0000
  H   H3        1.0  0.9929289470330146  0.9703701834074822  0.8085506513565829  1.0000
  H   H4        1.0  0.0070654141542336275  0.5296303176512751  0.30854777381060206  1.0000
  H   H5        1.0  0.7636045373595123  0.0682689497476474  0.2767431906142973  1.0000
  H   H6        1.0  0.23639995473567418  0.4317256683766289  0.776746428084557  1.0000
  H   H7        1.0  0.23639835709719403  0.9317312335163024  0.7232541623648812  1.0000
  H   H8        1.0  0.7635961718930844  0.5682677247504985  0.22325092487917422  1.0000
  H   H9        1.0  0.6649008893352645  0.9524722279358359  0.4370106173557175  1.0000
  H   H10       1.0  0.335096377602632  0.5475233577232644  0.9370170716274654  1.0000
  H   H11       1.0  0.3350996170332934  0.04752794567748711  0.5629852851586461  1.0000
  H   H12       1.0  0.6649002041314133  0.4524710033614099  0.06298173180142187  1.0000
  H   H13       1.0  0.4987001013685062  0.35588585789156474  0.651608476395786  1.0000
  H   H14       1.0  0.5012991191772896  0.14411368860381665  0.15160805448414283  1.0000
  H   H15       1.0  0.5012936958676164  0.6441152547545173  0.3483925027373259  1.0000
  H   H16       1.0  0.49870258125476863  0.855886489854541  0.8483943751157522  1.0000
  H   H17       1.0  0.43595885904583304  0.265368761030679  0.4816625819012186  1.0000
  H   H18       1.0  0.564042967931364  0.23462626725795838  0.9816619640539339  1.0000
  H   H19       1.0  0.5640414760825081  0.7346285135673797  0.5183391224614053  1.0000
  H   H20       1.0  0.43596600931955026  0.7653691100078319  0.018336839384517092  1.0000
  H   H21       1.0  0.641839760862986  0.3858541235714342  0.3495858999459711  1.0000
  H   H22       1.0  0.3581594200259133  0.11414386449521173  0.8495875255118148  1.0000
  H   H23       1.0  0.358165350429502  0.6141431703155646  0.6504150791880787  1.0000
  H   H24       1.0  0.6418433031954223  0.885853419758405  0.1504170797789043  1.0000
  C   C1        1.0  0.9826061896328897  0.859932075449045  0.3897219388085559  1.0000
  C   C2        1.0  0.01739661828651165  0.6400680430702723  0.8897268414556262  1.0000
  C   C3        1.0  0.017396704831099917  0.1400681078223016  0.6102775898655464  1.0000
  C   C4        1.0  0.9826010449153272  0.3599311529619911  0.11027413767680365  1.0000
  C   C5        1.0  0.9610789604885852  0.9866839216627383  0.2619290655808725  1.0000
  C   C6        1.0  0.038925947500892795  0.5133114758718591  0.7619321293900253  1.0000
  C   C7        1.0  0.0389234788749775  0.013315293655999504  0.7380704630913539  1.0000
  C   C8        1.0  0.9610679623066575  0.4866848066470125  0.23806594880866772  1.0000
  C   C9        1.0  0.8262850564200689  0.0071382186591221995  0.30857499744894296  1.0000
  C   C10       1.0  0.1737166930581965  0.49286046831328184  0.8085798060673495  1.0000
  C   C11       1.0  0.1737206812179225  0.9928629422006808  0.6914216303020095  1.0000
  C   C12       1.0  0.8262763065484862  0.5071338783003725  0.19141827212759915  1.0000
  C   C13       1.0  0.772650277756938  0.9439755742970987  0.39676321691931077  1.0000
  C   C14       1.0  0.22735331625379027  0.5560236289462707  0.8967688365750701  1.0000
  C   C15       1.0  0.22734903458454167  0.056024594508159  0.6032370369841257  1.0000
  C   C16       1.0  0.7726405935610431  0.44397265357999766  0.10323141731855397  1.0000
  C   C17       1.0  0.580885093171574  0.40087141236067236  0.590438214561402  1.0000
  C   C18       1.0  0.4191138890332055  0.09913061745589147  0.09043463945904757  1.0000
  C   C19       1.0  0.4191122861991944  0.5991297147638194  0.40956566550057955  1.0000
  C   C20       1.0  0.5808830352177099  0.900869541696274  0.9095634387479306  1.0000
  C   C21       1.0  0.5470961554222882  0.35131979969265364  0.49714431350246696  1.0000
  C   C22       1.0  0.4529021931097148  0.1486753193545596  0.9971483487411272  1.0000
  C   C23       1.0  0.45290508989719314  0.6486794108007743  0.5028544899373485  1.0000
  C   C24       1.0  0.5471053062830508  0.8513219841953943  0.0028577070159485993  1.0000
  C   C25       1.0  0.6597041077929334  0.41893962928617884  0.4246938552311902  1.0000
  C   C26       1.0  0.34029353043008836  0.08106465760839401  0.9246902728941319  1.0000
  C   C27       1.0  0.34029685370519763  0.5810615123093328  0.5753107500647372  1.0000
  C   C28       1.0  0.6597076022961235  0.9189393829900543  0.07530490439533107  1.0000
  C   C29       1.0  0.8158399681068857  0.5673591034535194  0.534565341226674  1.0000
  C   C30       1.0  0.18415659573682325  0.9326405180772994  0.03456546176956009  1.0000
  C   C31       1.0  0.1841567849013757  0.432638156680916  0.4654378135969208  1.0000
  C   C32       1.0  0.8158382242788703  0.06735770035418652  0.9654347921278156  1.0000
  C   C33       1.0  0.6274749261115815  0.32446677216245234  0.8060494857070493  1.0000
  C   C34       1.0  0.3725249321097692  0.1755405850635938  0.3060417505067291  1.0000
  C   C35       1.0  0.37252740069026663  0.6755372732933437  0.19395584482614933  1.0000
  C   C36       1.0  0.6274765431284522  0.824469253597421  0.6939512510975373  1.0000
  S   S1        1.0  0.10783925098689913  0.7753690237186177  0.43873384765181084  1.0000
  S   S2        1.0  0.8921629749007068  0.7246294919623254  0.9387357907062035  1.0000
  S   S3        1.0  0.8921638147391632  0.22463405859016922  0.5612664062587951  1.0000
  S   S4        1.0  0.10783736022277422  0.275367782630802  0.06126446319314029  1.0000
  S   S5        1.0  0.9853131415880726  0.7107958369275806  0.5685108766144606  1.0000
  S   S6        1.0  0.01468620890441506  0.7892069239821993  0.06851393689826317  1.0000
  S   S7        1.0  0.014686342020347465  0.2892072309200486  0.43149155298875985  1.0000
  S   S8        1.0  0.9853142974835691  0.2107932496508411  0.9314877674692209  1.0000
  S   S9        1.0  0.5535105506259725  0.43437378303294594  0.842336584005174  1.0000
  S   S10       1.0  0.4464898344222803  0.0656318897233277  0.3423322086515269  1.0000
  S   S11       1.0  0.4464868287423729  0.5656273440890801  0.1576665708251638  1.0000
  S   S12       1.0  0.5535111857227906  0.9343769809924681  0.6576629686457803  1.0000
  N   N1        1.0  0.8508054362000694  0.8701063612046199  0.4375799075143119  1.0000
  N   N2        1.0  0.14919393877779194  0.6298911690366821  0.9375820437594908  1.0000
  N   N3        1.0  0.1491970031586334  0.1298928541091868  0.5624181706946343  1.0000
  N   N4        1.0  0.8508007099709687  0.3701041503524324  0.06241603443810108  1.0000
  N   N5        1.0  0.7163974850219788  0.5085348319070989  0.6105868629092296  1.0000
  N   N6        1.0  0.2836003267967232  0.9914643431248538  0.11058730310136156  1.0000
  N   N7        1.0  0.2836003494370801  0.49146726315768063  0.38941339099643085  1.0000
  N   N8        1.0  0.7164001795961212  0.008535830513118004  0.8894158517294029  1.0000
  N   N9        1.0  0.6784035407016304  0.24395062557579192  0.7781141885168023  1.0000
  N   N10       1.0  0.3215995413482062  0.2560536572555847  0.2781110039458098  1.0000
  N   N11       1.0  0.3216026520513609  0.7560515032514062  0.22188679062586655  1.0000
  N   N12       1.0  0.6784031279486556  0.7439561862455335  0.7218870742807082  1.0000
  N   N13       1.0  0.03948609891006797  0.9115377791447514  0.30150859732359686  1.0000
  N   N14       1.0  0.9605177674844965  0.5884627126676492  0.8015138069348279  1.0000
  N   N15       1.0  0.9605179895931355  0.0884624089469881  0.6984902061196291  1.0000
  N   N16       1.0  0.03947870167812082  0.41153647854422093  0.19848789742847114  1.0000
  N   N17       1.0  0.7933669436957729  0.5278959609609118  0.4426747871473962  1.0000
  N   N18       1.0  0.2066263239330439  0.9720986807591883  0.9426781191332122  1.0000
  N   N19       1.0  0.20663458547178246  0.4721013184575397  0.5573261919843515  1.0000
  N   N20       1.0  0.7933690637763604  0.027895675519879103  0.057325760916391674  1.0000
