data_image0
_chemical_formula_structural       K4V4H48C48N8O36
_chemical_formula_sum              "K4 V4 H48 C48 N8 O36"
_cell_length_a       9.552302807
_cell_length_b       12.825429669259478
_cell_length_c       13.8879
_cell_angle_alpha    90.0
_cell_angle_beta     90.0
_cell_angle_gamma    97.45382146087462

_space_group_name_H-M_alt    "P 1"
_space_group_IT_number       1

loop_
  _space_group_symop_operation_xyz
  'x, y, z'

loop_
  _atom_site_type_symbol
  _atom_site_label
  _atom_site_symmetry_multiplicity
  _atom_site_fract_x
  _atom_site_fract_y
  _atom_site_fract_z
  _atom_site_occupancy
  K   K1        1.0  0.4056396402273705  0.9603782805928844  0.6440973797334381  1.0000
  K   K2        1.0  0.4056352427667349  0.4603787305399507  0.855906220522904  1.0000
  K   K3        1.0  0.5943633525691111  0.0396192468213812  0.3559019002152937  1.0000
  K   K4        1.0  0.5943607839992779  0.5396148651453103  0.1440851388618896  1.0000
  V   V1        1.0  0.6327902144413569  0.9105774283443253  0.8445582125447332  1.0000
  V   V2        1.0  0.6327841341382836  0.4105802373287943  0.6554432275578037  1.0000
  V   V3        1.0  0.36721487209108966  0.0894200990699403  0.1554468278141385  1.0000
  V   V4        1.0  0.3672145830698383  0.5894227945060777  0.3445574924934647  1.0000
  H   H1        1.0  0.5660338479821689  0.12154468406505  0.9132266217354683  1.0000
  H   H2        1.0  0.5660336959254266  0.6215481658469884  0.5867740983158001  1.0000
  H   H3        1.0  0.43396955570783985  0.8784552023866113  0.0867755384183369  1.0000
  H   H4        1.0  0.4339642483437273  0.3784564386794785  0.41322662173546837  1.0000
  H   H5        1.0  0.6950326315176767  0.2982633212346997  0.963465318730691  1.0000
  H   H6        1.0  0.6950341623033793  0.7982644439792352  0.5365361213718387  1.0000
  H   H7        1.0  0.30496804246190823  0.7017389242543643  0.036534681269309  1.0000
  H   H8        1.0  0.3049648288337607  0.20174016054723157  0.4634660387819594  1.0000
  H   H9        1.0  0.9589579758429281  0.3212977487739721  0.964736929269364  1.0000
  H   H10       1.0  0.9589581858316192  0.8212972988269058  0.5352623506793677  1.0000
  H   H11       1.0  0.04104206216220521  0.6787068557524947  0.0352594704743012  1.0000
  H   H12       1.0  0.0410393475440074  0.1787049466621653  0.4647383693719007  1.0000
  H   H13       1.0  0.0847695022119623  0.1705812081953582  0.915800084966051  1.0000
  H   H14       1.0  0.08476825443914039  0.670578399210882  0.5841999150339491  1.0000
  H   H15       1.0  0.9152339503261472  0.8294249690227176  0.0841970348288825  1.0000
  H   H16       1.0  0.9152270482360051  0.3294230599323811  0.415800084966051  1.0000
  H   H17       1.0  0.1770951120263717  0.034124262366241  0.8865465621152211  1.0000
  H   H18       1.0  0.17709259230463908  0.5341261714565704  0.6134555980385771  1.0000
  H   H19       1.0  0.8229101114705911  0.9658740513938257  0.1134505576797054  1.0000
  H   H20       1.0  0.8229016635025203  0.46587528768669273  0.3865458420639527  1.0000
  H   H21       1.0  0.1982564890678731  0.0907293648280714  0.6443191555238741  1.0000
  H   H22       1.0  0.1982559261176036  0.5907304875725998  0.8556815645273943  1.0000
  H   H23       1.0  0.8017424532211735  0.9092689489319952  0.3556808444761259  1.0000
  H   H24       1.0  0.8017448359783969  0.4092662534958579  0.1443184354726057  1.0000
  H   H25       1.0  0.05420193798113359  0.0220538543258257  0.6207619582514283  1.0000
  H   H26       1.0  0.05420123806634791  0.5220541907245604  0.8792380417485718  1.0000
  H   H27       1.0  0.945796867343411  0.9779436730884399  0.3792380417485717  1.0000
  H   H28       1.0  0.9457966573547124  0.4779441230355062  0.1207612382001599  1.0000
  H   H29       1.0  0.26458726967195634  0.8702025032084961  0.8362164186090055  1.0000
  H   H30       1.0  0.2645865606733153  0.3702060985387661  0.663784301442263  1.0000
  H   H31       1.0  0.7354167699925114  0.1297950242057695  0.1637821412884577  1.0000
  H   H32       1.0  0.7354097888698163  0.6297953606045041  0.3362120983014023  1.0000
  H   H33       1.0  0.3215839628433628  0.1768460251893558  0.7903808351154566  1.0000
  H   H34       1.0  0.32158290088314345  0.6768502933170951  0.709620604987073  1.0000
  H   H35       1.0  0.6784187560241007  0.8231499295333009  0.209620604987073  1.0000
  H   H36       1.0  0.678415131502433  0.3231488067887724  0.2903801150641954  1.0000
  H   H37       1.0  0.4197277123473881  0.1895871861977483  0.6988025547418959  1.0000
  H   H38       1.0  0.4197301530365607  0.6895875225964829  0.8011974452581043  1.0000
  H   H39       1.0  0.5802725507386697  0.8104127002539131  0.3011981653093728  1.0000
  H   H40       1.0  0.5802681044299334  0.310406859434579  0.1988032747931641  1.0000
  H   H41       1.0  0.0909795174915189  0.7165764831673656  0.7825020341448337  1.0000
  H   H42       1.0  0.09098181213232688  0.21657929215183463  0.7175015661115083  1.0000
  H   H43       1.0  0.9090192878330255  0.2834210442469001  0.2175001260089715  1.0000
  H   H44       1.0  0.9090174040857448  0.7834205942998338  0.2824948336321569  1.0000
  H   H45       1.0  0.8306584644576488  0.7339987607271966  0.7906342931616734  1.0000
  H   H46       1.0  0.8306602112404134  0.2339984243284619  0.7093678669921317  1.0000
  H   H47       1.0  0.16934116265395008  0.2660034847618746  0.2093664268895949  1.0000
  H   H48       1.0  0.1693378211451559  0.7660006757774056  0.2906292528028018  1.0000
  C   C1        1.0  0.6572040243045051  0.7868058129717498  0.0191584040783681  1.0000
  C   C2        1.0  0.6572018575443507  0.2868070492646169  0.4808451961779667  1.0000
  C   C3        1.0  0.3428015612378914  0.21318856905931233  0.9808430360241618  1.0000
  C   C4        1.0  0.34279672269926215  0.7131951962244472  0.5191533637194965  1.0000
  C   C5        1.0  0.583406386229619  0.7096409132053836  0.9444905277255771  1.0000
  C   C6        1.0  0.5834100016674312  0.20964529488145442  0.5555130725307649  1.0000
  C   C7        1.0  0.4165943758663814  0.2903558278630811  0.0555123524794965  1.0000
  C   C8        1.0  0.4165871208146612  0.7903545915702141  0.4444840472641687  1.0000
  C   C9        1.0  0.6807147817125311  0.1371937518443502  0.915668315584071  1.0000
  C   C10       1.0  0.6807130349297664  0.6371940882430849  0.584331684415929  1.0000
  C   C11       1.0  0.3192877120740008  0.862806920953112  0.0843324044671974  1.0000
  C   C12       1.0  0.3192816317709272  0.3628097299375811  0.4156690356353395  1.0000
  C   C13       1.0  0.7529253143567373  0.2338498049721309  0.9435141382066378  1.0000
  C   C14       1.0  0.7529263461324902  0.7338540730998703  0.556485141742094  1.0000
  C   C15       1.0  0.24707717942980167  0.7661508678253313  0.056485141742094  1.0000
  C   C16       1.0  0.24707250804014078  0.2661497450807957  0.4435162983604428  1.0000
  C   C17       1.0  0.9000248797363355  0.2463149586044864  0.9434990171300229  1.0000
  C   C18       1.0  0.9000250897250338  0.7463145086574201  0.5565002628187159  1.0000
  C   C19       1.0  0.09997711504025382  0.7536888595761796  0.0564988227161791  1.0000
  C   C20       1.0  0.0999703499146278  0.253687736831651  0.4435004572325525  1.0000
  C   C21       1.0  0.9699885374611409  0.1619565674535153  0.9169528870455608  1.0000
  C   C22       1.0  0.9699877005818464  0.661956117506449  0.5830456728519096  1.0000
  C   C23       1.0  0.030013320350938996  0.8380464643813568  0.08304495280064121  1.0000
  C   C24       1.0  0.030010879661766403  0.3380461279826221  0.4169536070968221  1.0000
  C   C25       1.0  0.8915961690129635  0.0663518586612426  0.890918713412397  1.0000
  C   C26       1.0  0.8915932383976966  0.5663514087141692  0.6090791264338051  1.0000
  C   C27       1.0  0.10840791949959791  0.9336519595194304  0.10907912643380512  1.0000
  C   C28       1.0  0.108402974180926  0.433649264083293  0.3909223136687316  1.0000
  C   C29       1.0  0.9563783909314194  0.9721184233970135  0.8635178824732321  1.0000
  C   C30       1.0  0.956376087206756  0.4721188733440798  0.6364799573729627  1.0000
  C   C31       1.0  0.0436296111240679  0.0278838220920576  0.1364813974754995  1.0000
  C   C32       1.0  0.04362185706240501  0.527885731182387  0.3635193225757689  1.0000
  C   C33       1.0  0.10217294488433738  0.967917764129787  0.8627661489498026  1.0000
  C   C34       1.0  0.1021706411596739  0.4679182140768603  0.6372338510501976  1.0000
  C   C35       1.0  0.8978319165671919  0.0320844813592771  0.1372324109476608  1.0000
  C   C36       1.0  0.8978247984799878  0.5320840314122108  0.3627661489498024  1.0000
  C   C37       1.0  0.15137626040093013  0.8749771949102155  0.8342672398274757  1.0000
  C   C38       1.0  0.15137632434125686  0.3749792175488835  0.6657334802237929  1.0000
  C   C39       1.0  0.8486258224920746  0.1250211188498511  0.16573204012125592  1.0000
  C   C40       1.0  0.8486206611763265  0.6250198825569839  0.334265799724939  1.0000
  C   C41       1.0  0.05504530432465061  0.7894188400674055  0.8061261961851685  1.0000
  C   C42       1.0  0.05504746200094959  0.2894208627060735  0.6938752439173683  1.0000
  C   C43       1.0  0.944954684832382  0.21057947369266125  0.1938745238660999  1.0000
  C   C44       1.0  0.9449533489431444  0.7105821691287986  0.3061211558262968  1.0000
  C   C45       1.0  0.9114405755416257  0.7986127951689357  0.8104133814327596  1.0000
  C   C46       1.0  0.9114393186849481  0.2986132451160017  0.6895880586697771  1.0000
  C   C47       1.0  0.0885620552094224  0.2013886639743347  0.1895873386185087  1.0000
  C   C48       1.0  0.08855675692916519  0.7013866413356595  0.3104105012276861  1.0000
  N   N1        1.0  0.7483559109471472  0.056131722289819705  0.8897529504100703  1.0000
  N   N2        1.0  0.7483529803318802  0.5561312723427534  0.6102456094873929  1.0000
  N   N3        1.0  0.2516488135398731  0.9438697368534434  0.1102484896924665  1.0000
  N   N4        1.0  0.2516423223432653  0.4438701868005097  0.38975367046133874  1.0000
  N   N5        1.0  0.864047244537005  0.8873338328220727  0.8390303789629813  1.0000
  N   N6        1.0  0.8640445299188073  0.3873319237317361  0.6609689009857505  1.0000
  N   N7        1.0  0.13595657004653816  0.1126684126669986  0.1609681809344821  1.0000
  N   N8        1.0  0.135950361862804  0.6126671763741243  0.3390310990142495  1.0000
  O   O1        1.0  0.4807638011773959  0.9469805208409312  0.8707198352522667  1.0000
  O   O2        1.0  0.4807633172596795  0.4469793980963956  0.6292830449527999  1.0000
  O   O3        1.0  0.5192407374970145  0.053013861190130705  0.1292895254142081  1.0000
  O   O4        1.0  0.5192335312933949  0.5530189156636709  0.3707147948933951  1.0000
  O   O5        1.0  0.6784863055720933  0.9755987899108192  0.7247683235046339  1.0000
  O   O6        1.0  0.6784867804059473  0.4756031715868901  0.7752302363928294  1.0000
  O   O7        1.0  0.3215110419909308  0.0243963784660437  0.2752352767517081  1.0000
  O   O8        1.0  0.3215076123657212  0.5243990739021811  0.2247661633508287  1.0000
  O   O9        1.0  0.6217823470989003  0.8664854466086851  0.7167174302810366  1.0000
  O   O10       1.0  0.6217829588972633  0.3664906146305569  0.7832847298727685  1.0000
  O   O11       1.0  0.3782178671390568  0.1335081490765759  0.283287610077835  1.0000
  O   O12       1.0  0.3782154843818404  0.6335108445127062  0.2167131099734334  1.0000
  O   O13       1.0  0.6832946612202945  0.8816760747861923  0.9886930349440846  1.0000
  O   O14       1.0  0.683289353856182  0.3816773110790592  0.5113084051584451  1.0000
  O   O15       1.0  0.31671811543348843  0.118317520899069  0.011308405158445101  1.0000
  O   O16       1.0  0.31671054718443503  0.6183265071016066  0.4886923148928233  1.0000
  O   O17       1.0  0.5741299572867575  0.7516703099058405  0.8598096184448352  1.0000
  O   O18       1.0  0.574127653562094  0.2516707598529067  0.6401932617602384  1.0000
  O   O19       1.0  0.4258738084486922  0.2483256448168234  0.1401932617602384  1.0000
  O   O20       1.0  0.42586974284902357  0.7483306992903564  0.3598067382397616  1.0000
  O   O21       1.0  0.6854609840396151  0.7549926209137041  0.10127377069247252  1.0000
  O   O22       1.0  0.6854605001218984  0.2549914981691757  0.3987276694100643  1.0000
  O   O23       1.0  0.31454564837077464  0.2450017611173578  0.898729109512594  1.0000
  O   O24       1.0  0.31453926395420945  0.7450115336656964  0.6012723305899357  1.0000
  O   O25       1.0  0.5365651433420381  0.6182109142689072  0.9660978261652247  1.0000
  O   O26       1.0  0.5365664792312757  0.1182082188327769  0.5339043339885805  1.0000
  O   O27       1.0  0.4634310203884837  0.3817834677621548  0.0339036139373121  1.0000
  O   O28       1.0  0.4634295082664152  0.8817971720394979  0.4660942259088827  1.0000
  O   O29       1.0  0.1481741033522184  0.0435651300491813  0.5951698960966  1.0000
  O   O30       1.0  0.14817458726993488  0.5435662527937168  0.9048308239546685  1.0000
  O   O31       1.0  0.851823655104333  0.9564323973650843  0.4048308239546685  1.0000
  O   O32       1.0  0.8518254018870977  0.4564320609663497  0.0951691760453315  1.0000
  O   O33       1.0  0.3317211103563266  0.1497894388796155  0.7242311652589635  1.0000
  O   O34       1.0  0.33172004839611446  0.6497937070073547  0.7757688347410365  1.0000
  O   O35       1.0  0.6682800626332009  0.8502096612262449  0.2757695547922978  1.0000
  O   O36       1.0  0.668278756928423  0.35020382040691095  0.2242304452077022  1.0000
