data_image0
_chemical_formula_structural       Mn2H50C58N10O12
_chemical_formula_sum              "Mn2 H50 C58 N10 O12"
_cell_length_a       10.615497285730166
_cell_length_b       11.112538568898998
_cell_length_c       13.208842194834329
_cell_angle_alpha    71.95413801662261
_cell_angle_beta     80.16309327087087
_cell_angle_gamma    63.90158273199727

_space_group_name_H-M_alt    "P 1"
_space_group_IT_number       1

loop_
  _space_group_symop_operation_xyz
  'x, y, z'

loop_
  _atom_site_type_symbol
  _atom_site_label
  _atom_site_symmetry_multiplicity
  _atom_site_fract_x
  _atom_site_fract_y
  _atom_site_fract_z
  _atom_site_occupancy
  Mn  Mn1       1.0  0.8359106835643076  0.5820410551788766  0.22911335796642626  1.0000
  Mn  Mn2       1.0  0.16408495445390503  0.4179644558593694  0.7708874095295075  1.0000
  H   H1        1.0  0.8866451985523298  0.8524424765958899  0.3882362438781187  1.0000
  H   H2        1.0  0.11335772582719271  0.14757763936263754  0.6117560368706024  1.0000
  H   H3        1.0  0.031917025104029106  0.17417031773300806  0.33332446319669634  1.0000
  H   H4        1.0  0.9680803714935847  0.8258540047456647  0.6666583939175083  1.0000
  H   H5        1.0  0.04910598200286391  0.19862437824619408  0.1374857838815515  1.0000
  H   H6        1.0  0.9509004186003834  0.8013739928757744  0.862497204459558  1.0000
  H   H7        1.0  0.9860960641659132  0.0500067112239932  0.06792153601764282  1.0000
  H   H8        1.0  0.01391205559562546  0.9499874639559777  0.932068352040794  1.0000
  H   H9        1.0  0.9795572991446516  0.4018284536202756  0.4594360764662754  1.0000
  H   H10       1.0  0.02044714918183392  0.5981583728100759  0.5405652628831135  1.0000
  H   H11       1.0  0.9116295092206882  0.3764059399083877  0.6543788086529648  1.0000
  H   H12       1.0  0.08837259310782036  0.6235819213062397  0.34562257872106983  1.0000
  H   H13       1.0  0.6568975682851671  0.4983582877284931  0.7071344353218052  1.0000
  H   H14       1.0  0.34310670381024283  0.5016243626666679  0.2928702656018983  1.0000
  H   H15       1.0  0.40570274407200196  0.6477939096508435  0.6491668339361639  1.0000
  H   H16       1.0  0.5943051035289669  0.35218251727543043  0.3508374666206961  1.0000
  H   H17       1.0  0.2414291192826071  0.7882051934892826  0.5035926419913893  1.0000
  H   H18       1.0  0.7585744218783718  0.21178365295084936  0.49641738714961287  1.0000
  H   H19       1.0  0.19894187765581975  0.8769523414707617  0.30658566571401746  1.0000
  H   H20       1.0  0.801055109592248  0.12305206433911307  0.6934258037001088  1.0000
  H   H21       1.0  0.29879772179418035  0.8986196990337092  0.11910381290489622  1.0000
  H   H22       1.0  0.701195707793218  0.1013909594805043  0.8809035045072093  1.0000
  H   H23       1.0  0.5622066831316559  0.7801311654898695  0.09015562619458714  1.0000
  H   H24       1.0  0.4377856329395016  0.21987534399657696  0.9098506281718246  1.0000
  H   H25       1.0  0.8699697098987044  0.4459332547011812  0.042122257224996004  1.0000
  H   H26       1.0  0.13002532507301376  0.5540691341599453  0.9578793881877702  1.0000
  H   H27       1.0  0.6635021753432538  0.2145677978098418  0.16042623433172315  1.0000
  H   H28       1.0  0.3365024912305543  0.7854252171483793  0.8395818229423996  1.0000
  H   H29       1.0  0.5384364990776973  0.33989059911739616  0.06374370008360593  1.0000
  H   H30       1.0  0.4615657348696729  0.6601013650437791  0.9362657066382456  1.0000
  H   H31       1.0  0.5647522810840471  0.38679661964554407  0.1742185386117185  1.0000
  H   H32       1.0  0.43525047522965815  0.6131963908565935  0.8257897741600928  1.0000
  H   H33       1.0  0.677800014164319  0.3927062974288233  0.8982623081509261  1.0000
  H   H34       1.0  0.322201807459777  0.6072752729338404  0.10174829458934907  1.0000
  H   H35       1.0  0.8086700137978511  0.2271217558545757  0.9595683654663177  1.0000
  H   H36       1.0  0.19132856655935634  0.7728628887924386  0.04044794017764274  1.0000
  H   H37       1.0  0.8496513350884597  0.3755341536773286  0.9145614922817416  1.0000
  H   H38       1.0  0.15035145951056722  0.6244474481488351  0.08544443034084283  1.0000
  H   H39       1.0  0.21998407802605155  0.25108862027375517  0.4008159965497242  1.0000
  H   H40       1.0  0.780011509053466  0.7489148636541003  0.5991769676315927  1.0000
  H   H41       1.0  0.6210363558196548  0.9453244952944075  0.3273283666281088  1.0000
  H   H42       1.0  0.3789659562123333  0.05468101184980867  0.6726745415384772  1.0000
  H   H43       1.0  0.5650985956311985  0.03237961415791799  0.134938761911279  1.0000
  H   H44       1.0  0.43490581181441  0.9676300880953049  0.8650582529988853  1.0000
  H   H45       1.0  0.3342347844156421  0.22705398614586159  0.0767130289221996  1.0000
  H   H46       1.0  0.6657706618143351  0.7729577990441284  0.9232833155441753  1.0000
  H   H47       1.0  0.8525453928234937  0.6606560132714987  0.9997243866829211  1.0000
  H   H48       1.0  0.14745522941308306  0.3393422665210082  0.00027150780152849173  1.0000
  H   H49       1.0  0.8303564026337892  0.7813452046651008  0.05790367653432333  1.0000
  H   H50       1.0  0.1696404886851894  0.21865515666913643  0.9420906687942789  1.0000
  C   C1        1.0  0.9212361322026721  0.9286615338777506  0.3326124127054301  1.0000
  C   C2        1.0  0.0787608312526231  0.0713523606943767  0.6673769515241901  1.0000
  C   C3        1.0  0.9621927161682747  0.009136744148157997  0.3718853303996781  1.0000
  C   C4        1.0  0.03780528607138942  0.9908792333607432  0.6281033633861598  1.0000
  C   C5        1.0  0.004246059235320804  0.1102047314906542  0.3012527270529048  1.0000
  C   C6        1.0  0.9957505101201746  0.8898102705378929  0.6987258075096819  1.0000
  C   C7        1.0  0.012822821363762709  0.12348381280942528  0.1924847920906529  1.0000
  C   C8        1.0  0.9871844243264862  0.8765239079981341  0.8074979664332177  1.0000
  C   C9        1.0  0.9761539722490866  0.04055112002532009  0.15313871443029828  1.0000
  C   C10       1.0  0.02385596557439119  0.9594524363037352  0.8468462636932088  1.0000
  C   C11       1.0  0.9285537749396724  0.9438434519100335  0.22287492449630264  1.0000
  C   C12       1.0  0.0714483013787017  0.0561673094903341  0.7771183447977918  1.0000
  C   C13       1.0  0.8886760647695412  0.8555021747624917  0.17971876988514177  1.0000
  C   C14       1.0  0.11131627806894068  0.14450437857713183  0.8202806559279949  1.0000
  C   C15       1.0  0.5475704305671132  0.6882319399494676  0.35125484203319257  1.0000
  C   C16       1.0  0.45242757388951554  0.3117610983930773  0.6487480396577184  1.0000
  C   C17       1.0  0.6439599212288981  0.6035744175267935  0.43604470203547413  1.0000
  C   C18       1.0  0.3560384382854309  0.39641550573924883  0.5639581710952798  1.0000
  C   C19       1.0  0.8712272182507519  0.45528297197441936  0.48613345907139666  1.0000
  C   C20       1.0  0.12877225775395829  0.5447111051919791  0.5138697183769095  1.0000
  C   C21       1.0  0.8316640454010056  0.44001201687233027  0.5950535144927187  1.0000
  C   C22       1.0  0.1683451458601156  0.5599747670998808  0.40495553212200974  1.0000
  C   C23       1.0  0.6919001750498877  0.5081948305050756  0.6234987245505581  1.0000
  C   C24       1.0  0.3081028556413444  0.4917929890844021  0.37650936362790344  1.0000
  C   C25       1.0  0.5925370060583787  0.5912649776520027  0.543763663897515  1.0000
  C   C26       1.0  0.40746638266470825  0.40871973173354786  0.45624365699265473  1.0000
  C   C27       1.0  0.4450920116255829  0.6603921515832452  0.5663477097089213  1.0000
  C   C28       1.0  0.5549066999722924  0.3395946517337194  0.4336559135898242  1.0000
  C   C29       1.0  0.35353457154579354  0.7376258039203732  0.48579090388565055  1.0000
  C   C30       1.0  0.6464653401967907  0.2623672340056799  0.5142124810357062  1.0000
  C   C31       1.0  0.40199720300506675  0.7531224785603782  0.37643296704642637  1.0000
  C   C32       1.0  0.5979972051269654  0.24687674914302693  0.6235756261083125  1.0000
  C   C33       1.0  0.3114483806275247  0.8280830700057036  0.2903915332889825  1.0000
  C   C34       1.0  0.6885504629678108  0.17191930827727478  0.7096126360409728  1.0000
  C   C35       1.0  0.36645785352261145  0.8390892073691417  0.18688348237657249  1.0000
  C   C36       1.0  0.633539145622052  0.16091521793103414  0.8131249521249799  1.0000
  C   C37       1.0  0.5125473451033855  0.7736043198408776  0.16996348115843324  1.0000
  C   C38       1.0  0.4874505433618949  0.22639805621406592  0.8300408159203699  1.0000
  C   C39       1.0  0.7882551537695122  0.42087212760539217  0.09567047424246775  1.0000
  C   C40       1.0  0.2117444925179727  0.5791261158510463  0.9043308590878142  1.0000
  C   C41       1.0  0.6162806695496457  0.32503607349428165  0.11661448026864461  1.0000
  C   C42       1.0  0.3837205226392158  0.6749538028575442  0.8833963556251377  1.0000
  C   C43       1.0  0.7672763173776787  0.339440040528693  0.9508708987097806  1.0000
  C   C44       1.0  0.23272706539711424  0.6605446591117069  0.04913793963667259  1.0000
  C   C45       1.0  0.26175147036983054  0.25305441391571276  0.23433684183351747  1.0000
  C   C46       1.0  0.7382516592250569  0.7469469827648464  0.7656594366926939  1.0000
  C   C47       1.0  0.294636012945702  0.20420929141476307  0.34175729837753016  1.0000
  C   C48       1.0  0.7053633738349916  0.7957941673172113  0.6582404659054008  1.0000
  C   C49       1.0  0.42305817614808205  0.09363457205189717  0.3748506544155887  1.0000
  C   C50       1.0  0.5769344027826123  0.9063781990510474  0.6251509369534318  1.0000
  C   C51       1.0  0.5213608521543378  0.0309180257874786  0.3000766625069957  1.0000
  C   C52       1.0  0.47863616521379976  0.9690979007676215  0.6999197463090995  1.0000
  C   C53       1.0  0.4888524723122956  0.07986426498935367  0.19333131676353332  1.0000
  C   C54       1.0  0.5111491563716157  0.9201475161610587  0.8066647799700777  1.0000
  C   C55       1.0  0.3599668941562086  0.19005867671129548  0.16032414273336576  1.0000
  C   C56       1.0  0.6400399607865667  0.8099521007018495  0.8396677290883615  1.0000
  C   C57       1.0  0.12174788360993462  0.36965569081183247  0.1999014177812413  1.0000
  C   C58       1.0  0.8782496167038332  0.6303478024446745  0.800090532174238  1.0000
  N   N1        1.0  0.6003343241166519  0.7000308082743628  0.24944754969614993  1.0000
  N   N2        1.0  0.3996600033352138  0.29996634359288515  0.7505608274253887  1.0000
  N   N3        1.0  0.7809799549715849  0.5355648513999965  0.40877912326744353  1.0000
  N   N4        1.0  0.21902639766670262  0.46442196974128774  0.591223478040547  1.0000
  N   N5        1.0  0.7223380128038741  0.36912629577228967  0.05413759605217194  1.0000
  N   N6        1.0  0.2776624034601554  0.6308677592592673  0.9458692472880089  1.0000
  N   N7        1.0  0.9633434091049294  0.9777968025129197  0.48386428488811356  1.0000
  N   N8        1.0  0.0366544262046986  0.022226485597983  0.5161180209709997  1.0000
  N   N9        1.0  0.4441653682413929  0.0534909245898803  0.4851534727897402  1.0000
  N   N10       1.0  0.5558320041844452  0.9465218868887179  0.514842927466205  1.0000
  O   O1        1.0  0.8877103635575665  0.743652111885268  0.24539466721736147  1.0000
  O   O2        1.0  0.11227674409961001  0.2563554305738974  0.7546112596920835  1.0000
  O   O3        1.0  0.8599988156487726  0.8974689613776261  0.08184521011082085  1.0000
  O   O4        1.0  0.13999006470135805  0.1025344728459174  0.918153959409402  1.0000
  O   O5        1.0  0.039933933317080145  0.4246275490110705  0.27186082432898223  1.0000
  O   O6        1.0  0.9600658144696155  0.575372804389559  0.7281354139375082  1.0000
  O   O7        1.0  0.08934180433473674  0.40806526373368956  0.1034641651216717  1.0000
  O   O8        1.0  0.9106602176922037  0.5919319936642464  0.8965295329025482  1.0000
  O   O9        1.0  0.7601543516321456  0.4404964581911057  0.1869996790180509  1.0000
  O   O10       1.0  0.23984379336577888  0.5595006977157269  0.8130089458362519  1.0000
  O   O11       1.0  0.8085255267377036  0.6993980529756597  0.06231105378024181  1.0000
  O   O12       1.0  0.19147049013139392  0.30060438196669276  0.9376836353304085  1.0000
