data_image0
_chemical_formula_structural       Cu2H24C30S4I2N2
_chemical_formula_sum              "Cu2 H24 C30 S4 I2 N2"
_cell_length_a       6.767297893300652
_cell_length_b       8.870136426192348
_cell_length_c       12.128318607209025
_cell_angle_alpha    83.25043246745933
_cell_angle_beta     88.96547956278543
_cell_angle_gamma    88.64478774046299

_space_group_name_H-M_alt    "P 1"
_space_group_IT_number       1

loop_
  _space_group_symop_operation_xyz
  'x, y, z'

loop_
  _atom_site_type_symbol
  _atom_site_label
  _atom_site_symmetry_multiplicity
  _atom_site_fract_x
  _atom_site_fract_y
  _atom_site_fract_z
  _atom_site_occupancy
  Cu  Cu1       1.0  0.405388759831112  0.4060997798325586  0.9392265641208368  1.0000
  Cu  Cu2       1.0  0.5946075682425657  0.593913834410273  0.06076896281282978  1.0000
  H   H1        1.0  0.0351145717722829  0.4881154025036665  0.7869855256601994  1.0000
  H   H2        1.0  0.9648917788332693  0.5118845390980695  0.21299834213671434  1.0000
  H   H3        1.0  0.14259536593970518  0.6631625743927357  0.7354208453037073  1.0000
  H   H4        1.0  0.8574140424230733  0.3368340204782356  0.26456421697869803  1.0000
  H   H5        1.0  0.8580765119642633  0.3480222931439414  0.6664553275323258  1.0000
  H   H6        1.0  0.14195076258467051  0.6519673916288652  0.33353021467801364  1.0000
  H   H7        1.0  0.250832895272886  0.6939829336750805  0.520877639252049  1.0000
  H   H8        1.0  0.7492061076302291  0.3060076676893004  0.47910584472877094  1.0000
  H   H9        1.0  0.26639531725111004  0.9173993164364802  0.8417307879074158  1.0000
  H   H10       1.0  0.7335751669434599  0.08260420274783088  0.15827909554580089  1.0000
  H   H11       1.0  0.2834239741601862  0.8684197197718858  0.6490854699245714  1.0000
  H   H12       1.0  0.7165409287227645  0.1315727182659998  0.350928492163959  1.0000
  H   H13       1.0  0.35058242216104646  0.0762021759512663  0.49742868109876065  1.0000
  H   H14       1.0  0.6493970596007228  0.923781523128241  0.502577818056892  1.0000
  H   H15       1.0  0.40020205919903157  0.33919457377527346  0.5450480152626724  1.0000
  H   H16       1.0  0.59980526770628  0.6607931972615899  0.45495396526330717  1.0000
  H   H17       1.0  0.23015581719842967  0.973632554890834  0.9791315294965982  1.0000
  H   H18       1.0  0.7698366052756994  0.026378615662459  0.020875158413645106  1.0000
  H   H19       1.0  0.2587002512690688  0.24958849609303255  0.3699236114659215  1.0000
  H   H20       1.0  0.741314554417343  0.7504170841341348  0.630085751761804  1.0000
  H   H21       1.0  0.15334687065447378  0.9604132960254074  0.3770514941470182  1.0000
  H   H22       1.0  0.8466349770210895  0.0396021863978646  0.6229515747137384  1.0000
  H   H23       1.0  0.16098582486515764  0.8746592145520536  0.1750625086164561  1.0000
  H   H24       1.0  0.8389752681966767  0.1253597967395663  0.8249405970742314  1.0000
  C   C1        1.0  0.13142309408805627  0.5436628465662068  0.7212658479670608  1.0000
  C   C2        1.0  0.8685908313008424  0.45633506807679675  0.2787214097048931  1.0000
  C   C3        1.0  0.06151256716722738  0.5245528858697739  0.607520767216229  1.0000
  C   C4        1.0  0.9385191050274743  0.47543669981212827  0.3924638550718242  1.0000
  C   C5        1.0  0.9208866075163369  0.4147673376675129  0.593371688196342  1.0000
  C   C6        1.0  0.07915673918689949  0.5852277689274886  0.4066110952409118  1.0000
  C   C7        1.0  0.13942342521326617  0.6092659479406491  0.5123332724077087  1.0000
  C   C8        1.0  0.8606069609385399  0.39071578577986793  0.48765324490940287  1.0000
  C   C9        1.0  0.3565442647585612  0.2776053310893332  0.7201669828711911  1.0000
  C   C10       1.0  0.6434643967210647  0.7223915679544888  0.2798345856884126  1.0000
  C   C11       1.0  0.3178889359067156  0.16042444628368457  0.8073204066370111  1.0000
  C   C12       1.0  0.6821079079486125  0.8395760690813958  0.19268262340624887  1.0000
  C   C13       1.0  0.2931912197094346  0.0128130990872819  0.778379214352462  1.0000
  C   C14       1.0  0.7067896398438192  0.9871868844118623  0.22163005834089924  1.0000
  C   C15       1.0  0.30362056196431547  0.9838610584583801  0.6684214066424231  1.0000
  C   C16       1.0  0.6963573475230119  0.016133063128478394  0.3315862328080143  1.0000
  C   C17       1.0  0.34055434063616713  0.10010199860159469  0.5832440312260161  1.0000
  C   C18       1.0  0.6594310203578075  0.8998851346615948  0.4167626980978695  1.0000
  C   C19       1.0  0.36927592082289346  0.24623442698612757  0.6097203664107907  1.0000
  C   C20       1.0  0.6307271632414667  0.7537549334132619  0.3902864654738848  1.0000
  C   C21       1.0  0.26224216204946055  0.08877178582474697  0.9975707160195382  1.0000
  C   C22       1.0  0.737742685641322  0.9112414116872856  0.0024325820156719047  1.0000
  C   C23       1.0  0.2505458513804513  0.10402267264638708  0.11271891631151479  1.0000
  C   C24       1.0  0.7494286786936469  0.8959929987312876  0.8872859577945746  1.0000
  C   C25       1.0  0.24885940150869598  0.18306994913257307  0.3006089347649379  1.0000
  C   C26       1.0  0.7511551693133637  0.8169363358707074  0.6993953825288697  1.0000
  C   C27       1.0  0.19414964465911302  0.03335286244133329  0.3020245033128646  1.0000
  C   C28       1.0  0.8058384379112481  0.966657345383339  0.69798406983071  1.0000
  C   C29       1.0  0.19607064090573792  0.9876153194067071  0.1949113594540748  1.0000
  C   C30       1.0  0.8038965492493659  0.012401674153586787  0.8050951707108921  1.0000
  S   S1        1.0  0.3862855616349704  0.4677730617502718  0.7467052071823372  1.0000
  S   S2        1.0  0.6137273650031361  0.5322211147027999  0.25329165920503266  1.0000
  S   S3        1.0  0.30210565434669684  0.26835602034184797  0.1701472881762385  1.0000
  S   S4        1.0  0.6978958783428623  0.7316520522057816  0.8298637203208513  1.0000
  I   I1        1.0  0.22054852082980148  0.6400633358456104  0.01282614943696808  1.0000
  I   I2        1.0  0.7794493781004304  0.3599492787589682  0.9871711243330736  1.0000
  N   N1        1.0  0.3079908320533206  0.19624129408735766  0.918239807500683  1.0000
  N   N2        1.0  0.6920043463610949  0.8037706341959205  0.0817625814017475  1.0000
