data_image0
_chemical_formula_structural       Ca2H24C16N16O12
_chemical_formula_sum              "Ca2 H24 C16 N16 O12"
_cell_length_a       7.2800800544909094
_cell_length_b       10.183026673471756
_cell_length_c       11.008185431901362
_cell_angle_alpha    62.44759017895443
_cell_angle_beta     83.74055306688253
_cell_angle_gamma    76.35255157187557

_space_group_name_H-M_alt    "P 1"
_space_group_IT_number       1

loop_
  _space_group_symop_operation_xyz
  'x, y, z'

loop_
  _atom_site_type_symbol
  _atom_site_label
  _atom_site_symmetry_multiplicity
  _atom_site_fract_x
  _atom_site_fract_y
  _atom_site_fract_z
  _atom_site_occupancy
  Ca  Ca1       1.0  0.7501301691621834  0.0734025674928418  0.8532422995954079  1.0000
  Ca  Ca2       1.0  0.24987797369184517  0.9265968870669926  0.14675610936499345  1.0000
  H   H1        1.0  0.959599812841553  0.9466341994958185  0.675653434707094  1.0000
  H   H2        1.0  0.5401659906626507  0.37759646756780546  0.6756358779198309  1.0000
  H   H3        1.0  0.04041004330127149  0.053358314021636516  0.3243574543924268  1.0000
  H   H4        1.0  0.45982775268970505  0.6224112933511422  0.3243624316077812  1.0000
  H   H5        1.0  0.9908838474842698  0.11773773858990211  0.5993323360636325  1.0000
  H   H6        1.0  0.5095772305670181  0.2827831120874366  0.5991423244716003  1.0000
  H   H7        1.0  0.009123084453769038  0.8822545122688937  0.4006732577164201  1.0000
  H   H8        1.0  0.4904187539060274  0.7172198180908325  0.400857371113851  1.0000
  H   H9        1.0  0.15498200703081716  0.3767301154234987  0.5994323935773807  1.0000
  H   H10       1.0  0.34533216423446333  0.024095322486161218  0.599477950819832  1.0000
  H   H11       1.0  0.845007378745336  0.623279312778543  0.4005587316472726  1.0000
  H   H12       1.0  0.654675956374021  0.9759050454379548  0.4005195507602578  1.0000
  H   H13       1.0  0.1910612582881654  0.5449928221028273  0.4521929340529169  1.0000
  H   H14       1.0  0.3086617315444967  0.003212643952267087  0.4522808116389214  1.0000
  H   H15       1.0  0.8089127789049044  0.45501704627908895  0.5478048064565969  1.0000
  H   H16       1.0  0.6913425546903227  0.9967974429460967  0.5477172171149435  1.0000
  H   H17       1.0  0.14047054656030158  0.38206509152295376  0.9545883290703329  1.0000
  H   H18       1.0  0.3590361153603538  0.6635826890807125  0.9546178281538502  1.0000
  H   H19       1.0  0.8595380541754523  0.6179220450220273  0.045427930088202076  1.0000
  H   H20       1.0  0.6409682695979487  0.3364075050779577  0.045376383229005175  1.0000
  H   H21       1.0  0.27847570103391917  0.3288147077935124  0.8343881606128888  1.0000
  H   H22       1.0  0.22127778211481083  0.83718963086303  0.8343454664903333  1.0000
  H   H23       1.0  0.7215394571211673  0.6711849258656316  0.16560318772546623  1.0000
  H   H24       1.0  0.7787204434789176  0.16280846857456052  0.16565561515295713  1.0000
  C   C1        1.0  0.013598230280081126  0.2590005062655224  0.8831362255507145  1.0000
  C   C2        1.0  0.48632293706806007  0.8578832993971945  0.8834210543673606  1.0000
  C   C3        1.0  0.9864291358590407  0.7409835271535103  0.1168670095889723  1.0000
  C   C4        1.0  0.5136903178122482  0.14211089979658453  0.11657236474056284  1.0000
  C   C5        1.0  0.09068387194998447  0.495281852652603  0.5337609440983331  1.0000
  C   C6        1.0  0.4092267824037917  0.9711549072552759  0.5337992322322832  1.0000
  C   C7        1.0  0.9092865222712235  0.5047270004124658  0.46623563353862346  1.0000
  C   C8        1.0  0.5907826510736952  0.02885496018348029  0.4661944166412794  1.0000
  C   C9        1.0  0.05034802981180057  0.5808767012999001  0.6157674014538513  1.0000
  C   C10       1.0  0.4491816565782045  0.8035198340910413  0.6158121755011763  1.0000
  C   C11       1.0  0.9496389471032243  0.4191242687708013  0.3842377960019619  1.0000
  C   C12       1.0  0.5508180992280103  0.19648892911152432  0.38418276857296974  1.0000
  C   C13       1.0  0.13439224830118948  0.37301889188426435  0.859765434011358  1.0000
  C   C14       1.0  0.3653340855756824  0.7674689941067856  0.8598458297842697  1.0000
  C   C15       1.0  0.865615242522388  0.6269770699245427  0.14023982953689548  1.0000
  C   C16       1.0  0.6346615443844713  0.2325254401010923  0.14015220857850613  1.0000
  N   N1        1.0  0.01709096232781348  0.641692765917874  0.7861896038164456  1.0000
  N   N2        1.0  0.48246473899722986  0.5723129284595104  0.7862984006639592  1.0000
  N   N3        1.0  0.9828977542842947  0.35830378500429566  0.21381882728148585  1.0000
  N   N4        1.0  0.5175377018913424  0.427686469868064  0.2136945645312451  1.0000
  N   N5        1.0  0.06639280001161295  0.5254838525220792  0.7531225373126773  1.0000
  N   N6        1.0  0.4332967842034918  0.7216316510274724  0.753184664269149  1.0000
  N   N7        1.0  0.9336076796736493  0.474515365445548  0.24687963298031687  1.0000
  N   N8        1.0  0.5667043475122213  0.2783710596911817  0.24681065143599304  1.0000
  N   N9        1.0  0.9925134622613079  0.7310877353820758  0.564604862591338  1.0000
  N   N10       1.0  0.5067436086726218  0.704444755512995  0.5646836719453603  1.0000
  N   N11       1.0  0.007472795886627555  0.2689124820304373  0.43540446731137183  1.0000
  N   N12       1.0  0.493263024798651  0.2955662317164284  0.4353089211021626  1.0000
  N   N13       1.0  0.973917051554551  0.7640449143319544  0.6715941436172983  1.0000
  N   N14       1.0  0.5253515821736202  0.5645039966940787  0.6717166987066037  1.0000
  N   N15       1.0  0.026069273330023138  0.23595256298771983  0.32841790842635277  1.0000
  N   N16       1.0  0.47465356046429  0.43550479793493224  0.32827248800494147  1.0000
  O   O1        1.0  0.9703023699769702  0.033520331086975934  0.6903377081758392  1.0000
  O   O2        1.0  0.5298646876169  0.275991716374385  0.6902006533223429  1.0000
  O   O3        1.0  0.02971160831577167  0.9664736995194548  0.3096715888316411  1.0000
  O   O4        1.0  0.4701346335023473  0.7240147183275029  0.3097988604770379  1.0000
  O   O5        1.0  0.8923869570736187  0.28973092868017153  0.794988766952997  1.0000
  O   O6        1.0  0.6072115994555531  0.9156351577266337  0.7951705675737557  1.0000
  O   O7        1.0  0.10760865480374084  0.7102678541501107  0.2049982101521549  1.0000
  O   O8        1.0  0.3928014348677351  0.08434070880741734  0.2048568028171331  1.0000
  O   O9        1.0  0.05120080811117582  0.13716446092118434  0.9927893428548344  1.0000
  O   O10       1.0  0.44895779365216276  0.8695195665627082  0.9933310158963876  1.0000
  O   O11       1.0  0.9487963339786701  0.8628449856740801  0.007191496681180473  1.0000
  O   O12       1.0  0.551030670400074  0.13047078420268582  0.006679090091985491  1.0000
