data_image0
_chemical_formula_structural       U2H16C24N4O12
_chemical_formula_sum              "U2 H16 C24 N4 O12"
_cell_length_a       7.682607057252531
_cell_length_b       7.682622339595164
_cell_length_c       11.87608807382156
_cell_angle_alpha    93.74434613953936
_cell_angle_beta     93.7436611562749
_cell_angle_gamma    113.03569002833021

_space_group_name_H-M_alt    "P 1"
_space_group_IT_number       1

loop_
  _space_group_symop_operation_xyz
  'x, y, z'

loop_
  _atom_site_type_symbol
  _atom_site_label
  _atom_site_symmetry_multiplicity
  _atom_site_fract_x
  _atom_site_fract_y
  _atom_site_fract_z
  _atom_site_occupancy
  U   U1        1.0  0.6373057354816963  0.8039118941771759  0.789436776596965  1.0000
  U   U2        1.0  0.8039131548975574  0.6373110554345442  0.28944346752990674  1.0000
  H   H1        1.0  0.3357080965688439  0.35548572139373386  0.8609803551578639  1.0000
  H   H2        1.0  0.3554917505277118  0.33570638478383324  0.3609816405570499  1.0000
  H   H3        1.0  0.15621054237551854  0.016781901460838404  0.7799221013657844  1.0000
  H   H4        1.0  0.016786001241271695  0.15622305010160184  0.27991275127090637  1.0000
  H   H5        1.0  0.21895401930917285  0.916694027159181  0.5863395172623954  1.0000
  H   H6        1.0  0.9167054516788367  0.21898659174828333  0.08633472910274521  1.0000
  H   H7        1.0  0.4505812834318234  0.16297525785240194  0.48000934129724737  1.0000
  H   H8        1.0  0.16299272638595133  0.45061415246872366  0.9800131151303407  1.0000
  H   H9        1.0  0.8026150471899952  0.9915770800952117  0.5319000873598867  1.0000
  H   H10       1.0  0.9915963678425894  0.8026464891255216  0.03190602866797581  1.0000
  H   H11       1.0  0.9998337103251985  0.300157828538417  0.4600659359978892  1.0000
  H   H12       1.0  0.30018524676953706  0.9998653411373083  0.9600801380426562  1.0000
  H   H13       1.0  0.11619758658181913  0.5983255767879426  0.5912987485818989  1.0000
  H   H14       1.0  0.598349007987096  0.11622563826446708  0.09131702746812213  1.0000
  H   H15       1.0  0.0016387148367442025  0.5806702837706225  0.7878641313091566  1.0000
  H   H16       1.0  0.5806795924443264  0.001650793287211601  0.287878226846381  1.0000
  C   C1        1.0  0.6322666883638277  0.5445419583412274  0.5526285554854411  1.0000
  C   C2        1.0  0.544564886898307  0.632270367195396  0.05263289454583742  1.0000
  C   C3        1.0  0.5030921409011098  0.38647144728692234  0.6130012127512715  1.0000
  C   C4        1.0  0.38648443362848167  0.5030980860790137  0.11300281642034093  1.0000
  C   C5        1.0  0.3538507183404178  0.3069005622592512  0.7761925442149932  1.0000
  C   C6        1.0  0.30690412965434877  0.35385301375389117  0.2761907923637282  1.0000
  C   C7        1.0  0.25614177446470165  0.1185649017524923  0.730941273053624  1.0000
  C   C8        1.0  0.11857330823151095  0.25615613176630336  0.2309355438156331  1.0000
  C   C9        1.0  0.2889933466656984  0.0634623478174561  0.6230498935789015  1.0000
  C   C10       1.0  0.06347309291358975  0.2890176556793945  0.12304671773235043  1.0000
  C   C11       1.0  0.415784623366676  0.19978084856514758  0.563159597429632  1.0000
  C   C12       1.0  0.19979370365378193  0.41580898586089177  0.0631615272455477  1.0000
  C   C13       1.0  0.8508992643985137  0.12490646486596546  0.5859722393655958  1.0000
  C   C14       1.0  0.12491826194496973  0.8509222188448362  0.08598030467289423  1.0000
  C   C15       1.0  0.9622289766354654  0.29731752548550355  0.5469258238555385  1.0000
  C   C16       1.0  0.2973364735871725  0.9622531974254825  0.04693905389652292  1.0000
  C   C17       1.0  0.0243756120618173  0.46405153024156925  0.6197310904163232  1.0000
  C   C18       1.0  0.46407024294463634  0.024404883357632894  0.11974433825076151  1.0000
  C   C19       1.0  0.9644960681125027  0.4547087938210978  0.7284123137498852  1.0000
  C   C20       1.0  0.45472382585700893  0.9645166680060768  0.22842208191971744  1.0000
  C   C21       1.0  0.8504738429620886  0.2780954728898877  0.7608412469307171  1.0000
  C   C22       1.0  0.27810905907944056  0.8504849357731954  0.26084659124128257  1.0000
  C   C23       1.0  0.7746972472971334  0.257048420291035  0.8752000828908919  1.0000
  C   C24       1.0  0.2570522258089055  0.7746851402764533  0.37520213180503253  1.0000
  N   N1        1.0  0.4756970861218618  0.4393149811835356  0.7188821918406065  1.0000
  N   N2        1.0  0.43931960942214926  0.4756966010263496  0.21888369337725075  1.0000
  N   N3        1.0  0.7988729814310247  0.11456517809128287  0.6922332574938254  1.0000
  N   N4        1.0  0.11457384499784236  0.7988878738383818  0.19224068400190222  1.0000
  O   O1        1.0  0.40643114476702635  0.7917314604197613  0.7369650549391766  1.0000
  O   O2        1.0  0.7917441272659997  0.4064322090962235  0.2369610733171754  1.0000
  O   O3        1.0  0.8711111153117767  0.8175024777559798  0.8389688289433652  1.0000
  O   O4        1.0  0.8175149822030148  0.8711100634384363  0.33897239191650647  1.0000
  O   O5        1.0  0.7051411665892501  0.708155696629518  0.6071550039500765  1.0000
  O   O6        1.0  0.7081788022239407  0.7051458311731267  0.10715734698139565  1.0000
  O   O7        1.0  0.6606570918861151  0.5048706146247425  0.4515984580087178  1.0000
  O   O8        1.0  0.5048858793337911  0.6606613963143741  0.9516054593233891  1.0000
  O   O9        1.0  0.6917218712435586  0.0787695030942857  0.8962062826587955  1.0000
  O   O10       1.0  0.07877925050621566  0.6917221883163833  0.3962120129503149  1.0000
  O   O11       1.0  0.7907280980889125  0.39526683073177776  0.9405241603311938  1.0000
  O   O12       1.0  0.3952725372481537  0.7907161697406265  0.4405258108566344  1.0000
