data_image0
_chemical_formula_structural       Cu16H96W4C144S16Br8N72
_chemical_formula_sum              "Cu16 H96 W4 C144 S16 Br8 N72"
_cell_length_a       13.7773057626618
_cell_length_b       20.508433070578764
_cell_length_c       20.508401725433632
_cell_angle_alpha    102.95947346089639
_cell_angle_beta     89.99905933883376
_cell_angle_gamma    90.00082711317495

_space_group_name_H-M_alt    "P 1"
_space_group_IT_number       1

loop_
  _space_group_symop_operation_xyz
  'x, y, z'

loop_
  _atom_site_type_symbol
  _atom_site_label
  _atom_site_symmetry_multiplicity
  _atom_site_fract_x
  _atom_site_fract_y
  _atom_site_fract_z
  _atom_site_occupancy
  Cu  Cu1       1.0  0.16965246446942928  0.7255016410889397  0.6147641410778988  1.0000
  Cu  Cu2       1.0  0.16963659469688255  0.7744886710022524  0.8852489127287126  1.0000
  Cu  Cu3       1.0  0.3303629144911683  0.3852465053305422  0.2744919099320953  1.0000
  Cu  Cu4       1.0  0.3303475222604463  0.11476460505409847  0.2255015418527861  1.0000
  Cu  Cu5       1.0  0.8303463486315508  0.2745039518212664  0.3852364821935339  1.0000
  Cu  Cu6       1.0  0.8303556858431449  0.2255094256718451  0.11475153555199569  1.0000
  Cu  Cu7       1.0  0.6696417051573109  0.6147516032402008  0.7255104913351289  1.0000
  Cu  Cu8       1.0  0.6696527424605068  0.885236487764672  0.7744985857907095  1.0000
  Cu  Cu9       1.0  0.17634473214522478  0.6185318239462985  0.7478350807427885  1.0000
  Cu  Cu10      1.0  0.17636857716870943  0.881467118611546  0.7521919760383893  1.0000
  Cu  Cu11      1.0  0.3236324227026446  0.25218807131980003  0.38146540672551044  1.0000
  Cu  Cu12      1.0  0.32364868308145844  0.24783500546726597  0.11853219554234327  1.0000
  Cu  Cu13      1.0  0.8236424675657547  0.38146728227609816  0.2521670509844682  1.0000
  Cu  Cu14      1.0  0.8236229775124573  0.11853350345973009  0.2478129249338323  1.0000
  Cu  Cu15      1.0  0.6763700194665034  0.7478140488498112  0.6185393338962655  1.0000
  Cu  Cu16      1.0  0.6763544849688402  0.7521665877023905  0.8814680414079774  1.0000
  H   H1        1.0  0.8408913328562947  0.06100441999551259  0.36551501161165584  1.0000
  H   H2        1.0  0.8409135213900001  0.4389934495151093  0.13445682497409447  1.0000
  H   H3        1.0  0.6590900535507915  0.6344564771398922  0.938996281205128  1.0000
  H   H4        1.0  0.6591066550874702  0.865514984572016  0.5610029383879506  1.0000
  H   H5        1.0  0.15910530272004317  0.9389966668845133  0.6344841395268473  1.0000
  H   H6        1.0  0.15908674331249273  0.5610046383015117  0.8655421584871235  1.0000
  H   H7        1.0  0.3409123886257747  0.3655421228749915  0.06100476460976268  1.0000
  H   H8        1.0  0.34089433545232595  0.13448310028481097  0.43899555680904  1.0000
  H   H9        1.0  0.7398207073566143  0.9963118689703448  0.4277104055833547  1.0000
  H   H10       1.0  0.7398313651385707  0.5036730527745377  0.07225490193283687  1.0000
  H   H11       1.0  0.7601729251900978  0.5722573828145839  0.0036775732106164665  1.0000
  H   H12       1.0  0.7601786863187456  0.9277123596269234  0.49631345308610963  1.0000
  H   H13       1.0  0.2601781057014634  0.0036877168980850995  0.5722884175843888  1.0000
  H   H14       1.0  0.2601696253930825  0.49632403140241604  0.9277433746236807  1.0000
  H   H15       1.0  0.23982879117168926  0.42774472550217973  0.9963252143710122  1.0000
  H   H16       1.0  0.23982157838183582  0.07228623149215711  0.5036861279562145  1.0000
  H   H17       1.0  0.5048949655380071  0.010836091174958498  0.2901592649557827  1.0000
  H   H18       1.0  0.5049185601297097  0.48914877851077415  0.20982021471684925  1.0000
  H   H19       1.0  0.9950833755853313  0.7098250065325971  0.9891535282811927  1.0000
  H   H20       1.0  0.9951039358426075  0.7901624481534951  0.5108372393671345  1.0000
  H   H21       1.0  0.49510239584328997  0.9891624969706496  0.7098398278390688  1.0000
  H   H22       1.0  0.49508097874912954  0.510847296093239  0.7901763784232826  1.0000
  H   H23       1.0  0.004916889124132203  0.29017910610096453  0.01085018484895529  1.0000
  H   H24       1.0  0.0048970547156486  0.20983864170548117  0.48916240001213407  1.0000
  H   H25       1.0  0.6154840075246781  0.0738950978626747  0.2334832102305384  1.0000
  H   H26       1.0  0.615512821606288  0.4261036325459313  0.2665010199406622  1.0000
  H   H27       1.0  0.8844883977678466  0.7665026260924322  0.9261073237981492  1.0000
  H   H28       1.0  0.8845156101511267  0.7334845540748489  0.573894339780658  1.0000
  H   H29       1.0  0.3845119022124381  0.9261064952796115  0.7665170267532986  1.0000
  H   H30       1.0  0.3844874430959635  0.57389294832582  0.7334966590381028  1.0000
  H   H31       1.0  0.11551041525453343  0.23349848449603888  0.07389573341728811  1.0000
  H   H32       1.0  0.11548610623412975  0.26651452850205704  0.4261038857925783  1.0000
  H   H33       1.0  0.4806308893250844  0.8535699758521531  0.5810870703519625  1.0000
  H   H34       1.0  0.48062955904679694  0.6464336092596669  0.918912333281547  1.0000
  H   H35       1.0  0.0193715429410659  0.4189135451488609  0.14643489738659096  1.0000
  H   H36       1.0  0.019368230512967002  0.08108927784208929  0.3535703682051405  1.0000
  H   H37       1.0  0.5193671979076556  0.14642960705101155  0.41891126455826816  1.0000
  H   H38       1.0  0.519370705663846  0.3535654792368206  0.08108686882013669  1.0000
  H   H39       1.0  0.9806294476092888  0.5810880509751115  0.8535658278346574  1.0000
  H   H40       1.0  0.9806313084049381  0.9189138104086325  0.6464292202008934  1.0000
  H   H41       1.0  0.37316795670235353  0.7846461910819613  0.6363490705368663  1.0000
  H   H42       1.0  0.3731571441457078  0.7153511152933731  0.8636559822451559  1.0000
  H   H43       1.0  0.12684030823135123  0.3636541450114876  0.21535270892159986  1.0000
  H   H44       1.0  0.12683118355108292  0.1363494500004236  0.2846452167549245  1.0000
  H   H45       1.0  0.6268294046952365  0.2153543984233934  0.3636504595389312  1.0000
  H   H46       1.0  0.6268409430570827  0.2846484824224333  0.13634479396944238  1.0000
  H   H47       1.0  0.8731585048065966  0.6363444461021289  0.7846468721274319  1.0000
  H   H48       1.0  0.8731683553502806  0.8636501299456825  0.7153526298877251  1.0000
  H   H49       1.0  0.16478779521224143  0.7684718177473114  0.48794136229470547  1.0000
  H   H50       1.0  0.16477366579163538  0.7315034912404171  0.01206564973968934  1.0000
  H   H51       1.0  0.3352257113185858  0.5120629894323372  0.23150945649522467  1.0000
  H   H52       1.0  0.33521299301129664  0.987941946669906  0.268472917017874  1.0000
  H   H53       1.0  0.8352117436730709  0.23152726778391755  0.5120573515494584  1.0000
  H   H54       1.0  0.8352273247002558  0.26849461731664087  0.9879367515442965  1.0000
  H   H55       1.0  0.6647752791553359  0.48793512801230304  0.7684944095713745  1.0000
  H   H56       1.0  0.6647858200328827  0.012058148426042699  0.73152748025273  1.0000
  H   H57       1.0  0.2605881666282244  0.8409171038635391  0.4279563657479883  1.0000
  H   H58       1.0  0.260584052461681  0.6590583829339564  0.07204232822206787  1.0000
  H   H59       1.0  0.23941969829930096  0.5720404552467712  0.15906276609489814  1.0000
  H   H60       1.0  0.23941405462838364  0.9279602677602908  0.34092168002423756  1.0000
  H   H61       1.0  0.739413549742409  0.15907796710628466  0.5720395204807502  1.0000
  H   H62       1.0  0.7394183897048168  0.3409397197035132  0.9279590965334634  1.0000
  H   H63       1.0  0.760583469686786  0.4279591602633701  0.840940939661479  1.0000
  H   H64       1.0  0.7605862100829911  0.0720433415708115  0.6590814355247971  1.0000
  H   H65       1.0  0.09889269646794221  0.476685648941739  0.7431119779246627  1.0000
  H   H66       1.0  0.09890212932036492  0.023297769814711  0.7568997761458434  1.0000
  H   H67       1.0  0.401097975376743  0.2568989395763879  0.5232970830773027  1.0000
  H   H68       1.0  0.401105299528851  0.24311059111854413  0.9766868551187499  1.0000
  H   H69       1.0  0.9011068424274314  0.5233139339668966  0.2568863569788605  1.0000
  H   H70       1.0  0.901095957902804  0.9767043296007786  0.24310154666991923  1.0000
  H   H71       1.0  0.5989022893398898  0.7431001459575767  0.47670163076351457  1.0000
  H   H72       1.0  0.5988949651477711  0.7568880118506555  0.023314678967068358  1.0000
  H   H73       1.0  0.9533086040931809  0.4115593802827389  0.6905440227591555  1.0000
  H   H74       1.0  0.9533239588649637  0.08843047086002538  0.8094578871002867  1.0000
  H   H75       1.0  0.5466777292187859  0.3094574249251494  0.5884290924207107  1.0000
  H   H76       1.0  0.5466898754288537  0.19054525759771923  0.9115615173139558  1.0000
  H   H77       1.0  0.04669311232393621  0.5884391841790587  0.3094511639285997  1.0000
  H   H78       1.0  0.04667558002083891  0.9115716285609422  0.19054343570878268  1.0000
  H   H79       1.0  0.45332398715233074  0.6905406599344134  0.4115694027729333  1.0000
  H   H80       1.0  0.45330893760933594  0.8094548404607594  0.0884393682175215  1.0000
  H   H81       1.0  0.9010481151742983  0.568611464025075  0.5856954643580252  1.0000
  H   H82       1.0  0.9010342034443398  0.9313903892556258  0.9143155641480477  1.0000
  H   H83       1.0  0.5989638838314875  0.4143142993249641  0.4313878323300173  1.0000
  H   H84       1.0  0.5989553604017531  0.08569790439818799  0.068614150061272  1.0000
  H   H85       1.0  0.09895360121910811  0.43138861923171123  0.41430297985567677  1.0000
  H   H86       1.0  0.09896606127278322  0.0686117101680779  0.085685758657668  1.0000
  H   H87       1.0  0.40103565505981464  0.5856847832437352  0.5686103932532659  1.0000
  H   H88       1.0  0.4010492592853083  0.9143042039295256  0.9313886375069557  1.0000
  H   H89       1.0  0.0457995619407257  0.6275141941774436  0.6422883479879856  1.0000
  H   H90       1.0  0.04578504328767252  0.8724817207969123  0.857732641714925  1.0000
  H   H91       1.0  0.45421290897548533  0.3577317148373069  0.37248062764535206  1.0000
  H   H92       1.0  0.45420198175074233  0.14229085458503477  0.127516905566047  1.0000
  H   H93       1.0  0.9541999769608867  0.37248689271353186  0.35771080313711673  1.0000
  H   H94       1.0  0.9542152214414303  0.12752037270173128  0.14226770456904345  1.0000
  H   H95       1.0  0.5457851782452751  0.6422678739909171  0.6275186837866186  1.0000
  H   H96       1.0  0.54580191211506  0.8577117511173498  0.8724855030648867  1.0000
  W   W1        1.0  0.17023680791596266  0.7499964254228998  0.7500094829036428  1.0000
  W   W2        1.0  0.3297600367285228  0.250009304016082  0.2499973044122257  1.0000
  W   W3        1.0  0.8297598276421638  0.250003163399839  0.2499898285350355  1.0000
  W   W4        1.0  0.6702358730105048  0.7499917858237379  0.7500023349905048  1.0000
  C   C1        1.0  0.7661220501812452  0.048560672532815395  0.3502770813965128  1.0000
  C   C2        1.0  0.7661412292486391  0.45143211812865747  0.14969250882517568  1.0000
  C   C3        1.0  0.7338637560196802  0.6496944201404985  0.9514348387475805  1.0000
  C   C4        1.0  0.7338759791349931  0.8502785854586536  0.5485604910915995  1.0000
  C   C5        1.0  0.23387458539701103  0.9514399110447441  0.649721472160884  1.0000
  C   C6        1.0  0.2338626646104417  0.5485659697016485  0.8503064746192806  1.0000
  C   C7        1.0  0.2661372345086336  0.3503066845311266  0.04856724193606249  1.0000
  C   C8        1.0  0.2661235597563092  0.1497204971100388  0.4514377344916909  1.0000
  C   C9        1.0  0.7090120944575774  0.012379903379660098  0.3851178561171764  1.0000
  C   C10       1.0  0.7090213037623345  0.48760342965037035  0.11484687601138426  1.0000
  C   C11       1.0  0.790981502027066  0.6148493037014332  0.9876069009674778  1.0000
  C   C12       1.0  0.7909866626887948  0.8851200914347503  0.5123806794279631  1.0000
  C   C13       1.0  0.29098526693785953  0.9876196824832915  0.6148809670572745  1.0000
  C   C14       1.0  0.29097823512249493  0.51239264199112  0.8851492288678741  1.0000
  C   C15       1.0  0.20901948850914923  0.38515129470519577  0.012394093874178181  1.0000
  C   C16       1.0  0.20901432786921967  0.11487949147936397  0.4876176554688598  1.0000
  C   C17       1.0  0.6125186721154778  0.9978256838453204  0.3646740311949087  1.0000
  C   C18       1.0  0.6125328230495344  0.5021578011298897  0.13529624879699745  1.0000
  C   C19       1.0  0.8874728270272529  0.6352998555622448  0.0021600770678134036  1.0000
  C   C20       1.0  0.8874815393545961  0.8646773277363878  0.49782728858596664  1.0000
  C   C21       1.0  0.3874794151151023  0.0021728954154341005  0.6353235968139757  1.0000
  C   C22       1.0  0.3874703450021856  0.4978402748475617  0.8647007816073184  1.0000
  C   C23       1.0  0.1125303410211274  0.3647022409098709  0.9978407574636208  1.0000
  C   C24       1.0  0.1125194511813703  0.13532176372537208  0.5021724017732438  1.0000
  C   C25       1.0  0.5786146187822112  0.020286880416414004  0.3090386517615329  1.0000
  C   C26       1.0  0.5786348450713491  0.47969852749312736  0.1909372175078445  1.0000
  C   C27       1.0  0.9213664071809476  0.6909420587376474  0.9797014670800762  1.0000
  C   C28       1.0  0.9213842402592792  0.80904182901952  0.5202878607055936  1.0000
  C   C29       1.0  0.4213827426129768  0.9797111985016683  0.6909588669304725  1.0000
  C   C30       1.0  0.42136396800635373  0.5202990392403777  0.8090582388137192  1.0000
  C   C31       1.0  0.0786331316971953  0.3090620538931788  0.020302246053425677  1.0000
  C   C32       1.0  0.0786174761281373  0.1909582571997959  0.479711071768982  1.0000
  C   C33       1.0  0.6408583428127842  0.055985932037223976  0.2767427775500266  1.0000
  C   C34       1.0  0.640882805466184  0.44401096171191057  0.22323638666238566  1.0000
  C   C35       1.0  0.8591170001716507  0.7232397457847171  0.9440138950469219  1.0000
  C   C36       1.0  0.8591405111465633  0.7767447294615123  0.5559855032272623  1.0000
  C   C37       1.0  0.35913684108270877  0.9440136567800433  0.7232565338953589  1.0000
  C   C38       1.0  0.35911600759954604  0.555986610946654  0.7767600461809252  1.0000
  C   C39       1.0  0.14088181288092022  0.27676285693598157  0.0559880253466005  1.0000
  C   C40       1.0  0.1408597535760592  0.2232543531099225  0.4440127223526744  1.0000
  C   C41       1.0  0.5489916146767798  0.961412107294457  0.4015021990866643  1.0000
  C   C42       1.0  0.5489958498614983  0.5385719436245395  0.0984762102222874  1.0000
  C   C43       1.0  0.9510076233100409  0.5984780117265059  0.03857408737450638  1.0000
  C   C44       1.0  0.9510071445151524  0.9015056518491845  0.4614135151145007  1.0000
  C   C45       1.0  0.4510064725557187  0.0385859686638312  0.5984948313411138  1.0000
  C   C46       1.0  0.45100514067663533  0.46142815147962307  0.9015241870382623  1.0000
  C   C47       1.0  0.04899409305582481  0.4015245969301944  0.9614288095273551  1.0000
  C   C48       1.0  0.048993120193820516  0.09849544689464551  0.5385875890507421  1.0000
  C   C49       1.0  0.4396022348304457  0.893507347238305  0.46503101973788563  1.0000
  C   C50       1.0  0.4396044278722968  0.6064799494891489  0.034960504431396144  1.0000
  C   C51       1.0  0.060399456951330414  0.5349625340702319  0.10648289041270688  1.0000
  C   C52       1.0  0.060399852444760406  0.9650348788607415  0.39350960742944346  1.0000
  C   C53       1.0  0.5603980298777955  0.10648923067091691  0.534966170980006  1.0000
  C   C54       1.0  0.5603972885167893  0.39351812648282447  0.9650365259796202  1.0000
  C   C55       1.0  0.9396015335772249  0.4650400775462558  0.8935204947533889  1.0000
  C   C56       1.0  0.9396018639474663  0.03497022853311899  0.606493347812723  1.0000
  C   C57       1.0  0.37944592123511006  0.852675337405188  0.49933828997125573  1.0000
  C   C58       1.0  0.37943968381615184  0.6473140428268563  0.0006601955550706758  1.0000
  C   C59       1.0  0.12056128789910761  0.5006608844311273  0.14731726255958216  1.0000
  C   C60       1.0  0.12055690162171122  0.9993414941841008  0.35267712833196896  1.0000
  C   C61       1.0  0.6205565209831363  0.14732173492712516  0.5006580335350675  1.0000
  C   C62       1.0  0.6205605808743615  0.35268405091482435  0.9993397644278944  1.0000
  C   C63       1.0  0.8794389768022057  0.4993422275225612  0.8526862319301003  1.0000
  C   C64       1.0  0.8794433631136229  0.0006621032968822996  0.6473240341735789  1.0000
  C   C65       1.0  0.4109758477879952  0.8362437796030447  0.5588280871994158  1.0000
  C   C66       1.0  0.4109721664549895  0.6637517898581109  0.9411727612597787  1.0000
  C   C67       1.0  0.0890288763573963  0.4411730574321667  0.1637541309723431  1.0000
  C   C68       1.0  0.08902550869431285  0.058830258343434104  0.33624512041487975  1.0000
  C   C69       1.0  0.5890236910951574  0.16375430228578128  0.4411699197434018  1.0000
  C   C70       1.0  0.5890266465748085  0.3362458005756253  0.05882660114878039  1.0000
  C   C71       1.0  0.9109713883515766  0.5588280413116634  0.8362469731928996  1.0000
  C   C72       1.0  0.9109754818802431  0.9411728328752955  0.6637549562453273  1.0000
  C   C73       1.0  0.35126163302557256  0.7978182933807004  0.589771955039744  1.0000
  C   C74       1.0  0.35125519275518974  0.702174845068768  0.9102324254807286  1.0000
  C   C75       1.0  0.1487436613588216  0.41023109339085545  0.20217746208995635  1.0000
  C   C76       1.0  0.1487375571408407  0.08977215464284427  0.29781819891580597  1.0000
  C   C77       1.0  0.6487364541892048  0.20218129841004637  0.41022784465310735  1.0000
  C   C78       1.0  0.6487436202587986  0.29782375789496024  0.08976910861179017  1.0000
  C   C79       1.0  0.8512558775085213  0.5897680010279558  0.7978227165368279  1.0000
  C   C80       1.0  0.8512627075959217  0.9102279256459339  0.7021797570437298  1.0000
  C   C81       1.0  0.23462800519466503  0.7896233459936326  0.506956773324994  1.0000
  C   C82       1.0  0.23461752240024233  0.7103618902268992  0.9930442243603537  1.0000
  C   C83       1.0  0.26538119570885504  0.49304365690325364  0.21036532114120374  1.0000
  C   C84       1.0  0.2653727726558018  0.0069584428080489  0.2896244310156533  1.0000
  C   C85       1.0  0.7653722595440087  0.21037623099267933  0.49304058505342846  1.0000
  C   C86       1.0  0.7653820164690261  0.2896367008894458  0.006955356685324383  1.0000
  C   C87       1.0  0.7346176173132835  0.5069559467403479  0.7896364315917878  1.0000
  C   C88       1.0  0.7346260404025177  0.9930426500052432  0.71037569663455  1.0000
  C   C89       1.0  0.2888317495285975  0.8287635075940826  0.47332142293084434  1.0000
  C   C90       1.0  0.2888224853387555  0.67122269341764  0.026678329416533572  1.0000
  C   C91       1.0  0.21117841174589103  0.5266770479643981  0.17122516113593625  1.0000
  C   C92       1.0  0.21117042210283193  0.9733240008839276  0.32876600253405297  1.0000
  C   C93       1.0  0.711169241019107  0.17123407099774818  0.5266759864241664  1.0000
  C   C94       1.0  0.7111785051792481  0.32877640693170906  0.9733228257252904  1.0000
  C   C95       1.0  0.7888218529388812  0.47332255568467474  0.8287765915903549  1.0000
  C   C96       1.0  0.7888305684377032  0.026678604807507604  0.6712364061102889  1.0000
  C   C97       1.0  0.05245827086426401  0.4953302674733849  0.7081714785792812  1.0000
  C   C98       1.0  0.05247079279286031  0.0046573070968634  0.7918421764749793  1.0000
  C   C99       1.0  0.44753001336984255  0.29184082709419806  0.5046562925153424  1.0000
  C   C100      1.0  0.44753902365210513  0.20817158809640546  0.9953331343107267  1.0000
  C   C101      1.0  0.9475405421894864  0.5046673111102322  0.2918259307857838  1.0000
  C   C102      1.0  0.9475287460929424  0.9953447923241042  0.2081591463340827  1.0000
  C   C103      1.0  0.5524702513288205  0.7081582673273559  0.4953438861080954  1.0000
  C   C104      1.0  0.5524583376935014  0.7918285247692437  0.0046701925318259445  1.0000
  C   C105      1.0  0.972090147720799  0.45935345465136374  0.6791682698375823  1.0000
  C   C106      1.0  0.9720998308952673  0.04063958460256601  0.8208414464216177  1.0000
  C   C107      1.0  0.5279019116094972  0.32084032013950287  0.5406369656348247  1.0000
  C   C108      1.0  0.5279097290404949  0.17916922255182036  0.9593548597503058  1.0000
  C   C109      1.0  0.027911568682426908  0.54064561903796  0.32082849095303345  1.0000
  C   C110      1.0  0.027899707992453705  0.9593620115159351  0.17915927880633817  1.0000
  C   C111      1.0  0.4721005305907795  0.6791567610803922  0.4593608226541193  1.0000
  C   C112      1.0  0.47208980985105603  0.8208313669617479  0.04064467031543722  1.0000
  C   C113      1.0  0.9146617555505971  0.4859687378082355  0.6349819592351906  1.0000
  C   C114      1.0  0.914660336269492  0.014032353306049598  0.8650267280852971  1.0000
  C   C115      1.0  0.5853392024903528  0.3650253888096699  0.5140278865311743  1.0000
  C   C116      1.0  0.5853388732982694  0.13498413708010304  0.985971599531851  1.0000
  C   C117      1.0  0.08534141252532383  0.5140308332639663  0.36501442260807687  1.0000
  C   C118      1.0  0.08533847680728004  0.9859717445093992  0.13497454374718384  1.0000
  C   C119      1.0  0.4146617880513618  0.6349721927446907  0.48597001108471005  1.0000
  C   C120      1.0  0.4146606655595022  0.8650174738510401  0.014031567000472422  1.0000
  C   C121      1.0  0.9423102323816296  0.5470008674406728  0.6208207936092691  1.0000
  C   C122      1.0  0.9422983812101222  0.9529973091499427  0.8791914205447001  1.0000
  C   C123      1.0  0.5576997262834666  0.37919155702957136  0.45299472960056153  1.0000
  C   C124      1.0  0.5576917713154615  0.12082080618598916  0.047002860603519984  1.0000
  C   C125      1.0  0.057692209825376005  0.45300073165130766  0.3791804198661523  1.0000
  C   C126      1.0  0.0577004318522683  0.0470042840032932  0.12080881642572898  1.0000
  C   C127      1.0  0.44230126428053756  0.6208080229220059  0.5470031170353877  1.0000
  C   C128      1.0  0.44231139670872477  0.8791797951913833  0.9529986224889554  1.0000
  C   C129      1.0  0.023017252333062302  0.5798858841553878  0.652492522001097  1.0000
  C   C130      1.0  0.023008372718983604  0.9201073484232013  0.8475266667028549  1.0000
  C   C131      1.0  0.4769909752988113  0.3475255526225354  0.4201046402598294  1.0000
  C   C132      1.0  0.47698434726734734  0.15249316811910058  0.07988887843291788  1.0000
  C   C133      1.0  0.9769830123737506  0.4201142109460391  0.3475078752628065  1.0000
  C   C134      1.0  0.9769911661869487  0.07989574575258021  0.1524738982249332  1.0000
  C   C135      1.0  0.5230092894238113  0.6524735299488994  0.5798935853201073  1.0000
  C   C136      1.0  0.5230195465783326  0.8475084428284704  0.9201142880792973  1.0000
  C   C137      1.0  0.8269348989746208  0.4522163864595258  0.6037108539381322  1.0000
  C   C138      1.0  0.8269327141965307  0.04778402225672809  0.896295225779859  1.0000
  C   C139      1.0  0.6730681790324269  0.39629391670796105  0.5477809635268684  1.0000
  C   C140      1.0  0.6730665528907025  0.10371378396331467  0.9522196070056808  1.0000
  C   C141      1.0  0.17306826909315737  0.5477821839328029  0.39628530926466965  1.0000
  C   C142      1.0  0.17306755050645253  0.9522170794496317  0.10370636664625714  1.0000
  C   C143      1.0  0.32693281152725734  0.6037036559588101  0.4522154693063952  1.0000
  C   C144      1.0  0.3269344376416826  0.8962878210482472  0.04778258299818816  1.0000
  S   S1        1.0  0.2633871207801732  0.6742318310858623  0.6814130014643283  1.0000
  S   S2        1.0  0.26338852275124225  0.8257597328180707  0.8186066197894702  1.0000
  S   S3        1.0  0.2366102836087691  0.3186040499165868  0.3257603911962761  1.0000
  S   S4        1.0  0.23660993960798757  0.18141083870375496  0.1742319807083845  1.0000
  S   S5        1.0  0.7366102406035254  0.3257692676470185  0.3185881027143296  1.0000
  S   S6        1.0  0.7366081127910818  0.1742408685346604  0.1813948633331748  1.0000
  S   S7        1.0  0.7633885294414001  0.681396042216832  0.6742395178134541  1.0000
  S   S8        1.0  0.7633881475926431  0.8185877553696486  0.8257680886048675  1.0000
  S   S9        1.0  0.07717423242694821  0.8019596790837794  0.6871307111129636  1.0000
  S   S10       1.0  0.07715558707155881  0.6980404189419073  0.8128815864468135  1.0000
  S   S11       1.0  0.4228412412634627  0.31287951108987505  0.1980392023624518  1.0000
  S   S12       1.0  0.42282625768501714  0.18712833258388167  0.301958868146734  1.0000
  S   S13       1.0  0.9228231289426179  0.1980404219317506  0.3128706626860875  1.0000
  S   S14       1.0  0.9228410484707581  0.3019601824108235  0.18711989667582427  1.0000
  S   S15       1.0  0.5771590234471803  0.6871195774066124  0.8019599997392319  1.0000
  S   S16       1.0  0.5771718295338318  0.812871759546802  0.6980410408663502  1.0000
  Br  Br1       1.0  0.06849163363459351  0.6651048754967234  0.5245933180269161  1.0000
  Br  Br2       1.0  0.06849734973342692  0.8348942068176656  0.975427141404751  1.0000
  Br  Br3       1.0  0.4315019344524273  0.4754257578281482  0.33489395322759913  1.0000
  Br  Br4       1.0  0.43150131980829093  0.024589129317227804  0.16510117336296304  1.0000
  Br  Br5       1.0  0.9315050018979038  0.33489673542347015  0.47540984851882223  1.0000
  Br  Br6       1.0  0.931501463302844  0.16510639454327963  0.0245743417078401  1.0000
  Br  Br7       1.0  0.5684997819311591  0.5245753349960935  0.665106174409189  1.0000
  Br  Br8       1.0  0.5684996707236039  0.9754094618045952  0.8348984076760075  1.0000
  N   N1        1.0  0.7333879552840444  0.0704668784657798  0.2967489046799301  1.0000
  N   N2        1.0  0.7334067908692247  0.4295287028958086  0.20322750291794728  1.0000
  N   N3        1.0  0.7665937921251713  0.7032284148552607  0.929531416702126  1.0000
  N   N4        1.0  0.76660939545026  0.7967498558266044  0.5704671453429313  1.0000
  N   N5        1.0  0.26660577694880777  0.9295327103460163  0.7032504067721559  1.0000
  N   N6        1.0  0.266592022166563  0.5704688845753976  0.7967713712297381  1.0000
  N   N7        1.0  0.23340647254762106  0.2967711947188718  0.0704713125459122  1.0000
  N   N8        1.0  0.23339232094314613  0.20325022743018198  0.42953129887077063  1.0000
  N   N9        1.0  0.5843721284479033  0.9464226876277947  0.45803664657728393  1.0000
  N   N10       1.0  0.5843715504764193  0.5535651443512252  0.041944154274745016  1.0000
  N   N11       1.0  0.9156305330863291  0.5419470110942939  0.05357052085320649  1.0000
  N   N12       1.0  0.9156294719646854  0.958039929511486  0.4464250092650203  1.0000
  N   N13       1.0  0.4156266845998573  0.053574893918352  0.5419612510486544  1.0000
  N   N14       1.0  0.4156287142198424  0.4464314394830494  0.9580540129648937  1.0000
  N   N15       1.0  0.08437045743240651  0.4580566100896633  0.9464345477359757  1.0000
  N   N16       1.0  0.0843729702243508  0.04196167846807699  0.5535776689930215  1.0000
  N   N17       1.0  0.5290673648291248  0.9116154378045846  0.49006117592931275  1.0000
  N   N18       1.0  0.5290668794974992  0.588372998470291  0.009923772167809382  1.0000
  N   N19       1.0  0.970935199919687  0.5099272699586521  0.08837727778166027  1.0000
  N   N20       1.0  0.9709349655912691  0.9900650793208495  0.41161688171356287  1.0000
  N   N21       1.0  0.4709328998932493  0.08838213782198068  0.5099357451681783  1.0000
  N   N22       1.0  0.470932659389483  0.4116240768136024  0.9900730396127955  1.0000
  N   N23       1.0  0.029064338940493407  0.4900768515597632  0.911627900134462  1.0000
  N   N24       1.0  0.029066750800709  0.0099385211281415  0.5883847690461508  1.0000
  N   N25       1.0  0.40161237129353833  0.9128895474652623  0.4112361630989553  1.0000
  N   N26       1.0  0.40161499481094864  0.5870859341787025  0.08874977974031847  1.0000
  N   N27       1.0  0.0983881127779753  0.588752119571552  0.08708895583362157  1.0000
  N   N28       1.0  0.0983868640609202  0.9112395254307302  0.4128935788861199  1.0000
  N   N29       1.0  0.5983864417439193  0.08710602975860839  0.588760808985171  1.0000
  N   N30       1.0  0.5983867215623278  0.41291315432326303  0.9112494223546648  1.0000
  N   N31       1.0  0.9016143294113025  0.41125099535287973  0.9129150269068731  1.0000
  N   N32       1.0  0.9016126748172227  0.08876458720009589  0.587110134247375  1.0000
  N   N33       1.0  0.4571123800794155  0.9469258857753144  0.3788145039750289  1.0000
  N   N34       1.0  0.45711709534597844  0.5530495052436707  0.1211693521695665  1.0000
  N   N35       1.0  0.042886740475111707  0.6211707816414602  0.05305299522356676  1.0000
  N   N36       1.0  0.042887578710775615  0.8788164301941349  0.4469272244759209  1.0000
  N   N37       1.0  0.5428857071288817  0.053070695088216296  0.6211831750137904  1.0000
  N   N38       1.0  0.5428831693586816  0.44694958621534653  0.8788303381929907  1.0000
  N   N39       1.0  0.9571164275414079  0.3788318329457709  0.9469508781933414  1.0000
  N   N40       1.0  0.9571155893275434  0.12118516890058115  0.5530739889961538  1.0000
  N   N41       1.0  0.26438839418622007  0.7745382996964095  0.5644519239000231  1.0000
  N   N42       1.0  0.26437675316918796  0.7254496656421168  0.9355498337943047  1.0000
  N   N43       1.0  0.23562275414340664  0.43554835484643917  0.22545286478214874  1.0000
  N   N44       1.0  0.2356115944571613  0.06445352929667789  0.2745386270104007  1.0000
  N   N45       1.0  0.7356104188879017  0.22546178058689745  0.4355460320662131  1.0000
  N   N46       1.0  0.735623511521574  0.27454993504442626  0.06445143067111299  1.0000
  N   N47       1.0  0.7643767847059736  0.5644507484599615  0.7745487786272562  1.0000
  N   N48       1.0  0.7643886702757643  0.9355475575970332  0.7254605241113479  1.0000
  N   N49       1.0  0.07725999915068371  0.5551569996049466  0.6960416683604149  1.0000
  N   N50       1.0  0.077262165421395  0.9448301495583138  0.8039775512025287  1.0000
  N   N51       1.0  0.4227386623859745  0.3039776427064282  0.4448293196934472  1.0000
  N   N52       1.0  0.422740846466283  0.1960396385790375  0.055159598768199196  1.0000
  N   N53       1.0  0.9227388138752844  0.44484159743372215  0.30395888921036357  1.0000
  N   N54       1.0  0.9227373734682377  0.055170943257721185  0.1960225764443209  1.0000
  N   N55       1.0  0.5772616023368898  0.6960229468098759  0.5551702103689421  1.0000
  N   N56       1.0  0.5772623215336949  0.803959467703578  0.9448425328853247  1.0000
  N   N57       1.0  0.7888358939938488  0.4021128041119935  0.6281923735352635  1.0000
  N   N58       1.0  0.7888404799556598  0.0978862780850136  0.8718074919911061  1.0000
  N   N59       1.0  0.7111581974959551  0.3718076086571144  0.5978845507233075  1.0000
  N   N60       1.0  0.7111634186917968  0.12819487262239448  0.902113977205694  1.0000
  N   N61       1.0  0.21116654823661926  0.5978857692401293  0.3718042779317585  1.0000
  N   N62       1.0  0.2111568814460085  0.9021148117602776  0.1281921474049241  1.0000
  N   N63       1.0  0.288842793063978  0.6281914709545263  0.402113186592409  1.0000
  N   N64       1.0  0.28883612019400573  0.8718072267985731  0.0978873456033753  1.0000
  N   N65       1.0  0.7899125848562323  0.4754436069382635  0.5519756194742413  1.0000
  N   N66       1.0  0.7899086206219793  0.024566040848846196  0.9480348323073853  1.0000
  N   N67       1.0  0.7100929558089746  0.4480346138434542  0.5245641073999749  1.0000
  N   N68       1.0  0.7100881838073789  0.05197791356326321  0.9754444289921054  1.0000
  N   N69       1.0  0.21008840571160195  0.5245549664083881  0.4480210319994881  1.0000
  N   N70       1.0  0.2100923699281267  0.9754340483302639  0.05196458843141721  1.0000
  N   N71       1.0  0.28990803474088983  0.5519639683907797  0.47543400885638215  1.0000
  N   N72       1.0  0.2899135325661463  0.9480226818835716  0.024556077585323393  1.0000
