data_image0
_chemical_formula_structural       Ba4H16C36N8O16
_chemical_formula_sum              "Ba4 H16 C36 N8 O16"
_cell_length_a       6.909573838286637
_cell_length_b       9.4631884783737
_cell_length_c       14.57576449114275
_cell_angle_alpha    86.22271712163179
_cell_angle_beta     80.41442078346518
_cell_angle_gamma    88.27955597315687

_space_group_name_H-M_alt    "P 1"
_space_group_IT_number       1

loop_
  _space_group_symop_operation_xyz
  'x, y, z'

loop_
  _atom_site_type_symbol
  _atom_site_label
  _atom_site_symmetry_multiplicity
  _atom_site_fract_x
  _atom_site_fract_y
  _atom_site_fract_z
  _atom_site_occupancy
  Ba  Ba1       1.0  0.7086559200842827  0.9236659340554565  0.08405976850383473  1.0000
  Ba  Ba2       1.0  0.2913474222191397  0.0763345516419562  0.9159384741974324  1.0000
  Ba  Ba3       1.0  0.2068662231129039  0.5955605571630117  0.0560579169710067  1.0000
  Ba  Ba4       1.0  0.7931370984558369  0.40443886963741704  0.9439417447117222  1.0000
  H   H1        1.0  0.7434585078909278  0.15441600796447122  0.694747606570111  1.0000
  H   H2        1.0  0.256543338510717  0.845585537015424  0.3052506973343442  1.0000
  H   H3        1.0  0.9491149574606722  0.6402393010089612  0.7218514945701103  1.0000
  H   H4        1.0  0.050884042668556596  0.3597580073474517  0.2781478786788014  1.0000
  H   H5        1.0  0.7083161598085539  0.0860917881754588  0.5118634495956087  1.0000
  H   H6        1.0  0.2916812877285437  0.913908697914337  0.4881358985119989  1.0000
  H   H7        1.0  0.747070317963484  0.8501768413703275  0.4241370104529452  1.0000
  H   H8        1.0  0.2529241982656599  0.14982258577231997  0.5758632774823766  1.0000
  H   H9        1.0  0.7517360727925748  0.6715418177446394  0.3163881925159658  1.0000
  H   H10       1.0  0.24826719969630773  0.3284576093842446  0.6836128449759755  1.0000
  H   H11       1.0  0.5743300765174978  0.1586922315719335  0.3234286703954226  1.0000
  H   H12       1.0  0.42567169626435947  0.8413093139006591  0.6765716972228475  1.0000
  H   H13       1.0  0.7967654559828503  0.5873463544605784  0.5117680619711605  1.0000
  H   H14       1.0  0.20323341383623014  0.41265307283941866  0.48823328864707355  1.0000
  H   H15       1.0  0.7572207315786484  0.3537792951081968  0.6087217858297151  1.0000
  H   H16       1.0  0.2427751823925561  0.6462190734088864  0.3912811925208501  1.0000
  C   C1        1.0  0.550487119231029  0.2973160985237726  0.15951496296509055  1.0000
  C   C2        1.0  0.4495147102411892  0.702683328497926  0.8404854909976792  1.0000
  C   C3        1.0  0.843712569634569  0.9822423479915514  0.7805672085756541  1.0000
  C   C4        1.0  0.15628929750175757  0.017760255885328  0.219429676347346  1.0000
  C   C5        1.0  0.7897280733990398  0.0434081315848402  0.6988541627782111  1.0000
  C   C6        1.0  0.21027235833111751  0.9565923540624154  0.3011436007693149  1.0000
  C   C7        1.0  0.7930968441678203  0.9561112184071517  0.6253956342479372  1.0000
  C   C8        1.0  0.20689769660125987  0.0438882085712677  0.3746039657827822  1.0000
  C   C9        1.0  0.8486477976090897  0.8105207681107702  0.632008812872904  1.0000
  C   C10       1.0  0.15134520198358814  0.18947865941738232  0.3679929552470682  1.0000
  C   C11       1.0  0.9028006243777966  0.7508703963914484  0.7145783265986196  1.0000
  C   C12       1.0  0.0971968193540462  0.2491311487595596  0.2854202904321355  1.0000
  C   C13       1.0  0.9014309530865675  0.8373280846655788  0.7890401015283075  1.0000
  C   C14       1.0  0.09856934833343438  0.16267451992526827  0.21095963938854112  1.0000
  C   C15       1.0  0.7745986444861187  0.8588649919729362  0.49472458930017643  1.0000
  C   C16       1.0  0.22539883520140339  0.14113337583019367  0.5052755330565262  1.0000
  C   C17       1.0  0.7096356358539496  0.5608746633842684  0.3197713105927562  1.0000
  C   C18       1.0  0.290364778946774  0.43912370430478376  0.6802286030130774  1.0000
  C   C19       1.0  0.6499015832120919  0.5038391339128695  0.2432251884057877  1.0000
  C   C20       1.0  0.35009880324344783  0.4961602930016299  0.7567746820278033  1.0000
  C   C21       1.0  0.6015257978851877  0.3590653502560741  0.24469184619999854  1.0000
  C   C22       1.0  0.3984685918390554  0.6409351367689453  0.7553111501814984  1.0000
  C   C23       1.0  0.6093035864627012  0.2699092327869081  0.32427614133161603  1.0000
  C   C24       1.0  0.3906951851966625  0.7300901951700141  0.675727960905043  1.0000
  C   C25       1.0  0.6604052192662876  0.32659368508881664  0.4025010439144268  1.0000
  C   C26       1.0  0.3395950935694643  0.6734057423183727  0.5975008902329861  1.0000
  C   C27       1.0  0.7127151231484845  0.47106937794690407  0.3995239613554489  1.0000
  C   C28       1.0  0.28728526711230273  0.528928989906376  0.6004766401549944  1.0000
  C   C29       1.0  0.7322166089008845  0.3654482477584581  0.5369544659920038  1.0000
  C   C30       1.0  0.26778079716684294  0.6345501205373623  0.4630477200785208  1.0000
  C   C31       1.0  0.6361235880321061  0.6040603302413954  0.1599348984648259  1.0000
  C   C32       1.0  0.36388274226963085  0.39593909595227234  0.840062490753219  1.0000
  C   C33       1.0  0.8328459814263027  0.08161548992691789  0.8573209473525765  1.0000
  C   C34       1.0  0.16715738161180135  0.9183860546674865  0.14267587636723536  1.0000
  C   C35       1.0  0.9661535033577449  0.7782222156155572  0.8772701826264679  1.0000
  C   C36       1.0  0.0338467942570091  0.22178144803650202  0.12272882721353538  1.0000
  N   N1        1.0  0.7467040981221872  0.9830488841353786  0.537626020097008  1.0000
  N   N2        1.0  0.25329191400873435  0.016949483724786805  0.46237420663512563  1.0000
  N   N3        1.0  0.8346828284483506  0.7525884299895792  0.5478562838507983  1.0000
  N   N4        1.0  0.16531315914264874  0.24740993803481354  0.4521446307859449  1.0000
  N   N5        1.0  0.7580556299916738  0.49148886306920747  0.4863931136854802  1.0000
  N   N6        1.0  0.24194620328579217  0.5085095048912721  0.5136080713541347  1.0000
  N   N7        1.0  0.6739501268210047  0.2634107470125429  0.4901562767246972  1.0000
  N   N8        1.0  0.3260472509015527  0.7365886805087244  0.5098458661735776  1.0000
  O   O1        1.0  0.4812520892967669  0.6825722419399866  0.1649182445673816  1.0000
  O   O2        1.0  0.5187526469434687  0.3174282441930813  0.8350819574722692  1.0000
  O   O3        1.0  0.7808647376957368  0.6177277229297644  0.0935018681065856  1.0000
  O   O4        1.0  0.21913718993619818  0.38227170343500927  0.9064958342377595  1.0000
  O   O5        1.0  0.9626075700931835  0.1768998288886792  0.846131328903347  1.0000
  O   O6        1.0  0.037397211421662684  0.8231017159771453  0.15386676625024623  1.0000
  O   O7        1.0  0.6879485130267113  0.0764252997705697  0.9243448646870931  1.0000
  O   O8        1.0  0.31205341460522357  0.9235741265942039  0.07565283765725181  1.0000
  O   O9        1.0  0.9882529023532383  0.6454562478883831  0.8910599911447791  1.0000
  O   O10       1.0  0.011740032938590198  0.3545474162130873  0.1089402284769889  1.0000
  O   O11       1.0  0.49772507984018693  0.3829315928702001  0.09526848135353562  1.0000
  O   O12       1.0  0.502278188843448  0.6170688933199102  0.9047318250615533  1.0000
  O   O13       1.0  0.9999408721478747  0.8663341541234074  0.936012572764213  1.0000
  O   O14       1.0  6.0913758161999196e-05  0.1336705683686006  0.06398491371889752  1.0000
  O   O15       1.0  0.5680948782966836  0.16474791990424356  0.15387547825606873  1.0000
  O   O16       1.0  0.4319157772498058  0.8352525656722136  0.846122930472639  1.0000
