data_image0
_chemical_formula_structural       Ni2H12C12S4Br4N4
_chemical_formula_sum              "Ni2 H12 C12 S4 Br4 N4"
_cell_length_a       3.767122806325112
_cell_length_b       11.500605427579735
_cell_length_c       11.947174190452314
_cell_angle_alpha    79.72108250758919
_cell_angle_beta     80.95282596833358
_cell_angle_gamma    80.42838911422233

_space_group_name_H-M_alt    "P 1"
_space_group_IT_number       1

loop_
  _space_group_symop_operation_xyz
  'x, y, z'

loop_
  _atom_site_type_symbol
  _atom_site_label
  _atom_site_symmetry_multiplicity
  _atom_site_fract_x
  _atom_site_fract_y
  _atom_site_fract_z
  _atom_site_occupancy
  Ni  Ni1       1.0  0.579450071571614  0.7501105673438315  0.7497690238102166  1.0000
  Ni  Ni2       1.0  0.4205578968805669  0.24988791236590666  0.2502310020829128  1.0000
  H   H1        1.0  0.6318522808833368  0.5783560758835904  0.9850202900214811  1.0000
  H   H2        1.0  0.7011463854301637  0.9215513905846181  0.5145394615462706  1.0000
  H   H3        1.0  0.3681014452298683  0.4216397211442882  0.014976394934699001  1.0000
  H   H4        1.0  0.2988578856946448  0.0784497674750142  0.48546001242399944  1.0000
  H   H5        1.0  0.21681509564729826  0.9163852326722836  0.13928414771230987  1.0000
  H   H6        1.0  0.7794585630058108  0.5837885384784444  0.36013766413756093  1.0000
  H   H7        1.0  0.7831983084215325  0.0836088297829392  0.8607237976070508  1.0000
  H   H8        1.0  0.22055046641476383  0.41621527439080797  0.6398581789793739  1.0000
  H   H9        1.0  0.3229308632566871  0.9488877225179948  0.9082313804570319  1.0000
  H   H10       1.0  0.67809327988023  0.5516628343926513  0.5911984598527553  1.0000
  H   H11       1.0  0.6770846068045204  0.051113481895185914  0.09177571326350181  1.0000
  H   H12       1.0  0.3219329385004601  0.4483364967837602  0.40879623758598177  1.0000
  C   C1        1.0  0.5288415872537726  0.6681360100199214  0.001990168296167378  1.0000
  C   C2        1.0  0.7039824121958275  0.8318981735379011  0.49755024362841743  1.0000
  C   C3        1.0  0.47114342891853794  0.33186248777459326  0.9980113029511273  1.0000
  C   C4        1.0  0.29601854222033824  0.1681047701103466  0.5024488180936046  1.0000
  C   C5        1.0  0.30956128216092793  0.8495400047383725  0.08313673069484653  1.0000
  C   C6        1.0  0.748258840875849  0.6506128541757903  0.4163012102594195  1.0000
  C   C7        1.0  0.6904350228195001  0.15045403483748035  0.9168668067037515  1.0000
  C   C8        1.0  0.25175228846441666  0.34939007171813324  0.5836957416132904  1.0000
  C   C9        1.0  0.36521330465850343  0.865098165437388  0.9658749139944547  1.0000
  C   C10       1.0  0.6976322576888662  0.6352366540821565  0.5335815798301553  1.0000
  C   C11       1.0  0.634790482942627  0.1349003435324647  0.0341292928093395  1.0000
  C   C12       1.0  0.3023830245302438  0.3647644803711216  0.4664149481086781  1.0000
  S   S1        1.0  0.4163521823434735  0.7015309960423722  0.137600512201594  1.0000
  S   S2        1.0  0.7648959707252919  0.7983560249203095  0.3619286397612527  1.0000
  S   S3        1.0  0.5836266898903375  0.29846393090534923  0.8624011190470497  1.0000
  S   S4        1.0  0.23509693665866394  0.2016478116874723  0.6380698835890684  1.0000
  Br  Br1       1.0  0.14230125108465339  0.5904155256386474  0.7826842031390413  1.0000
  Br  Br2       1.0  0.013610868705718822  0.9097288430610176  0.7170088467637044  1.0000
  Br  Br3       1.0  0.8577000988892398  0.40958024100560647  0.2173105601899792  1.0000
  Br  Br4       1.0  0.9863841106257213  0.0902723443908968  0.28299454231916604  1.0000
  N   N1        1.0  0.4879258368565121  0.7614266642058923  0.9203505402919916  1.0000
  N   N2        1.0  0.6708771555740753  0.7388353821390015  0.5791531894176032  1.0000
  N   N3        1.0  0.5120733702865081  0.238574511475889  0.0796513093256479  1.0000
  N   N4        1.0  0.3291342794522053  0.2611648713231389  0.42084501766106547  1.0000
