data_image0
_chemical_formula_structural       Cu2H8C10S2N6
_chemical_formula_sum              "Cu2 H8 C10 S2 N6"
_cell_length_a       5.652253891492715
_cell_length_b       5.810743879294236
_cell_length_c       10.35756528052472
_cell_angle_alpha    89.99793753597116
_cell_angle_beta     90.00066639534397
_cell_angle_gamma    99.10910365916499

_space_group_name_H-M_alt    "P 1"
_space_group_IT_number       1

loop_
  _space_group_symop_operation_xyz
  'x, y, z'

loop_
  _atom_site_type_symbol
  _atom_site_label
  _atom_site_symmetry_multiplicity
  _atom_site_fract_x
  _atom_site_fract_y
  _atom_site_fract_z
  _atom_site_occupancy
  Cu  Cu1       1.0  0.6256705720983647  0.0709014446055534  0.39557450281376544  1.0000
  Cu  Cu2       1.0  0.374353519191196  0.9291080735218176  0.8955791325465153  1.0000
  H   H1        1.0  0.03077618985321349  0.3600643653815752  0.2675138355275805  1.0000
  H   H2        1.0  0.9692242160076532  0.6399426592830508  0.7675255558453384  1.0000
  H   H3        1.0  0.335011889715112  0.3055088336848045  0.09901442226320967  1.0000
  H   H4        1.0  0.6649947270729156  0.6944870498686768  0.599017196996712  1.0000
  H   H5        1.0  0.9679306512535037  0.6403363441436839  0.022975087125224992  1.0000
  H   H6        1.0  0.0320664387344252  0.35965143043484465  0.5229725280820003  1.0000
  H   H7        1.0  0.6635421278497448  0.6951474015965645  0.19139725958310544  1.0000
  H   H8        1.0  0.3364348846031717  0.30486526143990744  0.6914075130303627  1.0000
  C   C1        1.0  0.43235100367920865  0.538539085116895  0.39542722151135457  1.0000
  C   C2        1.0  0.5676611457712467  0.4614615971836925  0.8954184264343749  1.0000
  C   C3        1.0  0.016573188769541503  0.19796610706750076  0.21300996328715627  1.0000
  C   C4        1.0  0.9834025090748  0.802011804230688  0.7130221499945646  1.0000
  C   C5        1.0  0.18479126041275154  0.1683673445434479  0.11946471477450156  1.0000
  C   C6        1.0  0.8151992890246973  0.8316371799695758  0.6194635811948073  1.0000
  C   C7        1.0  0.9821418955816484  0.8024660184325967  0.07744902933711018  1.0000
  C   C8        1.0  0.017864263341337498  0.19756459082339012  0.5774508315565823  1.0000
  C   C9        1.0  0.8138573634617359  0.8321526610235213  0.17094310658404765  1.0000
  C   C10       1.0  0.1861172063991603  0.1678459100807856  0.6709514726026667  1.0000
  S   S1        1.0  0.3010502019241699  0.7696892181651549  0.39525981952109374  1.0000
  S   S2        1.0  0.6989731049212224  0.23031509637588957  0.8952575659646268  1.0000
  N   N1        1.0  0.5202823564467636  0.3663740458885627  0.39554668955776845  1.0000
  N   N2        1.0  0.47974824919906933  0.6336199011216409  0.8955451553657097  1.0000
  N   N3        1.0  0.8297945131052059  0.030025834838618  0.24049088464983723  1.0000
  N   N4        1.0  0.17021369709879505  0.9700007894066046  0.7405010557769953  1.0000
  N   N5        1.0  0.1690042574397381  0.9704334349345062  0.0500105891041471  1.0000
  N   N6        1.0  0.8309753818148593  0.029529399116910295  0.5500105449568409  1.0000
