data_image0
_chemical_formula_structural       Zn8Te8H32C8N8
_chemical_formula_sum              "Zn8 Te8 H32 C8 N8"
_cell_length_a       6.919991833319041
_cell_length_b       6.9920765852489
_cell_length_c       17.150868153073265
_cell_angle_alpha    90.0000551498389
_cell_angle_beta     89.99953853188124
_cell_angle_gamma    90.00094634983195

_space_group_name_H-M_alt    "P 1"
_space_group_IT_number       1

loop_
  _space_group_symop_operation_xyz
  'x, y, z'

loop_
  _atom_site_type_symbol
  _atom_site_label
  _atom_site_symmetry_multiplicity
  _atom_site_fract_x
  _atom_site_fract_y
  _atom_site_fract_z
  _atom_site_occupancy
  Zn  Zn1       1.0  0.7879905837803844  0.8987772558310992  0.6965446303924807  1.0000
  Zn  Zn2       1.0  0.21201985460488967  0.6012238726383572  0.1965407574134943  1.0000
  Zn  Zn3       1.0  0.7120165113603889  0.3987888499050811  0.3034567091526981  1.0000
  Zn  Zn4       1.0  0.28799111188626364  0.1012148815554639  0.803456708662857  1.0000
  Zn  Zn5       1.0  0.21201049904895797  0.10122660426240057  0.3034565216177397  1.0000
  Zn  Zn6       1.0  0.7879927889286404  0.3987756969718745  0.8034557300848135  1.0000
  Zn  Zn7       1.0  0.28799179690301446  0.6012135800553934  0.6965438597812934  1.0000
  Zn  Zn8       1.0  0.7120128611077304  0.8987875483709046  0.1965444433410397  1.0000
  Te  Te1       1.0  0.915717684112671  0.5466725553935632  0.6718365021367774  1.0000
  Te  Te2       1.0  0.08428877286273459  0.953327089463528  0.1718368097146126  1.0000
  Te  Te3       1.0  0.5842805285560075  0.0466835862997925  0.3281635214371832  1.0000
  Te  Te4       1.0  0.41571951536469937  0.45331876830055506  0.8281625554173075  1.0000
  Te  Te5       1.0  0.0842819536327895  0.45332987449555173  0.328162317632696  1.0000
  Te  Te6       1.0  0.9157152000989226  0.04667104989135849  0.8281637592275075  1.0000
  Te  Te7       1.0  0.4157176640721758  0.9533174133899818  0.6718376305784517  1.0000
  Te  Te8       1.0  0.5842859027264139  0.5466822314439596  0.17183568127895646  1.0000
  H   H1        1.0  0.8850257685929248  0.18709665511246243  0.6038650032508883  1.0000
  H   H2        1.0  0.11498037819696796  0.3129066450101732  0.10386045866220428  1.0000
  H   H3        1.0  0.6149733886106714  0.6870902206585895  0.396140327634491  1.0000
  H   H4        1.0  0.38502407517960785  0.812897037137084  0.8961394297705212  1.0000
  H   H5        1.0  0.11498398482284237  0.8129172163869074  0.3961402301694434  1.0000
  H   H6        1.0  0.8850192594712992  0.6870872037378604  0.8961389441663101  1.0000
  H   H7        1.0  0.3850262490287263  0.3129021979016855  0.6038614074371722  1.0000
  H   H8        1.0  0.6149798977904054  0.1871011022165447  0.1038599730498717  1.0000
  H   H9        1.0  0.07210009880672169  0.0522918703877124  0.6252119437000232  1.0000
  H   H10       1.0  0.9279042971015554  0.4477100456656871  0.125211065271607  1.0000
  H   H11       1.0  0.42790425463159915  0.5522932644966829  0.37479074911294674  1.0000
  H   H12       1.0  0.57208917978366  0.9477082490363741  0.8747932104308944  1.0000
  H   H13       1.0  0.9279038742070821  0.9477148501120355  0.3747915405482445  1.0000
  H   H14       1.0  0.07209678565059358  0.5522852332867388  0.8747906697976546  1.0000
  H   H15       1.0  0.5721026085190459  0.4477063050716481  0.6252098198234535  1.0000
  H   H16       1.0  0.42790756773105426  0.05229275064560569  0.1252114399529276  1.0000
  H   H17       1.0  0.7795980573290677  0.9709257899338083  0.5041013437160515  1.0000
  H   H18       1.0  0.22040502187092403  0.529079213172892  0.0040962389458841  1.0000
  H   H19       1.0  0.7204232713912047  0.47093078352750684  0.4959029418112806  1.0000
  H   H20       1.0  0.27957870530098455  0.029079084527992894  0.9959023626035872  1.0000
  H   H21       1.0  0.2204405979157613  0.0290952327485385  0.49590388964557525  1.0000
  H   H22       1.0  0.7795628238161567  0.47090891455740547  0.9959014147650649  1.0000
  H   H23       1.0  0.27957203101147593  0.5290644953779733  0.5040982102091576  1.0000
  H   H24       1.0  0.7204223774188278  0.9709119038529437  0.0040987894038906  1.0000
  H   H25       1.0  0.9546356234801292  0.8029370759571252  0.5359815451318611  1.0000
  H   H26       1.0  0.045362663783549785  0.6970665658198456  0.0359813227862062  1.0000
  H   H27       1.0  0.5453785110579189  0.3029363354352625  0.4640156721770978  1.0000
  H   H28       1.0  0.45463114767164103  0.1970605920633517  0.964017933303076  1.0000
  H   H29       1.0  0.0453596792400361  0.19709109731922328  0.4640143593478001  1.0000
  H   H30       1.0  0.9546340836401296  0.3029144111861725  0.964012249436948  1.0000
  H   H31       1.0  0.45462257172274423  0.6970618038970995  0.5359854798319077  1.0000
  H   H32       1.0  0.5453569291985473  0.8029289660294054  0.0359890493398396  1.0000
  C   C1        1.0  0.9264086322720998  0.9568796632129023  0.52818028235545  1.0000
  C   C2        1.0  0.07358254124999769  0.5431139503092979  0.0281734631908392  1.0000
  C   C3        1.0  0.5735719949900826  0.45688797273066933  0.4718193327919735  1.0000
  C   C4        1.0  0.4264014247598808  0.043110401533048986  0.9718228120876164  1.0000
  C   C5        1.0  0.07355054259900129  0.0430812908407106  0.4718249511590145  1.0000
  C   C6        1.0  0.9264329927611356  0.4569185136974808  0.9718201090041277  1.0000
  C   C7        1.0  0.42643342302419274  0.5431030156805932  0.5281777377804246  1.0000
  C   C8        1.0  0.5735563055228425  0.9569048997341271  0.0281771738936456  1.0000
  N   N1        1.0  0.930929241961877  0.0470713847560091  0.6057604086655601  1.0000
  N   N2        1.0  0.06908265792913679  0.45292476856387504  0.1057619455790046  1.0000
  N   N3        1.0  0.5690848736617155  0.5471013957121399  0.3942349505621436  1.0000
  N   N4        1.0  0.430932848929764  0.952918752505951  0.8942350871236614  1.0000
  N   N5        1.0  0.069083401595023  0.9529181735058501  0.3942209192481627  1.0000
  N   N6        1.0  0.9309213152099288  0.5470819519169723  0.8942240468433411  1.0000
  N   N7        1.0  0.430916209101177  0.4529010341992645  0.6057737812390016  1.0000
  N   N8        1.0  0.5690711239970625  0.0470851076226708  0.1057771430369527  1.0000
