data_image0
_chemical_formula_structural       Sr2H28C20N8O12
_chemical_formula_sum              "Sr2 H28 C20 N8 O12"
_cell_length_a       8.072197462497334
_cell_length_b       8.424873546580722
_cell_length_c       11.379642676336934
_cell_angle_alpha    82.9492267007547
_cell_angle_beta     78.85623843695271
_cell_angle_gamma    66.74554361519874

_space_group_name_H-M_alt    "P 1"
_space_group_IT_number       1

loop_
  _space_group_symop_operation_xyz
  'x, y, z'

loop_
  _atom_site_type_symbol
  _atom_site_label
  _atom_site_symmetry_multiplicity
  _atom_site_fract_x
  _atom_site_fract_y
  _atom_site_fract_z
  _atom_site_occupancy
  Sr  Sr1       1.0  0.21941861423884745  0.5560863018164  0.04650273959136798  1.0000
  Sr  Sr2       1.0  0.780581682796246  0.4439176157213964  0.9534995825676164  1.0000
  H   H1        1.0  0.40540015501591853  0.026016274734544716  0.26626950554661016  1.0000
  H   H2        1.0  0.5945943524977649  0.9739983184506117  0.7337240527151607  1.0000
  H   H3        1.0  0.42529335226269893  0.21926874515398254  0.29459437252733517  1.0000
  H   H4        1.0  0.5746994106509502  0.7807471086957424  0.7054002277601512  1.0000
  H   H5        1.0  0.4813854079511017  0.03984217812119791  0.3999729512240719  1.0000
  H   H6        1.0  0.5186154496216203  0.9601723800940578  0.6000205343752611  1.0000
  H   H7        1.0  0.8057760707323849  0.19006635575866684  0.2787706998330393  1.0000
  H   H8        1.0  0.1942247123244768  0.8099482683626466  0.7212210333564499  1.0000
  H   H9        1.0  0.8331669811018115  0.9005139652084466  0.5162352479262466  1.0000
  H   H10       1.0  0.16683947025993717  0.09947088404972965  0.4837588612471819  1.0000
  H   H11       1.0  0.0019931124458807273  0.8679654270215948  0.6050449234149653  1.0000
  H   H12       1.0  0.9980044292088693  0.13202310658132893  0.3949555097707886  1.0000
  H   H13       1.0  0.8980679891509739  0.7157490168046795  0.616546763596638  1.0000
  H   H14       1.0  0.10192201754795602  0.2842458856237471  0.3834569375343762  1.0000
  H   H15       1.0  0.361286900994969  0.7066232321671111  0.47699112705450364  1.0000
  H   H16       1.0  0.6387145698254244  0.2933440184673941  0.5230262201566587  1.0000
  H   H17       1.0  0.6866860681920244  0.8133753133530492  0.13772916622748002  1.0000
  H   H18       1.0  0.31330669513881293  0.18664332423988844  0.8622599391516346  1.0000
  H   H19       1.0  0.9304919534034041  0.6384628178946129  0.3592255633185104  1.0000
  H   H20       1.0  0.06951283143892786  0.3615324092235782  0.6407670984816035  1.0000
  H   H21       1.0  0.034110839893791906  0.29585769046633464  0.149619675999844  1.0000
  H   H22       1.0  0.9658859306833064  0.7041487813536238  0.8503838540056421  1.0000
  H   H23       1.0  0.8504498481461054  0.4618937618343254  0.19307258161979488  1.0000
  H   H24       1.0  0.14954584301281668  0.5381061462655978  0.8069342660842835  1.0000
  H   H25       1.0  0.3363998763851156  0.15841428112802455  0.0532909344927077  1.0000
  H   H26       1.0  0.6635960018978009  0.8415910296931914  0.9467093044192367  1.0000
  H   H27       1.0  0.5153898260571663  0.19334387443485213  0.9770631994533688  1.0000
  H   H28       1.0  0.4846079831154098  0.8066600109566767  0.022940378457484197  1.0000
  C   C1        1.0  0.4882007263928898  0.07762039733098904  0.30364613881009456  1.0000
  C   C2        1.0  0.5117971989526069  0.9223981397893726  0.6963448360898993  1.0000
  C   C3        1.0  0.6800371455580462  0.015323614958937503  0.2410967940359541  1.0000
  C   C4        1.0  0.3199594799693059  0.9846949555178244  0.7588934944325912  1.0000
  C   C5        1.0  0.8181787639162295  0.0763268703262412  0.2368799200627905  1.0000
  C   C6        1.0  0.1818197520952793  0.9236839083155745  0.7631115781002293  1.0000
  C   C7        1.0  0.9701136175837562  0.964251433781925  0.1627835154689095  1.0000
  C   C8        1.0  0.0298867171264519  0.03575523454605901  0.8372141879866248  1.0000
  C   C9        1.0  0.15588411294945803  0.9643106855133966  0.12319907146583385  1.0000
  C   C10       1.0  0.8441181122449066  0.035688190979634306  0.8767998416841819  1.0000
  C   C11       1.0  0.949735237534426  0.8016620215432299  0.5535821755726502  1.0000
  C   C12       1.0  0.05026282341805908  0.19832521884548274  0.4464182815657907  1.0000
  C   C13       1.0  0.09360781463136185  0.706121293004209  0.45616265889350416  1.0000
  C   C14       1.0  0.9063973733357998  0.293857989170924  0.5438426298701415  1.0000
  C   C15       1.0  0.27953551710793784  0.672093336425917  0.4274494161680238  1.0000
  C   C16       1.0  0.7204705223307072  0.3278779565994938  0.5725625292931226  1.0000
  C   C17       1.0  0.5222264710149247  0.5234207739695622  0.24219256638794917  1.0000
  C   C18       1.0  0.4777812452202567  0.47656490675710483  0.7578135959282618  1.0000
  C   C19       1.0  0.33963385593332857  0.5823685192264565  0.32048403400860087  1.0000
  C   C20       1.0  0.6603708158836737  0.4176184555211792  0.6795224839018701  1.0000
  N   N1        1.0  0.9285378488307215  0.8420010177513434  0.12330820591343893  1.0000
  N   N2        1.0  0.0714588849056383  0.15800827076484583  0.8766889529787534  1.0000
  N   N3        1.0  0.7540842215869641  0.8746113940755439  0.1728228288441969  1.0000
  N   N4        1.0  0.24590924733124103  0.12540578553804957  0.8271706815122144  1.0000
  N   N5        1.0  0.20009798430233153  0.5599005012612326  0.2856155425152593  1.0000
  N   N6        1.0  0.7999070613454792  0.44009449518578253  0.7143832527193226  1.0000
  N   N7        1.0  0.05477115585608041  0.6342610696306256  0.36916909926178215  1.0000
  N   N8        1.0  0.9452328853065808  0.3657300809335098  0.630829271172864  1.0000
  O   O1        1.0  0.271715315317408  0.8374088534006391  0.06330390628814091  1.0000
  O   O2        1.0  0.7282860575711041  0.16259244475570264  0.9366993399811321  1.0000
  O   O3        1.0  0.1889817171340695  0.08974219504020912  0.1508982409066775  1.0000
  O   O4        1.0  0.8110220691011065  0.9102592011684579  0.8491019972008758  1.0000
  O   O5        1.0  0.5299118869140926  0.469513247155689  0.13993812337906772  1.0000
  O   O6        1.0  0.470089672681226  0.5304906699787325  0.8600640090064501  1.0000
  O   O7        1.0  0.6551174092492005  0.5322059745898359  0.28153703711661376  1.0000
  O   O8        1.0  0.3448915318710987  0.4677769549432755  0.7184735541295737  1.0000
  O   O9        1.0  0.964396866860966  0.4211280577913926  0.13010579884991097  1.0000
  O   O10       1.0  0.03559797240927752  0.5788770557150401  0.8698998870650456  1.0000
  O   O11       1.0  0.37772816142945936  0.2374588920367273  0.9932064305744389  1.0000
  O   O12       1.0  0.6222703910055997  0.7625462861656376  0.006796933610260679  1.0000
