data_image0
_chemical_formula_structural       Zn2H40C52N4O12
_chemical_formula_sum              "Zn2 H40 C52 N4 O12"
_cell_length_a       8.476722295615776
_cell_length_b       11.462803963627533
_cell_length_c       13.558827891002187
_cell_angle_alpha    89.99998702845485
_cell_angle_beta     90.00006431389593
_cell_angle_gamma    111.71255173710499

_space_group_name_H-M_alt    "P 1"
_space_group_IT_number       1

loop_
  _space_group_symop_operation_xyz
  'x, y, z'

loop_
  _atom_site_type_symbol
  _atom_site_label
  _atom_site_symmetry_multiplicity
  _atom_site_fract_x
  _atom_site_fract_y
  _atom_site_fract_z
  _atom_site_occupancy
  Zn  Zn1       1.0  0.6340447370221156  0.9999845871173747  0.9998756401173094  1.0000
  Zn  Zn2       1.0  0.13404489641388992  0.9999855335024816  0.5001243013973777  1.0000
  H   H1        1.0  0.5201986164137935  0.3929186970724316  0.6713428360792405  1.0000
  H   H2        1.0  0.1273534214807341  0.6070275928817992  0.32854977192180707  1.0000
  H   H3        1.0  0.020198935995338677  0.3929187898904161  0.8286571428282198  1.0000
  H   H4        1.0  0.6273554616084238  0.6070275002909681  0.1714515605488316  1.0000
  H   H5        1.0  0.3020127270128724  0.29635367687460246  0.6682436805784917  1.0000
  H   H6        1.0  0.005997526751862259  0.7037573960088678  0.33174173609184976  1.0000
  H   H7        1.0  0.8020122453220466  0.29635268676693016  0.8317557782186211  1.0000
  H   H8        1.0  0.5059983810091425  0.70375730248837  0.1682594920649052  1.0000
  H   H9        1.0  0.22153104839505022  0.7813494516478839  0.7621573277056369  1.0000
  H   H10       1.0  0.4400651564514532  0.21852572254532276  0.23780018761863886  1.0000
  H   H11       1.0  0.721531566414285  0.7813484372156696  0.737841242816394  1.0000
  H   H12       1.0  0.940063121179854  0.21852659216499148  0.2621970154748823  1.0000
  H   H13       1.0  0.4463860312278882  0.13040694110348744  0.6736992338721137  1.0000
  H   H14       1.0  0.31626192449830626  0.8695997629144188  0.326135887602284  1.0000
  H   H15       1.0  0.9463855390777383  0.13040594957692514  0.8262996213563695  1.0000
  H   H16       1.0  0.8162583109804943  0.8695977925371494  0.1738655271690561  1.0000
  H   H17       1.0  0.44480088333699536  0.3668409710559644  0.9212006926063265  1.0000
  H   H18       1.0  0.07786902048331248  0.633119196715988  0.07871399717402737  1.0000
  H   H19       1.0  0.9448003863421945  0.3668408541703911  0.5787995907320393  1.0000
  H   H20       1.0  0.5778687104313748  0.633118229892574  0.4212887704022492  1.0000
  H   H21       1.0  0.3130065450442387  0.6371437867430957  0.48534362349509746  1.0000
  H   H22       1.0  0.6754785223411517  0.3629946456823418  0.5146390829582045  1.0000
  H   H23       1.0  0.8130075744674556  0.6371445922835264  0.014656358983664597  1.0000
  H   H24       1.0  0.17548032208634373  0.36299477935333613  0.9853595361800412  1.0000
  H   H25       1.0  0.3784759731561138  0.46887678665260774  0.5711822035997471  1.0000
  H   H26       1.0  0.9094231059655017  0.5312709426186045  0.4288411723857023  1.0000
  H   H27       1.0  0.8784777965608371  0.46887769990328104  0.9288180131984659  1.0000
  H   H28       1.0  0.4094241116535357  0.5312709685690891  0.07115963612147168  1.0000
  H   H29       1.0  0.29490713446288896  0.6160314798851941  0.8510448464243863  1.0000
  H   H30       1.0  0.6787345545206875  0.384002413790462  0.1489592430856561  1.0000
  H   H31       1.0  0.7949063023279308  0.616030442236841  0.6489552829288954  1.0000
  H   H32       1.0  0.1787332676271163  0.38400157332201706  0.3510399562580416  1.0000
  H   H33       1.0  0.5276475230398247  0.9931258093675621  0.7918192710679788  1.0000
  H   H34       1.0  0.5349088480703301  0.0067559607021863  0.20793409066416046  1.0000
  H   H35       1.0  0.027647611658096573  0.9931258708534402  0.7081805967580548  1.0000
  H   H36       1.0  0.034906978483341795  0.006754165888288797  0.29206581791697056  1.0000
  H   H37       1.0  0.5196843337200862  0.2179033034707558  0.0293500441900534  1.0000
  H   H38       1.0  0.301684203047472  0.7819590583774171  0.9704814103651669  1.0000
  H   H39       1.0  0.01968374576225073  0.21790343311700874  0.47064981273189926  1.0000
  H   H40       1.0  0.8016857305995019  0.7819608067914033  0.5295209041872226  1.0000
  C   C1        1.0  0.21971385343216807  0.8145718536212954  0.5611465859032804  1.0000
  C   C2        1.0  0.404977474994851  0.1854560759571271  0.4388898317717462  1.0000
  C   C3        1.0  0.7197140466895674  0.8145718303742129  0.9388527144249252  1.0000
  C   C4        1.0  0.9049785934718102  0.1854568935784471  0.06110809051992308  1.0000
  C   C5        1.0  0.3388671034792948  0.5319580588690442  0.7171859543439254  1.0000
  C   C6        1.0  0.8067151355560042  0.46814949514826754  0.2828277836239366  1.0000
  C   C7        1.0  0.8388669975973144  0.5319579950411963  0.7828142222999048  1.0000
  C   C8        1.0  0.30671406166148774  0.4681495588731365  0.21717296469994093  1.0000
  C   C9        1.0  0.4070171752378258  0.348496886550869  0.7179751499079784  1.0000
  C   C10       1.0  0.05863238409835238  0.6515185648299064  0.28198082127034496  1.0000
  C   C11       1.0  0.9070198969795625  0.34849776172490726  0.7820251103465451  1.0000
  C   C12       1.0  0.5586338033859164  0.651519423258712  0.21802045412312046  1.0000
  C   C13       1.0  0.2577685588671199  0.7132679017261692  0.7212843450421857  1.0000
  C   C14       1.0  0.5442271073904976  0.2867646570235395  0.2786997707305616  1.0000
  C   C15       1.0  0.7577684451273967  0.7132678368323581  0.778715001752303  1.0000
  C   C16       1.0  0.044226511042659004  0.2867656608298148  0.22129935262208988  1.0000
  C   C17       1.0  0.46188584274301553  0.15272941668238363  0.7520688431996729  1.0000
  C   C18       1.0  0.30941123302146417  0.8472244957961125  0.24777144401712548  1.0000
  C   C19       1.0  0.961886139621633  0.15273028279059994  0.7479307561577284  1.0000
  C   C20       1.0  0.8094077697332834  0.8472225457987433  0.2522284952070777  1.0000
  C   C21       1.0  0.26252253522780933  0.718876747831871  0.6177643360908431  1.0000
  C   C22       1.0  0.5433475606457633  0.28120120825830947  0.38221093072085205  1.0000
  C   C23       1.0  0.7625226199443986  0.718876709860318  0.8822350129685075  1.0000
  C   C24       1.0  0.0433479456089145  0.2812021852440623  0.11778745556344458  1.0000
  C   C25       1.0  0.460158365726457  0.28442430763145415  0.8899303039190298  1.0000
  C   C26       1.0  0.17576867982304378  0.7155050391464571  0.1099637750391622  1.0000
  C   C27       1.0  0.9601583983140713  0.28442513788637314  0.6100700062217894  1.0000
  C   C28       1.0  0.6757683098620717  0.7155040641958762  0.3900383080686893  1.0000
  C   C29       1.0  0.30829560759899277  0.630899259603325  0.5655474578109576  1.0000
  C   C30       1.0  0.6771258868028838  0.36923703643513767  0.43443893519691557  1.0000
  C   C31       1.0  0.8082969721714122  0.6308992353113538  0.9344526781011808  1.0000
  C   C32       1.0  0.177126881758717  0.3692370609297129  0.06556100340200288  1.0000
  C   C33       1.0  0.34609044109172515  0.5373126528683301  0.6138186143514515  1.0000
  C   C34       1.0  0.8085887902909192  0.46282383764711443  0.3861966018743885  1.0000
  C   C35       1.0  0.8460900637395952  0.5373116769150741  0.8861823038744061  1.0000
  C   C36       1.0  0.3085898777313218  0.4628238746879987  0.1138034112766704  1.0000
  C   C37       1.0  0.4416338412897431  0.2606536845631027  0.7886265578758795  1.0000
  C   C38       1.0  0.18109410422449898  0.7392933280746447  0.2112645663199046  1.0000
  C   C39       1.0  0.941635717471165  0.26065548027158764  0.7113744813384527  1.0000
  C   C40       1.0  0.6810935400616315  0.7392923267789512  0.28873751593201286  1.0000
  C   C41       1.0  0.2968015221134479  0.6213029980899448  0.7706986685224776  1.0000
  C   C42       1.0  0.6752703312215119  0.37875517633113986  0.22931427075430824  1.0000
  C   C43       1.0  0.7968024933935209  0.6213029204445703  0.729300723618415  1.0000
  C   C44       1.0  0.17527265868638148  0.3787571321881416  0.2706849271648792  1.0000
  C   C45       1.0  0.505615050037065  0.07616681058436821  0.8169114915979561  1.0000
  C   C46       1.0  0.42975733156170287  0.9236976571584491  0.1828956647607711  1.0000
  C   C47       1.0  0.005615560185447087  0.0761678045525471  0.6830878008935881  1.0000
  C   C48       1.0  0.9297568217830587  0.9236966632404275  0.3171050820221807  1.0000
  C   C49       1.0  0.502256062186085  0.2021535741216312  0.9500218041490455  1.0000
  C   C50       1.0  0.30013452960325526  0.7977062477316962  0.0498081686622243  1.0000
  C   C51       1.0  0.0022558475165936702  0.20215359446398648  0.5499774615549881  1.0000
  C   C52       1.0  0.8001356838683551  0.7977081054497719  0.4501932486739405  1.0000
  N   N1        1.0  0.5275553571844114  0.1010400702608791  0.9143210968240749  1.0000
  N   N2        1.0  0.42666903315706844  0.8988015747040945  0.0854838536022768  1.0000
  N   N3        1.0  0.0275568603409653  0.10104103899534782  0.585677468789541  1.0000
  N   N4        1.0  0.9266684696427773  0.8988024840363875  0.41451689582839885  1.0000
  O   O1        1.0  0.36856294472730866  0.4419914319968398  0.7716375829137049  1.0000
  O   O2        1.0  0.9264837284614272  0.5580780269121135  0.22837178258845364  1.0000
  O   O3        1.0  0.8685622648226428  0.44199041499980035  0.7283626321053517  1.0000
  O   O4        1.0  0.42648464883188103  0.5580771659903477  0.271629770278885  1.0000
  O   O5        1.0  0.16901429347790742  0.8920221505298114  0.6094287575739514  1.0000
  O   O6        1.0  0.2767062351899554  0.10797847405038398  0.3906791371168765  1.0000
  O   O7        1.0  0.6690143941743897  0.8920221147260604  0.8905704919956179  1.0000
  O   O8        1.0  0.7767069764568931  0.1079783652017952  0.1093194472775636  1.0000
  O   O9        1.0  0.23210280511721484  0.8177982433305785  0.4684217607836344  1.0000
  O   O10       1.0  0.4143026533926033  0.1821883255542858  0.5315932762709963  1.0000
  O   O11       1.0  0.7321050467319807  0.8177990533713742  0.0315781296374738  1.0000
  O   O12       1.0  0.9143029033049502  0.1821883099929167  0.9684048087731865  1.0000
