data_image0
_chemical_formula_structural       Cd2H28C40N6O8
_chemical_formula_sum              "Cd2 H28 C40 N6 O8"
_cell_length_a       9.42543264888945
_cell_length_b       10.550971013698643
_cell_length_c       10.995316728368518
_cell_angle_alpha    66.18220204151076
_cell_angle_beta     70.57388610665359
_cell_angle_gamma    67.14396020572308

_space_group_name_H-M_alt    "P 1"
_space_group_IT_number       1

loop_
  _space_group_symop_operation_xyz
  'x, y, z'

loop_
  _atom_site_type_symbol
  _atom_site_label
  _atom_site_symmetry_multiplicity
  _atom_site_fract_x
  _atom_site_fract_y
  _atom_site_fract_z
  _atom_site_occupancy
  Cd  Cd1       1.0  0.1806856408182043  0.3663050618310421  0.5059107474132531  1.0000
  Cd  Cd2       1.0  0.8193138981737748  0.6336952828293718  0.4940904738617107  1.0000
  H   H1        1.0  0.9106253621620441  0.21233721796732397  0.25472981976915315  1.0000
  H   H2        1.0  0.08937418707623121  0.7876631313846969  0.7452723061865286  1.0000
  H   H3        1.0  0.8652998137004104  0.8835351573724851  0.06275528537324955  1.0000
  H   H4        1.0  0.1347007513451715  0.11646192097870063  0.9372441925038969  1.0000
  H   H5        1.0  0.27601548363833944  0.9544967757490068  0.27408963705082096  1.0000
  H   H6        1.0  0.7239881193450302  0.0455014119438388  0.7259103312199356  1.0000
  H   H7        1.0  0.9774593001992572  0.032597529266823196  0.8324502755812446  1.0000
  H   H8        1.0  0.02254238808277625  0.9673995543777991  0.167548870489334  1.0000
  H   H9        1.0  0.5425028227211186  0.37458004021031144  0.8334992853825653  1.0000
  H   H10       1.0  0.45749851329675556  0.6254181275124464  0.16649953713990587  1.0000
  H   H11       1.0  0.5210660730569002  0.3778832692259044  0.5478550834963798  1.0000
  H   H12       1.0  0.4789319801881575  0.6221181495276014  0.4521452413563337  1.0000
  H   H13       1.0  0.2608810055877413  0.33411740819146724  0.9312518913144814  1.0000
  H   H14       1.0  0.7391152198925325  0.6658861734248731  0.06874811824858552  1.0000
  H   H15       1.0  0.811257270044443  0.6167708450792659  0.8453185375944515  1.0000
  H   H16       1.0  0.18873711742474333  0.3832348947083021  0.1546802519982506  1.0000
  H   H17       1.0  0.803576935245573  0.3450589039417622  0.42797096196184  1.0000
  H   H18       1.0  0.1964226139927021  0.6549414454102589  0.5720311639938416  1.0000
  H   H19       1.0  0.5560810614147799  0.8662023815184268  0.22056474430921466  1.0000
  H   H20       1.0  0.44391995307781673  0.1337968843572952  0.7794364687072886  1.0000
  H   H21       1.0  0.671389325441339  0.9127740506581861  0.28141451956319935  1.0000
  H   H22       1.0  0.32861356276740133  0.08722630049932428  0.7185838969306175  1.0000
  H   H23       1.0  0.4299832175803788  0.2293607678823975  0.06403677443077524  1.0000
  H   H24       1.0  0.5700173269726109  0.7706363010855739  0.9359608940849427  1.0000
  H   H25       1.0  0.06018275522322372  0.13529498601906909  0.4262469056515457  1.0000
  H   H26       1.0  0.9398193517669289  0.8647042710752615  0.5737512615162429  1.0000
  H   H27       1.0  0.7359734963507378  0.11437709601749901  0.2149836115246799  1.0000
  H   H28       1.0  0.2640253278666052  0.8856254121075863  0.7850160579733513  1.0000
  C   C1        1.0  0.5355025505367833  0.19156269959579214  0.3637175334159365  1.0000
  C   C2        1.0  0.4644966054521333  0.8084387150679362  0.6362806502687732  1.0000
  C   C3        1.0  0.6403554773597263  0.04732214373927951  0.07832002097903507  1.0000
  C   C4        1.0  0.35964507743955915  0.9526749299202991  0.9216785522174008  1.0000
  C   C5        1.0  0.04029881718437885  0.4726887704596263  0.8763797244672062  1.0000
  C   C6        1.0  0.959695534579744  0.5273137258749189  0.12362308161853973  1.0000
  C   C7        1.0  0.4180751137303459  0.13934439912021904  0.3534525333145807  1.0000
  C   C8        1.0  0.581926651241943  0.8606559467438616  0.6465462149858113  1.0000
  C   C9        1.0  0.8400591970715039  0.3049625618040465  0.6858434281869991  1.0000
  C   C10       1.0  0.1599421594389625  0.6950356153019257  0.314157203696901  1.0000
  C   C11       1.0  0.7892479006851971  0.226730632556027  0.3118370212059745  1.0000
  C   C12       1.0  0.21075163830678187  0.773269712104387  0.6881642000689894  1.0000
  C   C13       1.0  0.7671243420408375  0.21238693654686358  0.8195175995136736  1.0000
  C   C14       1.0  0.23287889843206946  0.7876123305325109  0.18048114052825792  1.0000
  C   C15       1.0  0.7943207009471608  0.9908510888839218  0.011875696919219128  1.0000
  C   C16       1.0  0.2056798436058287  0.009145980084049697  0.9881219715965058  1.0000
  C   C17       1.0  0.2906095560302262  0.0265975552876299  0.3135769863535742  1.0000
  C   C18       1.0  0.7093914482160742  0.9734017058964849  0.6864233219822112  1.0000
  C   C19       1.0  0.856834971948814  0.07318978447871419  0.8840607008671314  1.0000
  C   C20       1.0  0.1431663743153564  0.9268083879356508  0.11593902633605081  1.0000
  C   C21       1.0  0.6117698097195046  0.2664922752980133  0.8842386139365246  1.0000
  C   C22       1.0  0.3882326597811172  0.7335059024097959  0.1157607814600823  1.0000
  C   C23       1.0  0.5734433840944178  0.3195836282646596  0.4735187570837384  1.0000
  C   C24       1.0  0.42655467939694364  0.6804177951804603  0.5264824724496934  1.0000
  C   C25       1.0  0.14701938720317292  0.40632366276485493  0.9631436877778371  1.0000
  C   C26       1.0  0.8529771905412675  0.5936788347733568  0.03685664533333727  1.0000
  C   C27       1.0  0.8925927976020985  0.5665054096948551  0.9141596156904512  1.0000
  C   C28       1.0  0.10740307561400185  0.433499255999628  0.08584007032450817  1.0000
  C   C29       1.0  0.08517038022243634  0.4456769362339231  0.7429366542764058  1.0000
  C   C30       1.0  0.9148276935152209  0.554324491902797  0.2570654799377367  1.0000
  C   C31       1.0  0.7308351094417703  0.30134209308775445  0.4061719443255355  1.0000
  C   C32       1.0  0.2691655630329564  0.6986582615577034  0.593829849823571  1.0000
  C   C33       1.0  0.580350726150165  0.9596229474902603  0.221100343332587  1.0000
  C   C34       1.0  0.41965140133258666  0.04037631898728479  0.7788996331966302  1.0000
  C   C35       1.0  0.5492944149144279  0.1845991517654824  0.012663909815323353  1.0000
  C   C36       1.0  0.45070725287501295  0.8153979224959257  0.9873334268938266  1.0000
  C   C37       1.0  0.1858311171398199  0.11621691923444641  0.3877543733144435  1.0000
  C   C38       1.0  0.814170295568303  0.8837845107077699  0.612244051437841  1.0000
  C   C39       1.0  0.691641596682132  0.1702944112568971  0.29021035453821037  1.0000
  C   C40       1.0  0.3083583507716625  0.829708102161625  0.7097889831532456  1.0000
  N   N1        1.0  0.47822630964503093  0.2673404183862261  0.4528418892763568  1.0000
  N   N2        1.0  0.5217720958641933  0.7326599162891441  0.5471587591244642  1.0000
  N   N3        1.0  0.43673638656292013  0.04129150350782141  0.2926139627572226  1.0000
  N   N4        1.0  0.5632642551729177  0.9587088370628154  0.7073851173497444  1.0000
  N   N5        1.0  0.2660211399272256  0.18461483364019665  0.41120776686563687  1.0000
  N   N6        1.0  0.7339802830271936  0.8153866009936266  0.5887915625673585  1.0000
  O   O1        1.0  0.2109201158961369  0.3455279472257331  0.7194614781038952  1.0000
  O   O2        1.0  0.7890764823408957  0.6544745596956858  0.2805406643687078  1.0000
  O   O3        1.0  0.9839043241961106  0.25092696926725466  0.6377008724036699  1.0000
  O   O4        1.0  0.01610008049843977  0.7490723218719849  0.362301154554551  1.0000
  O   O5        1.0  0.9973592154532795  0.5254991197439268  0.6573490031406877  1.0000
  O   O6        1.0  0.0026414467751508584  0.47450123020992396  0.34265188632770105  1.0000
  O   O7        1.0  0.7494712643997588  0.42978558623146057  0.6341887460068492  1.0000
  O   O8        1.0  0.25053088357559267  0.5702136896292983  0.365813039883797  1.0000
