data_image0
_chemical_formula_structural       Ca4Hg4H36C36S8N12O28
_chemical_formula_sum              "Ca4 Hg4 H36 C36 S8 N12 O28"
_cell_length_a       6.841159668
_cell_length_b       15.256354806087137
_cell_length_c       17.0665
_cell_angle_alpha    116.8822745585462
_cell_angle_beta     90.0
_cell_angle_gamma    90.0

_space_group_name_H-M_alt    "P 1"
_space_group_IT_number       1

loop_
  _space_group_symop_operation_xyz
  'x, y, z'

loop_
  _atom_site_type_symbol
  _atom_site_label
  _atom_site_symmetry_multiplicity
  _atom_site_fract_x
  _atom_site_fract_y
  _atom_site_fract_z
  _atom_site_occupancy
  Ca  Ca1       1.0  0.3093627546656492  0.1880580343181393  0.4317458059852157  1.0000
  Ca  Ca2       1.0  0.8093657024114904  0.3119429105503144  0.568253843502454  1.0000
  Ca  Ca3       1.0  0.690638755604617  0.8119445902960508  0.5682555478578664  1.0000
  Ca  Ca4       1.0  0.1906343461182871  0.6880567745547737  0.43174632218833864  1.0000
  Hg  Hg1       1.0  0.4569006062847548  0.2782598106262313  0.13042910147621714  1.0000
  Hg  Hg2       1.0  0.9569079392520337  0.2217470132604262  0.8695705805431331  1.0000
  Hg  Hg3       1.0  0.5430965187640737  0.7217435488652342  0.8695719634617092  1.0000
  Hg  Hg4       1.0  0.043092109277751  0.7782512020901109  0.13042606135541487  1.0000
  H   H1        1.0  0.367662811871682  0.3516446553610137  0.37961026384165547  1.0000
  H   H2        1.0  0.8676642978770488  0.14836069877109284  0.6203923397608833  1.0000
  H   H3        1.0  0.6323401601390586  0.6483594390077272  0.6203934419072326  1.0000
  H   H4        1.0  0.1323415976146478  0.8516433955976481  0.37961253787445065  1.0000
  H   H5        1.0  0.3313780279978076  0.4054486950892056  0.4826118246910839  1.0000
  H   H6        1.0  0.8313795140031816  0.09455518928835  0.5173895988920947  1.0000
  H   H7        1.0  0.6686234822724516  0.5945546644022599  0.5173909980765146  1.0000
  H   H8        1.0  0.1686293049694711  0.9054481702031154  0.4826143957619493  1.0000
  H   H9        1.0  0.3657303909603796  0.9650408382306779  0.2831240376856741  1.0000
  H   H10       1.0  0.8657274917443161  0.534958321988313  0.7168786990759913  1.0000
  H   H11       1.0  0.6342696575694048  0.0349603166289612  0.7168790658541582  1.0000
  H   H12       1.0  0.1342637863426077  0.4650362189758468  0.2831211451779794  1.0000
  H   H13       1.0  0.3880117010594546  0.9884297772790873  0.3833598095951416  1.0000
  H   H14       1.0  0.8880146488053029  0.5115759968353828  0.6166444286227133  1.0000
  H   H15       1.0  0.611991270951286  0.0115772565987555  0.6166427405331448  1.0000
  H   H16       1.0  0.1119912466863937  0.4884251580242491  0.3833586749171118  1.0000
  H   H17       1.0  0.3010849183413598  0.0814133789699838  0.5567775176563289  1.0000
  H   H18       1.0  0.8010761721633912  0.4185824217575416  0.44321946662162054  1.0000
  H   H19       1.0  0.6989209771503297  0.9185848363805533  0.4432197101854385  1.0000
  H   H20       1.0  0.1989238763663934  0.5814150587157201  0.5567786360685147  1.0000
  H   H21       1.0  0.5141672129731703  0.1230970877928002  0.5524009038312274  1.0000
  H   H22       1.0  0.0141657269677964  0.3769031221983782  0.44759903456159833  1.0000
  H   H23       1.0  0.4858386825185264  0.8769040670668389  0.44759868404926817  1.0000
  H   H24       1.0  0.9858328598215067  0.6230965629067102  0.5523999592427558  1.0000
  H   H25       1.0  0.7561393464029891  0.6955304764469474  0.2541132867325828  1.0000
  H   H26       1.0  0.2561349369166663  0.8044745627902472  0.745893584163312  1.0000
  H   H27       1.0  0.2438665490887075  0.3044706784126916  0.7458892308640231  1.0000
  H   H28       1.0  0.7438694968345558  0.1955258571921163  0.2541086363952232  1.0000
  H   H29       1.0  0.6869244730511993  0.5872441052652491  0.09356300794718929  1.0000
  H   H30       1.0  0.1869112931220087  0.9127624037264965  0.9064426991951748  1.0000
  H   H31       1.0  0.31307996070002275  0.41275704959439  0.9064395096494168  1.0000
  H   H32       1.0  0.813082908445864  0.0872431603967954  0.0935574990272983  1.0000
  H   H33       1.0  0.5573835701915115  0.4169561383467837  0.04933855473453259  1.0000
  H   H34       1.0  0.0573791607051817  0.0830514204171493  0.9506655259254375  1.0000
  H   H35       1.0  0.44261794007875466  0.5830450165128553  0.9506633769188468  1.0000
  H   H36       1.0  0.9426208878245959  0.9169534088288671  0.04933320337251967  1.0000
  C   C1        1.0  0.5985476437793906  0.4378531085538597  0.3226672082425566  1.0000
  C   C2        1.0  0.09856808388118311  0.0621471014373256  0.6773321442070497  1.0000
  C   C3        1.0  0.4014436343075261  0.5621495160603303  0.6773347315437519  1.0000
  C   C4        1.0  0.9014436585724184  0.937853318545038  0.32266656069215566  1.0000
  C   C5        1.0  0.6890425350031464  0.6531434900714501  0.3865898966889745  1.0000
  C   C6        1.0  0.1890600516239829  0.8468556701475478  0.6134163557320136  1.0000
  C   C7        1.0  0.3109414343813839  0.346854725279087  0.6134131905850141  1.0000
  C   C8        1.0  0.8109619230129609  0.1531388708166119  0.3865840744651763  1.0000
  C   C9        1.0  0.610396512090297  0.4859023243373457  0.2615285837438677  1.0000
  C   C10       1.0  0.1104081817492215  0.0141000902856661  0.738472831706389  1.0000
  C   C11       1.0  0.3896020746990132  0.5140988305222933  0.7384733479095189  1.0000
  C   C12       1.0  0.889600637223424  0.9858981250648711  0.26152439613537837  1.0000
  C   C13       1.0  0.6728216009239318  0.5832030151270899  0.291158494315539  1.0000
  C   C14       1.0  0.17283034710190748  0.9168064333737576  0.7088454712630039  1.0000
  C   C15       1.0  0.3271755241248968  0.4168003443643756  0.7088425706223944  1.0000
  C   C16       1.0  0.8271799336112196  0.08319325173133052  0.2911529365981309  1.0000
  C   C17       1.0  0.7042270950837874  0.6201754257364627  0.23076161125484165  1.0000
  C   C18       1.0  0.20422122385698321  0.8798303483780145  0.7692467285655695  1.0000
  C   C19       1.0  0.2957758769269532  0.3798257291231764  0.7692414922849906  1.0000
  C   C20       1.0  0.7957788246728015  0.12017080648162451  0.23075520308781713  1.0000
  C   C21       1.0  0.6662949296917375  0.5605783484452402  0.14233936766109423  1.0000
  C   C22       1.0  0.16628905846493322  0.9394252210374036  0.8576645653857682  1.0000
  C   C23       1.0  0.3337065805785286  0.4394220715371233  0.8576622669542219  1.0000
  C   C24       1.0  0.8337182987672378  0.0605759338222285  0.1423332646650621  1.0000
  C   C25       1.0  0.5945088548399582  0.4665192013178725  0.11731913830340794  1.0000
  C   C26       1.0  0.0945059070941099  0.0334868876915166  0.8826831763939822  1.0000
  C   C27       1.0  0.40549557891125687  0.5334797489099401  0.8826830741222125  1.0000
  C   C28       1.0  0.9054956031761492  0.9665186764317752  0.11731702182849083  1.0000
  C   C29       1.0  0.3060782238126265  0.1363660318798381  0.19950213083447474  1.0000
  C   C30       1.0  0.8060694776346509  0.3636363827431737  0.8004963548996785  1.0000
  C   C31       1.0  0.6938984368695174  0.8636329183479745  0.8004971518750352  1.0000
  C   C32       1.0  0.193910106528449  0.6363633023619145  0.1995038107911213  1.0000
  C   C33       1.0  0.9740687724583026  0.3120163982778693  0.11500548795348918  1.0000
  C   C34       1.0  0.4740614394910239  0.18798307683604074  0.8849894658554831  1.0000
  C   C35       1.0  0.0259298143310076  0.6879744682999132  0.8849875976211266  1.0000
  C   C36       1.0  0.5259196064125575  0.812017343146323  0.11500455149793963  1.0000
  S   S1        1.0  0.3372805360461015  0.1139272891486911  0.0957644537015767  1.0000
  S   S2        1.0  0.8372805603109938  0.3860743905970381  0.9042343209377179  1.0000
  S   S3        1.0  0.6627092803003407  0.8860753354654989  0.9042374860847247  1.0000
  S   S4        1.0  0.1627194882187908  0.6139260293853255  0.09576379801826108  1.0000
  S   S5        1.0  0.8346874327038449  0.22915825058418451  0.0396713569984257  1.0000
  S   S6        1.0  0.3346888701794271  0.2708390198978989  0.9603285651285561  1.0000
  S   S7        1.0  0.1652994601616413  0.7708362903799753  0.9603249715962079  1.0000
  S   S8        1.0  0.6653038696479641  0.7291584605753627  0.03967305322091614  1.0000
  N   N1        1.0  0.56823991671817  0.4314221975156656  0.1758754043307817  1.0000
  N   N2        1.0  0.0682398924532777  0.06858609612555  0.8241313171401501  1.0000
  N   N3        1.0  0.4317557465901842  0.5685818968530754  0.8241300592477714  1.0000
  N   N4        1.0  0.931763079557463  0.9314143238568136  0.1758668018158289  1.0000
  N   N5        1.0  0.2840307921899523  0.1519858483713037  0.272890353493132  1.0000
  N   N6        1.0  0.7840264312334142  0.3480143616198816  0.7271089989564743  1.0000
  N   N7        1.0  0.7159648711183948  0.8480182459974372  0.7271133522557562  1.0000
  N   N8        1.0  0.2159648468535025  0.6519860583624821  0.2728885340562855  1.0000
  N   N9        1.0  0.0759374178079781  0.3711578516582605  0.1693854247974045  1.0000
  N   N10       1.0  0.5759345185919145  0.1288416234556493  0.8306118727844594  1.0000
  N   N11       1.0  0.9240567837598944  0.6288359544286237  0.8306094348727129  1.0000
  N   N12       1.0  0.4240567594950022  0.8711565918948878  0.1693871128869731  1.0000
  O   O1        1.0  0.5195814997019568  0.3533194406719602  0.2937779703506962  1.0000
  O   O2        1.0  0.019585860658502003  0.1466770949328478  0.7062216547382151  1.0000
  O   O3        1.0  0.4804200105683023  0.646678774678577  0.706222773150401  1.0000
  O   O4        1.0  0.9804141878712826  0.853317446031312  0.29377291602675365  1.0000
  O   O5        1.0  0.6750288290450115  0.4844061142043614  0.39779194770957105  1.0000
  O   O6        1.0  0.1750507308872855  0.0155933609095484  0.6022053498722928  1.0000
  O   O7        1.0  0.3249595255609492  0.5155979801643795  0.6022094142664329  1.0000
  O   O8        1.0  0.8249683202687095  0.9844048544409887  0.3977907060830291  1.0000
  O   O9        1.0  0.5309012179599932  0.6787914418648455  0.4299214021304324  1.0000
  O   O10       1.0  0.0309085023974944  0.8212069834768698  0.570080451649936  1.0000
  O   O11       1.0  0.4690988305697914  0.32120971299479356  0.5700793576365087  1.0000
  O   O12       1.0  0.9690973930942022  0.1787927016282111  0.429920299984083  1.0000
  O   O13       1.0  0.8519915164769075  0.6909485166339948  0.41887655333862733  1.0000
  O   O14       1.0  0.3519885687310662  0.809050643584996  0.5811314569120328  1.0000
  O   O15       1.0  0.14801437901478212  0.3090519033483687  0.5811262531631272  1.0000
  O   O16       1.0  0.6480144032796744  0.1909468368882656  0.41886723172133605  1.0000
  O   O17       1.0  0.2834066290060449  0.3519885779259653  0.4273020857916876  1.0000
  O   O18       1.0  0.7834095767518932  0.1480153064515903  0.5727005096779365  1.0000
  O   O19       1.0  0.7165934195237398  0.6480147815655002  0.5727007369759107  1.0000
  O   O20       1.0  0.2165933952588475  0.8519865832853244  0.42730347684318565  1.0000
  O   O21       1.0  0.3303182661516004  0.0118138870814803  0.34408025536487935  1.0000
  O   O22       1.0  0.8303329078212656  0.48818338340060313  0.6559196667621023  1.0000
  O   O23       1.0  0.6696803206377098  0.9881865329008832  0.6559190354775452  1.0000
  O   O24       1.0  0.1696773728918615  0.5118126273181076  0.3440795996815639  1.0000
  O   O25       1.0  0.3833370550122908  0.10893232830689213  0.5251977462102815  1.0000
  O   O26       1.0  0.8833312323152782  0.3910605329115313  0.4747957061425012  1.0000
  O   O27       1.0  0.6166732257008363  0.8910607429027166  0.47479564453531964  1.0000
  O   O28       1.0  0.1166658927335504  0.6089325382980705  0.5251988564895526  1.0000
