data_image0
_chemical_formula_structural       Sm4H32C32N4O36
_chemical_formula_sum              "Sm4 H32 C32 N4 O36"
_cell_length_a       7.248172564020367
_cell_length_b       12.027657950414529
_cell_length_c       13.406191517054825
_cell_angle_alpha    95.55710852247044
_cell_angle_beta     89.99999441233959
_cell_angle_gamma    90.00026819482854

_space_group_name_H-M_alt    "P 1"
_space_group_IT_number       1

loop_
  _space_group_symop_operation_xyz
  'x, y, z'

loop_
  _atom_site_type_symbol
  _atom_site_label
  _atom_site_symmetry_multiplicity
  _atom_site_fract_x
  _atom_site_fract_y
  _atom_site_fract_z
  _atom_site_occupancy
  Sm  Sm1       1.0  0.2642579706905082  0.2820500116366916  0.7070951106320462  1.0000
  Sm  Sm2       1.0  0.7642573924094549  0.717949022259674  0.7929040798128282  1.0000
  Sm  Sm3       1.0  0.7357426664335166  0.7179494405370976  0.2929046870546371  1.0000
  Sm  Sm4       1.0  0.23574048539836673  0.2820504299101572  0.20709571787357103  1.0000
  H   H1        1.0  0.28587386261130393  0.12325947073770042  0.5034258566260519  1.0000
  H   H2        1.0  0.7858703278037638  0.8767438155521748  0.9965722411678894  1.0000
  H   H3        1.0  0.7141267745161174  0.8767408305350983  0.49657252918772327  1.0000
  H   H4        1.0  0.21413582795877767  0.12325728658210984  0.003429949872234802  1.0000
  H   H5        1.0  0.1596542248790769  0.0636249625933729  0.5802074737013638  1.0000
  H   H6        1.0  0.6596511633551077  0.9363762908015477  0.9197904414408666  1.0000
  H   H7        1.0  0.8403477919095579  0.936376167103795  0.4197917361390893  1.0000
  H   H8        1.0  0.34035085342983246  0.06362396912000182  0.08021241617193199  1.0000
  H   H9        1.0  0.9472032808832865  0.11886791536439746  0.6949007050814371  1.0000
  H   H10       1.0  0.44720017008333474  0.8811299867599232  0.8050968738330437  1.0000
  H   H11       1.0  0.05279873589893921  0.8811315437035816  0.3050983473055665  1.0000
  H   H12       1.0  0.5527990873825814  0.11886946541189049  0.19490292385349756  1.0000
  H   H13       1.0  0.8376685171140253  0.23128142044257768  0.6990370265046476  1.0000
  H   H14       1.0  0.3376659221853586  0.768716968157314  0.80096433576832  1.0000
  H   H15       1.0  0.16233212001620964  0.7687196885759989  0.30096441923510747  1.0000
  H   H16       1.0  0.6623319556254685  0.23128330554270357  0.19903703124443684  1.0000
  H   H17       1.0  0.09758591228804653  0.3648762433807066  0.9234680263867145  1.0000
  H   H18       1.0  0.5975847382437819  0.6351231405671456  0.5765319548104698  1.0000
  H   H19       1.0  0.9024147248328733  0.6351223803706958  0.0765309472734259  1.0000
  H   H20       1.0  0.4024145192251467  0.3648771331348541  0.4234694122024221  1.0000
  H   H21       1.0  0.0257556801791097  0.4373850004996955  0.8347188627395496  1.0000
  H   H22       1.0  0.5257580705123602  0.5626125066621626  0.6652809466644527  1.0000
  H   H23       1.0  0.9742435772869129  0.5626144585643261  0.16528018964717717  1.0000
  H   H24       1.0  0.4742411869534635  0.4373869386174435  0.33471959632190357  1.0000
  H   H25       1.0  0.7794326795508725  0.4749379985055029  0.9761811892840694  1.0000
  H   H26       1.0  0.2794324024753223  0.5250627357894261  0.523819652243368  1.0000
  H   H27       1.0  0.22056519825704876  0.525061460556536  0.023817863102514998  1.0000
  H   H28       1.0  0.7205668549906009  0.47493671638238766  0.4761801454431731  1.0000
  H   H29       1.0  0.7034121542066387  0.12081875767551509  0.9989530285275873  1.0000
  H   H30       1.0  0.2034187439923159  0.8791817515484653  0.5010485431237228  1.0000
  H   H31       1.0  0.2965843439589122  0.8791848572809045  0.001048653391933384  1.0000
  H   H32       1.0  0.79658465244772  0.1208176868448732  0.49895274516286037  1.0000
  C   C1        1.0  0.5735045890606613  0.3888116795850607  0.8821857942457851  1.0000
  C   C2        1.0  0.0735077157747028  0.6111876076836751  0.617817163343524  1.0000
  C   C3        1.0  0.4264960480728845  0.6111902716403109  0.11781498492088359  1.0000
  C   C4        1.0  0.9264929213494142  0.38881185138232144  0.3821818890433376  1.0000
  C   C5        1.0  0.7121961172726685  0.3952572860415913  0.9545633035234214  1.0000
  C   C6        1.0  0.2121936895890428  0.6047440768029305  0.5454390939071414  1.0000
  C   C7        1.0  0.2878017605383576  0.6047430014428344  0.04543657288970589  1.0000
  C   C8        1.0  0.787802808563683  0.39525619689510466  0.4545622731054734  1.0000
  C   C9        1.0  0.7613515759424416  0.29752770824399744  0.99665067874659  1.0000
  C   C10       1.0  0.26135680620419066  0.7024704613277777  0.5033506682913539  1.0000
  C   C11       1.0  0.23864492221368036  0.7024734145530473  0.0033492763931235073  1.0000
  C   C12       1.0  0.7386452105746386  0.29752814864119875  0.49664979596855824  1.0000
  C   C13       1.0  0.6697239617994201  0.19779745331605622  0.9664840744805685  1.0000
  C   C14       1.0  0.1697285736961192  0.8022046505214887  0.5335154119990902  1.0000
  C   C15       1.0  0.3302752956727204  0.8022036557005378  0.033517371259051694  1.0000
  C   C16       1.0  0.8302720634343147  0.197796472281496  0.46648454314103543  1.0000
  C   C17       1.0  0.534844457287555  0.1986892286785178  0.892540855730594  1.0000
  C   C18       1.0  0.03484490925053759  0.8013124466784518  0.6074630756203871  1.0000
  C   C19       1.0  0.465153420526768  0.80131190101271  0.10745835410944689  1.0000
  C   C20       1.0  0.9651543482152859  0.19868699860115413  0.3925374673659689  1.0000
  C   C21       1.0  0.5202998343399372  0.48630584090766144  0.8255951161169077  1.0000
  C   C22       1.0  0.020298061460820808  0.513694149640827  0.6744056736774764  1.0000
  C   C23       1.0  0.4796994231293823  0.5136944603631549  0.17440326969673237  1.0000
  C   C24       1.0  0.9797011960050029  0.4863052956387861  0.32559486930887965  1.0000
  C   C25       1.0  0.9175524062626439  0.2950886196403886  0.06931983181384989  1.0000
  C   C26       1.0  0.4175506755429198  0.7049168327576467  0.4306758646722883  1.0000
  C   C27       1.0  0.0824482308645855  0.7049116678480019  0.9306800445995547  1.0000
  C   C28       1.0  0.5824499615778009  0.29508177720934736  0.5693245995874816  1.0000
  C   C29       1.0  0.43120276998452317  0.09593395579523901  0.8495579462040436  1.0000
  C   C30       1.0  0.9312133079342716  0.9040739517691136  0.6504375930389299  1.0000
  C   C31       1.0  0.56879786714601  0.9040671738999463  0.15044126363627436  1.0000
  C   C32       1.0  0.0687873291929577  0.09592633571927683  0.34956228337447465  1.0000
  N   N1        1.0  0.4887835559454743  0.2923552516577459  0.8522136111061865  1.0000
  N   N2        1.0  0.9887870650683582  0.7076485756656868  0.647788998995942  1.0000
  N   N3        1.0  0.5112129422074503  0.7076450358247046  0.1477862653068058  1.0000
  N   N4        1.0  0.011209433084665899  0.2923517187089644  0.3522101321172356  1.0000
  O   O1        1.0  0.4288573979132977  0.4642520757153363  0.7448256490669108  1.0000
  O   O2        1.0  0.9288499068786464  0.535749121898256  0.7551714957916784  1.0000
  O   O3        1.0  0.5711404798914189  0.5357465480321083  0.2551733245929596  1.0000
  O   O4        1.0  0.07115073024858282  0.4642511655901276  0.24482838062172615  1.0000
  O   O5        1.0  0.5748698182524877  0.5825839746183732  0.859383184421169  1.0000
  O   O6        1.0  0.07487007065031999  0.41741535102564603  0.6406160469413321  1.0000
  O   O7        1.0  0.4251294392170307  0.4174163404368585  0.14061371079284155  1.0000
  O   O8        1.0  0.9251305664705001  0.5825832658335486  0.3593836720186232  1.0000
  O   O9        1.0  0.07398130456032702  0.33339517859201356  0.04451621981131379  1.0000
  O   O10       1.0  0.5739871986748425  0.6666042482677244  0.4554819169244481  1.0000
  O   O11       1.0  0.9260179529056886  0.6666042804720079  0.9554828325754127  1.0000
  O   O12       1.0  0.42601205878787607  0.3333943685894951  0.544517802035365  1.0000
  O   O13       1.0  0.8941573690270844  0.2516535362988108  0.15088054788212446  1.0000
  O   O14       1.0  0.39415598789582873  0.7483459328287696  0.3491220458445595  1.0000
  O   O15       1.0  0.10584464775202922  0.7483450943467814  0.8491176804783361  1.0000
  O   O16       1.0  0.6058446492313009  0.2516543477674134  0.6508785758686596  1.0000
  O   O17       1.0  0.47388351055263195  0.002411474967885902  0.8791540644866982  1.0000
  O   O18       1.0  0.9738878751010065  0.9975864417129615  0.6208502274532604  1.0000
  O   O19       1.0  0.5261171265776099  0.9975896340506837  0.12084738125305705  1.0000
  O   O20       1.0  0.026114141684033105  0.0024138251007884007  0.3791518848597234  1.0000
  O   O21       1.0  0.30403837072429246  0.1119774754598239  0.787353261164675  1.0000
  O   O22       1.0  0.8040280785228262  0.8880233294422059  0.7126475852740126  1.0000
  O   O23       1.0  0.6959622664030364  0.8880228189207741  0.21264586994891485  1.0000
  O   O24       1.0  0.19596979928509486  0.11197612961983339  0.2873514671125789  1.0000
  O   O25       1.0  0.2542838235100078  0.12303915916133693  0.5737138076775777  1.0000
  O   O26       1.0  0.7542830631145634  0.8769640433572904  0.9262835385102403  1.0000
  O   O27       1.0  0.7457181932723174  0.87696030679885  0.4262844994096112  1.0000
  O   O28       1.0  0.24571895366717203  0.12303538124966448  0.07371924037582997  1.0000
  O   O29       1.0  0.955445665996628  0.19949504055441028  0.7204859813148872  1.0000
  O   O30       1.0  0.45543780099086467  0.8005020430129763  0.7795122658177077  1.0000
  O   O31       1.0  0.044556350785498494  0.8005044116213612  0.27951381637193146  1.0000
  O   O32       1.0  0.5445586971557503  0.19949658073248602  0.22048670784202065  1.0000
  O   O33       1.0  0.12301861853005387  0.3862656979113411  0.8548380556894839  1.0000
  O   O34       1.0  0.6230200262064757  0.6137329375051409  0.6451603612589593  1.0000
  O   O35       1.0  0.8769820185906669  0.613732912055653  0.1451624085702861  1.0000
  O   O36       1.0  0.3769792312625526  0.3862673430890596  0.3548402604541251  1.0000
