data_image0
_chemical_formula_structural       Cu4H28C8N44
_chemical_formula_sum              "Cu4 H28 C8 N44"
_cell_length_a       5.876487084834111
_cell_length_b       10.023544150263684
_cell_length_c       13.923367443823585
_cell_angle_alpha    90.00069287196173
_cell_angle_beta     89.49632046034009
_cell_angle_gamma    89.99999924995866

_space_group_name_H-M_alt    "P 1"
_space_group_IT_number       1

loop_
  _space_group_symop_operation_xyz
  'x, y, z'

loop_
  _atom_site_type_symbol
  _atom_site_label
  _atom_site_symmetry_multiplicity
  _atom_site_fract_x
  _atom_site_fract_y
  _atom_site_fract_z
  _atom_site_occupancy
  Cu  Cu1       1.0  0.08281526368639189  0.1256218894316348  0.24157810760748086  1.0000
  Cu  Cu2       1.0  0.4171724599285298  0.62562786854663  0.2584263835376106  1.0000
  Cu  Cu3       1.0  0.9171745592200082  0.87437572450343  0.7584248368255045  1.0000
  Cu  Cu4       1.0  0.5828150728752776  0.37438570784914305  0.7415830009897277  1.0000
  H   H1        1.0  0.6418222633950778  0.09765588765822031  0.9822227214374168  1.0000
  H   H2        1.0  0.8581976835095374  0.5976496095726631  0.5177725436577774  1.0000
  H   H3        1.0  0.3581695875540021  0.902349707462214  0.017776654737033902  1.0000
  H   H4        1.0  0.1418442026069471  0.40233004658260546  0.4822195539976235  1.0000
  H   H5        1.0  0.9007571074581975  0.0822772791982089  0.40810806194947713  1.0000
  H   H6        1.0  0.5992409819192374  0.5822818438667028  0.09188944483557998  1.0000
  H   H7        1.0  0.09924474997936981  0.9177173417779372  0.5918935959830948  1.0000
  H   H8        1.0  0.4007561670645856  0.4177217559387713  0.9081078415612043  1.0000
  H   H9        1.0  0.08956103035797719  0.960969095323037  0.383232081232542  1.0000
  H   H10       1.0  0.41044421917204227  0.46096858489785564  0.11676391400313693  1.0000
  H   H11       1.0  0.9104408925875161  0.039027520950512  0.6167688587826634  1.0000
  H   H12       1.0  0.5895527987976975  0.5390290290105781  0.883234808217978  1.0000
  H   H13       1.0  0.1789939963503784  0.10901321652977461  0.4187600245204166  1.0000
  H   H14       1.0  0.32099931669898046  0.6090137616263576  0.081239331996656  1.0000
  H   H15       1.0  0.8210028906017541  0.890982402086081  0.5812401335458192  1.0000
  H   H16       1.0  0.6789873017312046  0.3909868452463954  0.9187614159912983  1.0000
  H   H17       1.0  0.44827003624702405  0.2634183884842259  0.2170948859833857  1.0000
  H   H18       1.0  0.0517248353945803  0.7634165276323872  0.2829046654549003  1.0000
  H   H19       1.0  0.5517199831804901  0.736588204296396  0.7829059047131113  1.0000
  H   H20       1.0  0.9482737520562168  0.23658208393740676  0.717095513965603  1.0000
  H   H21       1.0  0.41874224872977805  0.22446887467731358  0.3339702163543237  1.0000
  H   H22       1.0  0.0812541302239396  0.7244654517733267  0.16603182213318493  1.0000
  H   H23       1.0  0.5812613092038035  0.7755317322061118  0.6660314629481121  1.0000
  H   H24       1.0  0.9187492966902795  0.2755351551197549  0.8339712930247744  1.0000
  H   H25       1.0  0.5183061844571596  0.11499712140761183  0.25693853981684367  1.0000
  H   H26       1.0  0.9816985180747794  0.6149959430185561  0.24306082920553257  1.0000
  H   H27       1.0  0.48169783204158273  0.8850064783953614  0.7430581140068784  1.0000
  H   H28       1.0  0.01831046891027909  0.3850056614936009  0.756937324479324  1.0000
  C   C1        1.0  0.7146414896420836  0.0097849234906349  0.11470945388127522  1.0000
  C   C2        1.0  0.785348222598202  0.509811502042176  0.3853058781576238  1.0000
  C   C3        1.0  0.28534643623923733  0.9902067045516317  0.8852956229651172  1.0000
  C   C4        1.0  0.21464094242202952  0.49023000871633843  0.6147229332421702  1.0000
  C   C5        1.0  0.9275692292943206  0.18662911443182403  0.0408354384182132  1.0000
  C   C6        1.0  0.5723809305554113  0.6866525890594845  0.4591639945550483  1.0000
  C   C7        1.0  0.07239521711270669  0.8133675018337101  0.9591657500739573  1.0000
  C   C8        1.0  0.4275577462579818  0.3133839332612069  0.5408397457760615  1.0000
  N   N1        1.0  0.8271622316091012  0.0085494327661237  0.199162168255917  1.0000
  N   N2        1.0  0.6728710435425993  0.5085309165912975  0.300842197292404  1.0000
  N   N3        1.0  0.17285447175481036  0.9914651412713767  0.800844707323016  1.0000
  N   N4        1.0  0.32718653739766523  0.4914437514107845  0.6991644722789303  1.0000
  N   N5        1.0  0.7329527566214649  0.9067240848479302  0.2512612860787585  1.0000
  N   N6        1.0  0.7670561414555904  0.40670832116563815  0.2487268078214058  1.0000
  N   N7        1.0  0.2670480553993073  0.09328450319497253  0.7487331713103274  1.0000
  N   N8        1.0  0.2329578842953808  0.5932693396002265  0.7512534402220012  1.0000
  N   N9        1.0  0.5734096060627322  0.8516034734636193  0.19999011567426095  1.0000
  N   N10       1.0  0.9265978199625521  0.3515904796030256  0.29999594649349604  1.0000
  N   N11       1.0  0.4265950000214147  0.1484021215981386  0.8000000768100151  1.0000
  N   N12       1.0  0.07341483283553879  0.6483871811381193  0.6999806905724456  1.0000
  N   N13       1.0  0.5555030173069682  0.9134841910251338  0.11351576207091803  1.0000
  N   N14       1.0  0.9444835657623826  0.41348235002527645  0.38647427874668244  1.0000
  N   N15       1.0  0.4444924311781903  0.08651641582640933  0.8864815029715984  1.0000
  N   N16       1.0  0.055498084937298076  0.5865142661055103  0.6135062818885048  1.0000
  N   N17       1.0  0.7523913823562438  0.09728642187256752  0.04129469637907591  1.0000
  N   N18       1.0  0.7475556626717506  0.5973239481955162  0.4587210143266347  1.0000
  N   N19       1.0  0.2475618128950146  0.9027022132577756  0.9587178508836305  1.0000
  N   N20       1.0  0.252379479344448  0.4027405084909928  0.5413028067886643  1.0000
  N   N21       1.0  0.9669500358597743  0.27258402636135765  0.9685913364315084  1.0000
  N   N22       1.0  0.5330647596198758  0.772579759384719  0.5314215037803933  1.0000
  N   N23       1.0  0.03304482303028069  0.7274255593936731  0.0314123900076453  1.0000
  N   N24       1.0  0.4669851021672143  0.2274088757982327  0.4685951314976863  1.0000
  N   N25       1.0  0.15605036901492036  0.34018583058959706  0.9948007001825944  1.0000
  N   N26       1.0  0.3439744921071792  0.8401753848221463  0.5052002278718035  1.0000
  N   N27       1.0  0.8439616914181512  0.6598227575056725  0.005201085854807298  1.0000
  N   N28       1.0  0.6560851823960335  0.1597952925470949  0.49480215545084155  1.0000
  N   N29       1.0  0.22718172721094732  0.29830924302952166  0.0780400372604149  1.0000
  N   N30       1.0  0.2728419257718855  0.7983043850581738  0.4219609585341431  1.0000
  N   N31       1.0  0.7728235967336301  0.7016913638496618  0.9219609454529377  1.0000
  N   N32       1.0  0.7271972116927259  0.2016702829181725  0.5780426046007535  1.0000
  N   N33       1.0  0.08505806097973331  0.20050170086467736  0.10984974046110103  1.0000
  N   N34       1.0  0.41494339908796  0.7004934940747914  0.3901341426616938  1.0000
  N   N35       1.0  0.9149313716076007  0.7995088824377493  0.890138824145595  1.0000
  N   N36       1.0  0.5850591162128467  0.2994831690069049  0.6098416484392504  1.0000
  N   N37       1.0  0.0583534335198195  0.061729235609263404  0.377993559901995  1.0000
  N   N38       1.0  0.441645195632681  0.5617303933211703  0.12200393191164952  1.0000
  N   N39       1.0  0.9416467234155589  0.9382663830174209  0.6220080766970996  1.0000
  N   N40       1.0  0.5583482248027423  0.4382702135539276  0.8779969014309899  1.0000
  N   N41       1.0  0.40155127983133093  0.189938697217535  0.2642813971018896  1.0000
  N   N42       1.0  0.09844712269626399  0.689938219014394  0.23571743110144186  1.0000
  N   N43       1.0  0.5984439066142003  0.8100629073044345  0.7357187396568676  1.0000
  N   N44       1.0  0.9015566317654944  0.3100633855056643  0.7642820944229172  1.0000
