data_image0
_chemical_formula_structural       Li2H12C6S2O12
_chemical_formula_sum              "Li2 H12 C6 S2 O12"
_cell_length_a       6.117792455759155
_cell_length_b       7.165518582574056
_cell_length_c       8.217241435137327
_cell_angle_alpha    73.84475159108662
_cell_angle_beta     69.785558472874
_cell_angle_gamma    67.1203498112172

_space_group_name_H-M_alt    "P 1"
_space_group_IT_number       1

loop_
  _space_group_symop_operation_xyz
  'x, y, z'

loop_
  _atom_site_type_symbol
  _atom_site_label
  _atom_site_symmetry_multiplicity
  _atom_site_fract_x
  _atom_site_fract_y
  _atom_site_fract_z
  _atom_site_occupancy
  Li  Li1       1.0  0.8032858027505725  0.18739659030505607  0.8950639019474806  1.0000
  Li  Li2       1.0  0.19671497286567063  0.8126018307428281  0.1049357735442201  1.0000
  H   H1        1.0  0.8293234584235024  0.3952183508418158  0.5765892188039103  1.0000
  H   H2        1.0  0.170680731915084  0.6047800718714385  0.4234070970897222  1.0000
  H   H3        1.0  0.9133259787382285  0.4914518265051485  0.6846075430287827  1.0000
  H   H4        1.0  0.08667940110822771  0.5085481193730103  0.3153892957234207  1.0000
  H   H5        1.0  0.3532224339715598  0.41240406779834865  0.9416212794171417  1.0000
  H   H6        1.0  0.6467783781701114  0.5875943463423993  0.05837960506562477  1.0000
  H   H7        1.0  0.3416513871014076  0.20682839876650402  0.0776883300927196  1.0000
  H   H8        1.0  0.6583505780227059  0.7931715454462773  0.9223118682575516  1.0000
  H   H9        1.0  0.7057933125122986  0.8242084077074878  0.1298377360294723  1.0000
  H   H10       1.0  0.2942017135908373  0.17579155389592666  0.870165554543725  1.0000
  H   H11       1.0  0.5315295484187603  0.2841226161302045  0.59907786478378  1.0000
  H   H12       1.0  0.4684647483780395  0.715883504706042  0.40092046671011167  1.0000
  C   C1        1.0  0.6587808474464438  0.10602950305385407  0.3920954405877737  1.0000
  C   C2        1.0  0.3412152585882709  0.8939720024358523  0.6079047458707906  1.0000
  C   C3        1.0  0.519092073704492  0.1586992548704416  0.5567582940086313  1.0000
  C   C4        1.0  0.480906440171843  0.841300694584092  0.44324405494863595  1.0000
  C   C5        1.0  0.6402706469422341  0.9484578221126936  0.3324374625727772  1.0000
  C   C6        1.0  0.35972786693410086  0.0515421273418397  0.6675648863844901  1.0000
  S   S1        1.0  0.870379632762578  0.23345991910591116  0.2534283580422995  1.0000
  S   S2        1.0  0.12961758972915055  0.7665431233629502  0.7465699332926976  1.0000
  O   O1        1.0  0.7954641123896734  0.3312498728619603  0.0882715046080804  1.0000
  O   O2        1.0  0.20453715995353858  0.6687562236765244  0.911724943653951  1.0000
  O   O3        1.0  0.8044223016370894  0.41493710187165067  0.6960655005399659  1.0000
  O   O4        1.0  0.19558544182601167  0.585056699420619  0.30393219951037065  1.0000
  O   O5        1.0  0.11330896037640771  0.07195554563151768  0.22088890255646024  1.0000
  O   O6        1.0  0.8866860292013  0.9280444228790258  0.7791131790256715  1.0000
  O   O7        1.0  0.4277795762357002  0.2595698166684173  0.9585478315035446  1.0000
  O   O8        1.0  0.5722194920193645  0.7404286035467746  0.0414535237871902  1.0000
  O   O9        1.0  0.8573462195697561  0.3863559072083049  0.3473584917492544  1.0000
  O   O10       1.0  0.14265033896695903  0.6136486852212856  0.652637166279071  1.0000
  O   O11       1.0  0.7769190975155028  0.9064357308579715  0.1682529351373674  1.0000
  O   O12       1.0  0.2230804962924182  0.0935657624828465  0.8317463097052668  1.0000
