data_image0
_chemical_formula_structural       Ni3H30C36N6O18
_chemical_formula_sum              "Ni3 H30 C36 N6 O18"
_cell_length_a       8.588403341136688
_cell_length_b       11.516189087652476
_cell_length_c       11.512375084529191
_cell_angle_alpha    119.56625537840478
_cell_angle_beta     90.52795718206966
_cell_angle_gamma    89.43440380398184

_space_group_name_H-M_alt    "P 1"
_space_group_IT_number       1

loop_
  _space_group_symop_operation_xyz
  'x, y, z'

loop_
  _atom_site_type_symbol
  _atom_site_label
  _atom_site_symmetry_multiplicity
  _atom_site_fract_x
  _atom_site_fract_y
  _atom_site_fract_z
  _atom_site_occupancy
  Ni  Ni1       1.0  5.167892635430003e-05  0.2894583765631111  0.28950692057232164  1.0000
  Ni  Ni2       1.0  0.33454996927183334  0.7066969563738325  0.000904381764009167  1.0000
  Ni  Ni3       1.0  0.6653978762270895  0.0008424234589697017  0.7063940577195137  1.0000
  H   H1        1.0  0.4799584648913039  0.6005773001654761  0.4086614564676623  1.0000
  H   H2        1.0  0.8173189954410841  0.5909769657873056  0.19160700663160685  1.0000
  H   H3        1.0  0.14710018526110955  0.8095390010735602  0.40876813870159623  1.0000
  H   H4        1.0  0.5199475863573751  0.40911276341363834  0.6007519750894514  1.0000
  H   H5        1.0  0.18232986405025287  0.19138887750713005  0.5913666638306905  1.0000
  H   H6        1.0  0.8530729129090062  0.4082986110866855  0.8092261382592267  1.0000
  H   H7        1.0  0.11581106615943071  0.7239983532276852  0.6997150416966418  1.0000
  H   H8        1.0  0.4516825676476373  0.3006249086850019  0.02873752814313245  1.0000
  H   H9        1.0  0.7801015118887734  0.969980017014237  0.2728148956686241  1.0000
  H   H10       1.0  0.8837780865454191  0.699959302269548  0.7239841216217328  1.0000
  H   H11       1.0  0.5484681519425862  0.029107736669573107  0.30090360046814607  1.0000
  H   H12       1.0  0.2204228594490871  0.2727187973660676  0.9698793101272183  1.0000
  H   H13       1.0  0.31403821356466466  0.40070027781943207  0.25595827152206857  1.0000
  H   H14       1.0  0.649952776334544  0.7424332679738656  0.1403286438069885  1.0000
  H   H15       1.0  0.9807435512835024  0.8619048516581244  0.6095328652597658  1.0000
  H   H16       1.0  0.6862256636976269  0.25631732706725074  0.4008621048522371  1.0000
  H   H17       1.0  0.3497977035509691  0.1402103097811676  0.7428018629641568  1.0000
  H   H18       1.0  0.019042610210611596  0.6092869322569002  0.8617906047039978  1.0000
  H   H19       1.0  0.0876363135559259  0.1681531015320274  0.037618499735565136  1.0000
  H   H20       1.0  0.41921286327777807  0.9520236486740078  0.12260057536425269  1.0000
  H   H21       1.0  0.7533511714626757  0.8780144466150974  0.8320301022540731  1.0000
  H   H22       1.0  0.9120195613369403  0.037867664850601605  0.16850357966293214  1.0000
  H   H23       1.0  0.5812044928862292  0.12238754969472862  0.9518442927947883  1.0000
  H   H24       1.0  0.24644297341865237  0.8324453558182583  0.8777699023936942  1.0000
  H   H25       1.0  0.21210400135940688  0.148434439792176  0.13874582423092355  1.0000
  H   H26       1.0  0.5451049273414199  0.8512233581023739  0.00315544076253384  1.0000
  H   H27       1.0  0.8780895374517853  0.9982187693991377  0.8488603431663433  1.0000
  H   H28       1.0  0.7876311518021453  0.13912486889059753  0.14892199692762628  1.0000
  H   H29       1.0  0.45550280344735217  0.002691860501791202  0.8511229704091431  1.0000
  H   H30       1.0  0.12147465043828728  0.8491941755658201  0.9979836595908151  1.0000
  C   C1        1.0  0.36558409296844013  0.5856019333921125  0.4390677608872763  1.0000
  C   C2        1.0  0.7027793991491933  0.5597540946731598  0.14577405408032723  1.0000
  C   C3        1.0  0.032172585068607894  0.8548463519869361  0.4212740380054427  1.0000
  C   C4        1.0  0.6343282563420232  0.4393986904683871  0.5856967667872793  1.0000
  C   C5        1.0  0.29707213195101895  0.14570073710993373  0.5600802038580779  1.0000
  C   C6        1.0  0.968035984998224  0.4209630208953214  0.8545949550849837  1.0000
  C   C7        1.0  0.16136576568583647  0.6553600461307598  0.601287050800991  1.0000
  C   C8        1.0  0.4981039215282338  0.3982119042490738  0.05588963000838032  1.0000
  C   C9        1.0  0.8267480210351791  0.9430473211666736  0.34439874879979726  1.0000
  C   C10       1.0  0.8384730796174368  0.6015056868570883  0.6553226055262511  1.0000
  C   C11       1.0  0.5019397611282203  0.05617444449565313  0.3984773815688951  1.0000
  C   C12       1.0  0.17360993827066548  0.34426715766500854  0.9429142886471948  1.0000
  C   C13       1.0  0.3079499288809586  0.6772497866150432  0.5653758519000291  1.0000
  C   C14       1.0  0.6458267467082662  0.4336942532510832  0.11319048326934927  1.0000
  C   C15       1.0  0.9746618912146444  0.8859562037586953  0.32562194396992783  1.0000
  C   C16       1.0  0.6919398505040631  0.5656276983571686  0.677325075653833  1.0000
  C   C17       1.0  0.3539901186178653  0.1131907226874631  0.4339166092192455  1.0000
  C   C18       1.0  0.025689332235202793  0.325431858557991  0.8858366920907483  1.0000
  C   C19       1.0  0.4025365782093786  0.7971077361840886  0.6604994587582594  1.0000
  C   C20       1.0  0.7385294949490343  0.3366512014532148  0.13901674024634048  1.0000
  C   C21       1.0  0.07013244755468412  0.8593357779604245  0.20523215666136002  1.0000
  C   C22       1.0  0.5976469027115172  0.6609376458762526  0.7975379317374374  1.0000
  C   C23       1.0  0.2612656188802802  0.13897373949150452  0.3368795062333091  1.0000
  C   C24       1.0  0.9299227523984257  0.20528617096410787  0.8592866367905497  1.0000
  C   C25       1.0  0.07704019243285389  0.5433827027611002  0.5117493979853832  1.0000
  C   C26       1.0  0.4126736874728961  0.4869444678385691  0.031049381970582702  1.0000
  C   C27       1.0  0.7420574425097967  0.9691178062727989  0.4572772777716737  1.0000
  C   C28       1.0  0.9229459154335586  0.5119613926274555  0.5433337649875867  1.0000
  C   C29       1.0  0.5873965619771083  0.0312380650685355  0.48712004749876997  1.0000
  C   C30       1.0  0.25810336530724237  0.4571858068742858  0.96892263471949  1.0000
  C   C31       1.0  0.27491547607060346  0.47594322931282557  0.35483807154552227  1.0000
  C   C32       1.0  0.6112454683751024  0.6438279867520152  0.11814725540697425  1.0000
  C   C33       1.0  0.9413839301547712  0.8833082727117585  0.5318848167493255  1.0000
  C   C34       1.0  0.725160830044082  0.35515156062390224  0.4760576817451606  1.0000
  C   C35       1.0  0.38868001745468916  0.11808887926532924  0.644159489281648  1.0000
  C   C36       1.0  0.058680564841182586  0.5316191151718782  0.883115934988069  1.0000
  N   N1        1.0  0.13391472840947927  0.45507891463403644  0.3902306816030076  1.0000
  N   N2        1.0  0.46938450548566374  0.6083124412110336  0.06160526738202783  1.0000
  N   N3        1.0  0.7994803720646644  0.9398753454372016  0.5500687401440063  1.0000
  N   N4        1.0  0.8661756044289177  0.39044752260374344  0.4551930056558929  1.0000
  N   N5        1.0  0.5306089827389897  0.061513060171854796  0.6085080433826914  1.0000
  N   N6        1.0  0.20056050988058155  0.5499647438561083  0.9396902849818786  1.0000
  O   O1        1.0  0.3459466969093866  0.8751032915787605  0.7765809834934173  1.0000
  O   O2        1.0  0.6824955702267984  0.2200519482332197  0.09546411558809349  1.0000
  O   O3        1.0  0.0119687750215931  0.8959280486287683  0.12522338395915272  1.0000
  O   O4        1.0  0.6545393226174951  0.7768569788479739  0.875268699653972  1.0000
  O   O5        1.0  0.31739974500354157  0.09552122405793992  0.2202516858998037  1.0000
  O   O6        1.0  0.9877070654365594  0.12497075234421828  0.8956818997460015  1.0000
  O   O7        1.0  0.5308451509571767  0.8114825902081295  0.6166259134779467  1.0000
  O   O8        1.0  0.8645496914983114  0.38045532800970255  0.20415078588530383  1.0000
  O   O9        1.0  0.19989184708265378  0.8020548739750524  0.19256840682295723  1.0000
  O   O10       1.0  0.46943909819332663  0.6173097101433599  0.8124221210927869  1.0000
  O   O11       1.0  0.13515451053629587  0.20409222231708665  0.380717694964403  1.0000
  O   O12       1.0  0.8001295126202591  0.19321311331181332  0.8023413890439596  1.0000
  O   O13       1.0  0.1442421357792227  0.21240237568240866  0.12487254840708314  1.0000
  O   O14       1.0  0.47682404414749163  0.8652276004368673  0.08076897974091703  1.0000
  O   O15       1.0  0.8085425052234356  0.9210247138445949  0.7872142613844345  1.0000
  O   O16       1.0  0.8554180105188108  0.1251494838349529  0.2128904849378087  1.0000
  O   O17       1.0  0.5235189884703003  0.0803758618158881  0.865101491706049  1.0000
  O   O18       1.0  0.19110197475251303  0.7876404681114836  0.9207512004968519  1.0000
