data_image0
_chemical_formula_structural       Cd4H40C20S8I4N4
_chemical_formula_sum              "Cd4 H40 C20 S8 I4 N4"
_cell_length_a       7.396761702665958
_cell_length_b       9.090411997040263
_cell_length_c       15.519326663109409
_cell_angle_alpha    90.00012616214597
_cell_angle_beta     96.20663749623752
_cell_angle_gamma    89.9996583939416

_space_group_name_H-M_alt    "P 1"
_space_group_IT_number       1

loop_
  _space_group_symop_operation_xyz
  'x, y, z'

loop_
  _atom_site_type_symbol
  _atom_site_label
  _atom_site_symmetry_multiplicity
  _atom_site_fract_x
  _atom_site_fract_y
  _atom_site_fract_z
  _atom_site_occupancy
  Cd  Cd1       1.0  0.252939323883659  0.9649611813991472  0.0258137055563736  1.0000
  Cd  Cd2       1.0  0.7470598743066008  0.464959285664399  0.4741880837966904  1.0000
  Cd  Cd3       1.0  0.7470632974963535  0.0350369616943595  0.9741871124053888  1.0000
  Cd  Cd4       1.0  0.252938703954932  0.5350399575015672  0.5258138402034049  1.0000
  H   H1        1.0  0.799997520203185  0.6699099009888485  0.2919372884900113  1.0000
  H   H2        1.0  0.20000225942245456  0.1699140993967277  0.2080609554189152  1.0000
  H   H3        1.0  0.20000236346144357  0.3300871420498481  0.7080627612816741  1.0000
  H   H4        1.0  0.7999908071355576  0.8300851437774881  0.7919381417321318  1.0000
  H   H5        1.0  0.022385947870780902  0.7396325527149301  0.2872282198341765  1.0000
  H   H6        1.0  0.9776174490916248  0.2396427729078141  0.21277091466301107  1.0000
  H   H7        1.0  0.9776152955909224  0.26036339026033073  0.71277189141437  1.0000
  H   H8        1.0  0.0223756174550189  0.7603597704468541  0.7872281824894856  1.0000
  H   H9        1.0  0.8473291469360548  0.9042656646522502  0.3770792864882893  1.0000
  H   H10       1.0  0.15268268922888947  0.4042697650054379  0.12292235789704621  1.0000
  H   H11       1.0  0.1526761940305406  0.09573247843467671  0.6229216544281472  1.0000
  H   H12       1.0  0.8473185360964379  0.595727278028754  0.8770771081170423  1.0000
  H   H13       1.0  0.6765081818989244  0.9301789354935223  0.2886195109127172  1.0000
  H   H14       1.0  0.3234994145726447  0.43018032792007693  0.21138261691552884  1.0000
  H   H15       1.0  0.3234944213484994  0.0698192075987549  0.7113806618141183  1.0000
  H   H16       1.0  0.676499091162313  0.5698178151808406  0.788616726144376  1.0000
  H   H17       1.0  0.8994674329322264  0.9994051498713433  0.2824005245480663  1.0000
  H   H18       1.0  0.10054233384408921  0.49941098439948206  0.21759920578202244  1.0000
  H   H19       1.0  0.1005378717767655  0.0005907930928331001  0.717599125897543  1.0000
  H   H20       1.0  0.8994574772788083  0.5005893588147785  0.7823982630513984  1.0000
  H   H21       1.0  0.5690089526277476  0.7432721808992966  0.1850761179689684  1.0000
  H   H22       1.0  0.4309916090587365  0.2432712421459371  0.3149196705740778  1.0000
  H   H23       1.0  0.4309895168268767  0.25673036243977515  0.8149219346230012  1.0000
  H   H24       1.0  0.5690027628758543  0.7567335013220743  0.6850775523519275  1.0000
  H   H25       1.0  0.6215455962987163  0.7826748946949139  0.0788564587232656  1.0000
  H   H26       1.0  0.3784601513160482  0.282681237844109  0.4211402553945192  1.0000
  H   H27       1.0  0.37845697068352274  0.2173232483949192  0.9211424235337164  1.0000
  H   H28       1.0  0.6215369583263451  0.7173268057990044  0.5788577357225223  1.0000
  H   H29       1.0  0.5051132762131587  0.5275536541670292  0.0879131475702692  1.0000
  H   H30       1.0  0.49490119047705855  0.027563778341246296  0.4120894581433917  1.0000
  H   H31       1.0  0.49488805790770846  0.47244338887450993  0.9120901898533944  1.0000
  H   H32       1.0  0.5051054921009879  0.9724486655231463  0.5879108990216935  1.0000
  H   H33       1.0  0.6825060961217986  0.48232439857872583  0.1702394118050066  1.0000
  H   H34       1.0  0.31750933627417066  0.9823238673756619  0.3297644209172575  1.0000
  H   H35       1.0  0.3174952742453172  0.5176781447660164  0.8297652160909054  1.0000
  H   H36       1.0  0.6825014438466467  0.017679775998878707  0.6702367659109145  1.0000
  H   H37       1.0  0.7342781098017211  0.5239349339660537  0.06348705143631861  1.0000
  H   H38       1.0  0.2657363818239844  0.023940802563828408  0.4365155511137005  1.0000
  H   H39       1.0  0.26572322432293305  0.4760610090153321  0.9365162859868621  1.0000
  H   H40       1.0  0.7342730022383607  0.9760628408115509  0.5634842837672808  1.0000
  C   C1        1.0  0.972803674020689  0.8011001108605241  0.12398906256103712  1.0000
  C   C2        1.0  0.0271965982094855  0.3011025364777069  0.3760106479189816  1.0000
  C   C3        1.0  0.0271962096439395  0.1988969321781724  0.8760109872106484  1.0000
  C   C4        1.0  0.972800565860979  0.6988967066878758  0.6239892788990035  1.0000
  C   C5        1.0  0.8776038218616194  0.762017696958253  0.2685461644272423  1.0000
  C   C6        1.0  0.122396683242215  0.26202237642144877  0.23145222143647007  1.0000
  C   C7        1.0  0.1223946838771255  0.23797934608250415  0.7314531786321794  1.0000
  C   C8        1.0  0.8775990847622097  0.7379790668652719  0.7685463534352835  1.0000
  C   C9        1.0  0.8216885451365102  0.9079045881013177  0.3060776995177079  1.0000
  C   C10       1.0  0.1783191865880838  0.4079088395296325  0.1939237636151248  1.0000
  C   C11       1.0  0.17831407625107687  0.09209135487189  0.6939231184430952  1.0000
  C   C12       1.0  0.8216793191468739  0.5920893035712853  0.8060755794447801  1.0000
  C   C13       1.0  0.6608286906876516  0.7151807190212196  0.13644136729720202  1.0000
  C   C14       1.0  0.33917211884641313  0.21518153202212886  0.3635563324070716  1.0000
  C   C15       1.0  0.3391725346263144  0.2848196241934247  0.8635580987183362  1.0000
  C   C16       1.0  0.6608263506082108  0.784821011316943  0.6364417201848979  1.0000
  C   C17       1.0  0.6460194549436621  0.5524939151653143  0.11348334718716303  1.0000
  C   C18       1.0  0.3539934439540744  0.05249804449987751  0.3865179283677165  1.0000
  C   C19       1.0  0.353981842904453  0.44750532799407955  0.8865186997676064  1.0000
  C   C20       1.0  0.6460145803074013  0.9475077989990982  0.613481845036894  1.0000
  S   S1        1.0  0.9313726954190997  0.7946789410054933  0.010937565076993406  1.0000
  S   S2        1.0  0.0686330239385384  0.2946816041066356  0.4890610952322518  1.0000
  S   S3        1.0  0.06862987156692671  0.2053181020241865  0.9890613171795054  1.0000
  S   S4        1.0  0.9313641219955571  0.7053187391178711  0.5109381863512823  1.0000
  S   S5        1.0  0.18407572995690202  0.8561117856991204  0.16990208024059678  1.0000
  S   S6        1.0  0.8159255413600874  0.35611227764542264  0.3300983850161288  1.0000
  S   S7        1.0  0.8159268551692874  0.14388305721147532  0.8300974472498694  1.0000
  S   S8        1.0  0.1840689031238014  0.6438869655267255  0.6699014188471821  1.0000
  I   I1        1.0  0.42459705954325244  0.8587989424253735  0.8873864636527244  1.0000
  I   I2        1.0  0.5754040539470111  0.35879868341810817  0.6126141880772452  1.0000
  I   I3        1.0  0.5754068853610761  0.1412003007225451  0.11261312531699731  1.0000
  I   I4        1.0  0.4245931463848507  0.641201659810072  0.3873870292110695  1.0000
  N   N1        1.0  0.8448616720452974  0.7596986643578915  0.17313140292147725  1.0000
  N   N2        1.0  0.15514019070022303  0.25970025523744056  0.3268663971570902  1.0000
  N   N3        1.0  0.1551382116117566  0.24030057880111852  0.8268686468511676  1.0000
  N   N4        1.0  0.8448542537760916  0.740301188055014  0.6731334067071871  1.0000
