data_image0
_chemical_formula_structural       Ni2H24C28N4O8
_chemical_formula_sum              "Ni2 H24 C28 N4 O8"
_cell_length_a       4.480942148002389
_cell_length_b       8.637236328443356
_cell_length_c       15.16167069810178
_cell_angle_alpha    105.23285997273759
_cell_angle_beta     89.99989798652346
_cell_angle_gamma    89.99996998351054

_space_group_name_H-M_alt    "P 1"
_space_group_IT_number       1

loop_
  _space_group_symop_operation_xyz
  'x, y, z'

loop_
  _atom_site_type_symbol
  _atom_site_label
  _atom_site_symmetry_multiplicity
  _atom_site_fract_x
  _atom_site_fract_y
  _atom_site_fract_z
  _atom_site_occupancy
  Ni  Ni1       1.0  7.347806771999997e-07  1.1490697034001092e-06  0.49999908088533834  1.0000
  Ni  Ni2       1.0  0.49999950679767846  0.5000005554628829  7.306356622365253e-07  1.0000
  H   H1        1.0  0.3866736509574835  0.7739934012194708  0.4458733187001017  1.0000
  H   H2        1.0  0.8866768400914109  0.7260059011964086  0.05412549643147461  1.0000
  H   H3        1.0  0.6133246005280242  0.2260076080270466  0.5541259363408741  1.0000
  H   H4        1.0  0.11332364306682048  0.2739939001336822  0.9458742329528603  1.0000
  H   H5        1.0  0.1539143556566671  0.7360822224935148  0.5221153167714903  1.0000
  H   H6        1.0  0.6539172007316055  0.7639182748429648  0.9778842520038183  1.0000
  H   H7        1.0  0.8460838958257141  0.2639199786564744  0.4778847806152271  1.0000
  H   H8        1.0  0.3460832824297526  0.23608033458365438  0.022114635034768106  1.0000
  H   H9        1.0  0.25275369682532295  0.6927204786155912  0.2782684806391771  1.0000
  H   H10       1.0  0.7527535683194415  0.807278889852256  0.22173107482326776  1.0000
  H   H11       1.0  0.7472423229838724  0.307279314709568  0.7217319070914173  1.0000
  H   H12       1.0  0.24724468316918546  0.19272092749078243  0.7782673378719667  1.0000
  H   H13       1.0  0.5865879125429886  0.3235453156385901  0.2060442667689841  1.0000
  H   H14       1.0  0.0865901952871724  0.17645512508867975  0.2939566244317433  1.0000
  H   H15       1.0  0.413414802285196  0.6764520618531051  0.7939570696476468  1.0000
  H   H16       1.0  0.9134125195465616  0.8235446842469616  0.7060424466070145  1.0000
  H   H17       1.0  0.4745350746818175  0.3564734768662775  0.37072278620165383  1.0000
  H   H18       1.0  0.9745423608226886  0.1435279332236306  0.12927936818933722  1.0000
  H   H19       1.0  0.5254676401428853  0.643527500354338  0.6292791022175238  1.0000
  H   H20       1.0  0.025460354010235196  0.8564706681962023  0.8707201771934623  1.0000
  H   H21       1.0  0.7441698725763429  0.5650167092541737  0.4896744623508411  1.0000
  H   H22       1.0  0.24417582308885236  0.9349862716939015  0.01032499202236184  1.0000
  H   H23       1.0  0.2558261472333072  0.43498669981224225  0.510325160692517  1.0000
  H   H24       1.0  0.7558246600713472  0.06501353764235769  0.9896740790170784  1.0000
  C   C1        1.0  0.0144731354108245  0.6428094347278587  0.39187930668651216  1.0000
  C   C2        1.0  0.5144758682110648  0.8571936492240155  0.10812226334127224  1.0000
  C   C3        1.0  0.9855251160676204  0.3571927504097943  0.6081221073899954  1.0000
  C   C4        1.0  0.485524614942875  0.14280854391918751  0.8918784923896581  1.0000
  C   C5        1.0  0.08088802757382749  0.6210242352080896  0.2994415791015967  1.0000
  C   C6        1.0  0.5808901848084317  0.8789764202036565  0.20055892392097974  1.0000
  C   C7        1.0  0.9191079922342098  0.3789767580267096  0.7005589926298514  1.0000
  C   C8        1.0  0.41911253002333376  0.12102338112582339  0.799440805462666  1.0000
  C   C9        1.0  0.9264024373636062  0.5063318145730662  0.2327261736559834  1.0000
  C   C10       1.0  0.42640232651388027  0.9936674258430286  0.2672759088793484  1.0000
  C   C11       1.0  0.07359804578872799  0.4936679627385276  0.7672755307630297  1.0000
  C   C12       1.0  0.5735981566443513  0.006332375487062301  0.7327238205049866  1.0000
  C   C13       1.0  0.7063928730362717  0.4117494575634381  0.25841745838722124  1.0000
  C   C14       1.0  0.20639779048715207  0.08825211682106729  0.24158354346969454  1.0000
  C   C15       1.0  0.29360984179191263  0.5882479199282642  0.7415838780294024  1.0000
  C   C16       1.0  0.7936026926750088  0.9117477005213601  0.7584148692248578  1.0000
  C   C17       1.0  0.6435419650344514  0.43154118885070153  0.3506827291379083  1.0000
  C   C18       1.0  0.14354745500311591  0.06846042829612033  0.1493176528508755  1.0000
  C   C19       1.0  0.3564562864471199  0.5684598043834866  0.6493178425928504  1.0000
  C   C20       1.0  0.856453028158242  0.9315381811304989  0.8506812341877108  1.0000
  C   C21       1.0  0.7944720195086177  0.5474036722264302  0.41734446665542185  1.0000
  C   C22       1.0  0.294477519077887  0.952598072989069  0.08265543126729824  1.0000
  C   C23       1.0  0.20552623197260533  0.4525997288331993  0.5826558147321421  1.0000
  C   C24       1.0  0.7055251957581632  0.0473993365272918  0.9173432717697595  1.0000
  C   C25       1.0  0.0021038242048306  0.4817045201359065  0.13350845574007764  1.0000
  C   C26       1.0  0.5021053536543078  0.018295959304779803  0.3664931455263982  1.0000
  C   C27       1.0  0.9978921955992772  0.5182964570865563  0.8664934326811463  1.0000
  C   C28       1.0  0.4978973611802288  0.9817050579466624  0.6335054511683182  1.0000
  N   N1        1.0  0.16574463046362098  0.761043240530462  0.45996724741013406  1.0000
  N   N2        1.0  0.6657456591765508  0.7389573759623786  0.04003254531921395  1.0000
  N   N3        1.0  0.8342558526922872  0.23895896061890914  0.5400328499759013  1.0000
  N   N4        1.0  0.3342525923081467  0.26104242536833056  0.9599671840658033  1.0000
  O   O1        1.0  0.2417387140372256  0.5482442750261923  0.11642611146762501  1.0000
  O   O2        1.0  0.7417397016454714  0.951755075514093  0.3835754257724561  1.0000
  O   O3        1.0  0.7582528424214274  0.45175911802912333  0.8835748282668804  1.0000
  O   O4        1.0  0.2582652448645675  0.0482459497428991  0.6164225125766907  1.0000
  O   O5        1.0  0.8288833007045752  0.39469110750595604  0.0734522043140444  1.0000
  O   O6        1.0  0.3288848616895094  0.10531039914273779  0.42654872255602794  1.0000
  O   O7        1.0  0.17111495077538308  0.6053074698966157  0.9265493161047973  1.0000
  O   O8        1.0  0.6711178531427178  0.8946930179279847  0.5734502421403961  1.0000
