data_image0
_chemical_formula_structural       Cd2H28C40N8O8
_chemical_formula_sum              "Cd2 H28 C40 N8 O8"
_cell_length_a       6.969513100252199
_cell_length_b       10.828448959114072
_cell_length_c       13.019658246278132
_cell_angle_alpha    98.19247421079156
_cell_angle_beta     100.89957797534665
_cell_angle_gamma    107.55066387655592

_space_group_name_H-M_alt    "P 1"
_space_group_IT_number       1

loop_
  _space_group_symop_operation_xyz
  'x, y, z'

loop_
  _atom_site_type_symbol
  _atom_site_label
  _atom_site_symmetry_multiplicity
  _atom_site_fract_x
  _atom_site_fract_y
  _atom_site_fract_z
  _atom_site_occupancy
  Cd  Cd1       1.0  0.33540444410279957  0.24086412971248444  0.7473850584454526  1.0000
  Cd  Cd2       1.0  0.6645967784339533  0.7591354097745366  0.2526153153250661  1.0000
  H   H1        1.0  0.8763962097402499  0.652701491468612  0.7604677946139234  1.0000
  H   H2        1.0  0.12360368102581991  0.3473010280376698  0.23953279050472537  1.0000
  H   H3        1.0  0.06097303251433311  0.8332042422195584  0.6811726167759035  1.0000
  H   H4        1.0  0.9390312369426185  0.16679826831818895  0.3188284245949761  1.0000
  H   H5        1.0  0.8208814192005607  0.5705202605322908  0.36931581553316317  1.0000
  H   H6        1.0  0.17911845260935877  0.4294822569701181  0.6306863035382905  1.0000
  H   H7        1.0  0.6402100993457653  0.3894410022192786  0.45100676510587334  1.0000
  H   H8        1.0  0.35978448228465243  0.6105625205918057  0.5489933835152173  1.0000
  H   H9        1.0  0.3889196943039082  0.1051953504411074  0.4736455902002846  1.0000
  H   H10       1.0  0.6110825959486378  0.8948061727413402  0.5263543602713554  1.0000
  H   H11       1.0  0.11098293535966493  0.9736360656167231  0.2758995596224593  1.0000
  H   H12       1.0  0.8890154863646986  0.02636645587713819  0.7241016403885043  1.0000
  H   H13       1.0  0.5814737746110624  0.19340474158957474  0.2738195656998955  1.0000
  H   H14       1.0  0.4185234989949579  0.8065928241887904  0.7261778592957314  1.0000
  H   H15       1.0  0.48943186233633174  0.3669670181407837  0.19198446493819435  1.0000
  H   H16       1.0  0.510566761996529  0.6330275696221931  0.8080112147564977  1.0000
  H   H17       1.0  0.1352267343221669  0.07366174957897438  0.9037055412201342  1.0000
  H   H18       1.0  0.8647723812172429  0.9263338255230024  0.09629337821893098  1.0000
  H   H19       1.0  0.22507171186594363  0.8999153785693106  0.9885450803912551  1.0000
  H   H20       1.0  0.7749215369847348  0.10008020548490036  0.01145553164069921  1.0000
  H   H21       1.0  0.20957758547138636  0.6234394738335353  0.9951859756144119  1.0000
  H   H22       1.0  0.7904236086311442  0.3765600626476696  0.00481669908531757  1.0000
  H   H23       1.0  0.12861760330600439  0.4646794294553798  0.791950932594311  1.0000
  H   H24       1.0  0.8713773701722546  0.5353221066707546  0.20804979140973504  1.0000
  H   H25       1.0  0.2850657796399999  0.9571619600900402  0.6014823094772695  1.0000
  H   H26       1.0  0.7149379701761733  0.04283956010289809  0.39851779307844754  1.0000
  H   H27       1.0  0.30635134045357393  0.48688695152879535  0.1252133158644213  1.0000
  H   H28       1.0  0.6936506847350189  0.5131086165922196  0.8747866747192037  1.0000
  C   C1        1.0  0.745869021734002  0.5091170640496612  0.6105128969190191  1.0000
  C   C2        1.0  0.2541264998192645  0.4908854654270981  0.38948646497098605  1.0000
  C   C3        1.0  0.8669447753124969  0.6342243846914851  0.6748694005009243  1.0000
  C   C4        1.0  0.1330521773701676  0.365778138789956  0.32513241440236845  1.0000
  C   C5        1.0  0.9696380001820942  0.7361505021230882  0.630056082230624  1.0000
  C   C6        1.0  0.030364809711230123  0.2638520114041683  0.36994480705617866  1.0000
  C   C7        1.0  0.9498835883451733  0.7155168159960608  0.5187168001577974  1.0000
  C   C8        1.0  0.050120652677556186  0.28448569153587033  0.4812865421422929  1.0000
  C   C9        1.0  0.8329835722702228  0.588882924913605  0.4550616099115531  1.0000
  C   C10       1.0  0.1670187085042442  0.4111185972669132  0.5449391075364859  1.0000
  C   C11       1.0  0.7334483570116462  0.4870613443132186  0.5003276453086798  1.0000
  C   C12       1.0  0.2665481848670267  0.5129431638492858  0.49967512816446213  1.0000
  C   C13       1.0  0.6154320743868951  0.40333820629970035  0.6545018467888755  1.0000
  C   C14       1.0  0.3845672872603245  0.5966633218598361  0.3454985664910097  1.0000
  C   C15       1.0  0.046208437485745275  0.822681291439849  0.46918318014348875  1.0000
  C   C16       1.0  0.9537953028523491  0.17732022775115294  0.5308176893886271  1.0000
  C   C17       1.0  0.2639360575476886  0.010502457253139098  0.44877410637931103  1.0000
  C   C18       1.0  0.736064234544294  0.9894980765701429  0.5512262871458875  1.0000
  C   C19       1.0  0.12402743797871092  0.9446993597672911  0.3525907808993908  1.0000
  C   C20       1.0  0.8759719236685015  0.05530216839225229  0.6474096323804874  1.0000
  C   C21       1.0  0.40928988938668454  0.03541879893955979  0.13598033427512496  1.0000
  C   C22       1.0  0.5907068077101059  0.9645777704823711  0.8640207537637539  1.0000
  C   C23       1.0  0.48153625700560804  0.16728220947243239  0.19316282902737217  1.0000
  C   C24       1.0  0.5184599583627048  0.8327133736124422  0.8068342522907275  1.0000
  C   C25       1.0  0.43131550111031214  0.2649207260304535  0.14672293046140794  1.0000
  C   C26       1.0  0.5686812433768509  0.7350758484011732  0.8532743226954482  1.0000
  C   C27       1.0  0.31002117735771145  0.2330313829624727  0.04067266056203779  1.0000
  C   C28       1.0  0.6899745278478947  0.7669632107795364  0.9593227149644934  1.0000
  C   C29       1.0  0.23356601679927286  0.10018093223037279  0.9847066947680292  1.0000
  C   C30       1.0  0.7664350874226215  0.89981563122884  0.015292548593876569  1.0000
  C   C31       1.0  0.2816119788356347  0.0027050969905033995  0.03201832310296032  1.0000
  C   C32       1.0  0.7183807598523445  0.9972894977208425  0.9679805831374326  1.0000
  C   C33       1.0  0.4797661968298146  0.9322299377478489  0.17955678488456786  1.0000
  C   C34       1.0  0.5202325173836755  0.06776762303713468  0.8204423261479408  1.0000
  C   C35       1.0  0.26439541925186927  0.33527769489396053  0.9890570390248715  1.0000
  C   C36       1.0  0.7356082312055816  0.6647208512750352  0.010940399169420776  1.0000
  C   C37       1.0  0.21273136697416098  0.5244848662177614  0.96958544973446  1.0000
  C   C38       1.0  0.7872698366064484  0.4755146712653867  0.03041645798886347  1.0000
  C   C39       1.0  0.17610972511409528  0.4451814587754867  0.8704978925532886  1.0000
  C   C40       1.0  0.82389161573753  0.5548210567393494  0.129503611625843  1.0000
  N   N1        1.0  0.9884063934294502  0.8289749646322447  0.36589864216475126  1.0000
  N   N2        1.0  0.011595339270009183  0.17102556419764875  0.6341034373973289  1.0000
  N   N3        1.0  0.2126266559072007  0.9324314455052299  0.5205868351763955  1.0000
  N   N4        1.0  0.7873770844308936  0.06757007368576498  0.4794140343557275  1.0000
  N   N5        1.0  0.2102977564601503  0.3284886516450171  0.8829536889092751  1.0000
  N   N6        1.0  0.7897045527485389  0.6715128735413101  0.11704472760955295  1.0000
  N   N7        1.0  0.2669928321699829  0.4536992588235407  0.04260599413934331  1.0000
  N   N8        1.0  0.7330107898532461  0.5462992843396463  0.9573937449841667  1.0000
  O   O1        1.0  0.5379360399539124  0.28511576452099513  0.6027210190027292  1.0000
  O   O2        1.0  0.46206333117137877  0.7148857646404846  0.39727862730075003  1.0000
  O   O3        1.0  0.5741703650470457  0.4400422815801194  0.7449137813987651  1.0000
  O   O4        1.0  0.4258303188927782  0.5599562655582203  0.2550871875093961  1.0000
  O   O5        1.0  0.3942186101344871  0.8114256767948116  0.13344435501926447  1.0000
  O   O6        1.0  0.6057840814439717  0.18857386070463628  0.8665554038589253  1.0000
  O   O7        1.0  0.6388194780120671  0.9711120958653652  0.2612064358808722  1.0000
  O   O8        1.0  0.3611842812821777  0.02888942532950979  0.7387928996984389  1.0000
