data_image0
_chemical_formula_structural       Zn2H8C8Br4N4
_chemical_formula_sum              "Zn2 H8 C8 Br4 N4"
_cell_length_a       5.922149612663053
_cell_length_b       6.9837747862088895
_cell_length_c       9.85014210265983
_cell_angle_alpha    90.00672387085295
_cell_angle_beta     89.99831830685729
_cell_angle_gamma    111.14427497862609

_space_group_name_H-M_alt    "P 1"
_space_group_IT_number       1

loop_
  _space_group_symop_operation_xyz
  'x, y, z'

loop_
  _atom_site_type_symbol
  _atom_site_label
  _atom_site_symmetry_multiplicity
  _atom_site_fract_x
  _atom_site_fract_y
  _atom_site_fract_z
  _atom_site_occupancy
  Zn  Zn1       1.0  0.40171634989705046  0.4794974855746118  0.7500048052209249  1.0000
  Zn  Zn2       1.0  0.5983111693553341  0.5205170382084177  0.2499992931035919  1.0000
  H   H1        1.0  0.9670830006229425  0.17740353037190454  0.8910281041328145  1.0000
  H   H2        1.0  0.9670803093317349  0.1773510928809543  0.6089347092755161  1.0000
  H   H3        1.0  0.03288289194621531  0.8226211824768156  0.1089617819631954  1.0000
  H   H4        1.0  0.03290374305823443  0.8226278801082427  0.3910785248195339  1.0000
  H   H5        1.0  0.3420320255323688  0.806202721108022  0.9364286035050711  1.0000
  H   H6        1.0  0.3420997011502962  0.806194889751957  0.5636248433518176  1.0000
  H   H7        1.0  0.6579279436117889  0.19382806075356032  0.06355620679708808  1.0000
  H   H8        1.0  0.6579335239919005  0.1938089732714587  0.4363792545170426  1.0000
  C   C1        1.0  0.9808335080219379  0.32149820528548634  0.9397172924392689  1.0000
  C   C2        1.0  0.9808261397213373  0.32146773713122184  0.5602466229214044  1.0000
  C   C3        1.0  0.019170115176741765  0.6785482416931714  0.06026345737257089  1.0000
  C   C4        1.0  0.01914967245365044  0.6785279935149472  0.4397544293202316  1.0000
  C   C5        1.0  0.18944496616987985  0.6696852901763319  0.9656886425383319  1.0000
  C   C6        1.0  0.1894767529647935  0.6696597544409569  0.5343314117936513  1.0000
  C   C7        1.0  0.8104948705692651  0.33033767436779016  0.03430936535127669  1.0000
  C   C8        1.0  0.8104980170987377  0.33034973450247657  0.4656544127922756  1.0000
  Br  Br1       1.0  0.755617787293332  0.7734179963320714  0.750024526124278  1.0000
  Br  Br2       1.0  0.24451258965616063  0.22652702026840638  0.24997246234846668  1.0000
  Br  Br3       1.0  0.41553382637178515  0.1465636092881226  0.7500159030108406  1.0000
  Br  Br4       1.0  0.5844934603883872  0.8534340878881038  0.2500267727723156  1.0000
  N   N1        1.0  0.16897424154413437  0.4912421307692085  0.9060338243069949  1.0000
  N   N2        1.0  0.16904728427986976  0.49122746458981936  0.593991623928204  1.0000
  N   N3        1.0  0.8309928497460605  0.5087244563823888  0.09392763349392648  1.0000
  N   N4        1.0  0.8309797545670959  0.5087411627891142  0.40603886813965306  1.0000
