data_image0
_chemical_formula_structural       Cd4H48C60N16O16
_chemical_formula_sum              "Cd4 H48 C60 N16 O16"
_cell_length_a       9.091589781
_cell_length_b       10.136322728227668
_cell_length_c       16.895
_cell_angle_alpha    103.9255531046772
_cell_angle_beta     90.0
_cell_angle_gamma    90.0

_space_group_name_H-M_alt    "P 1"
_space_group_IT_number       1

loop_
  _space_group_symop_operation_xyz
  'x, y, z'

loop_
  _atom_site_type_symbol
  _atom_site_label
  _atom_site_symmetry_multiplicity
  _atom_site_fract_x
  _atom_site_fract_y
  _atom_site_fract_z
  _atom_site_occupancy
  Cd  Cd1       1.0  0.11331571538269  0.8400006914614269  0.9346541560676374  1.0000
  Cd  Cd2       1.0  0.613314077550328  0.1599984376660188  0.5653496838600701  1.0000
  Cd  Cd3       1.0  0.8866799090349318  0.16000453621332164  0.06534997251943511  1.0000
  Cd  Cd4       1.0  0.3866826467849408  0.8399986586123235  0.43465267876863584  1.0000
  H   H1        1.0  0.4602814360086215  0.1960245894110102  0.07789202224488183  1.0000
  H   H2        1.0  0.96029409710561  0.8039694575936808  0.4221110838907834  1.0000
  H   H3        1.0  0.5397097887384348  0.8039714904427839  0.9221013152590416  1.0000
  H   H4        1.0  0.0397092267355106  0.1960235729864621  0.5778883241399202  1.0000
  H   H5        1.0  0.5393138183870718  0.4373705330754234  0.1311239487234843  1.0000
  H   H6        1.0  0.03931655613708072  0.5626174153819719  0.36888064442609203  1.0000
  H   H7        1.0  0.46069500504226824  0.562619448231068  0.8688708757943502  1.0000
  H   H8        1.0  0.960686767704047  0.4373745987736228  0.6311215763016591  1.0000
  H   H9        1.0  0.4032639052481244  0.6228263400170705  0.08737396637380362  1.0000
  H   H10       1.0  0.9032490684040441  0.377171772685827  0.41263091057768264  1.0000
  H   H11       1.0  0.5967460180988553  0.3771748219594784  0.9126277995063605  1.0000
  H   H12       1.0  0.09674875584886423  0.6228263400170705  0.587372782591622  1.0000
  H   H13       1.0  0.10676570582062082  0.3272998857227379  0.9473424625824265  1.0000
  H   H14       1.0  0.6067596683176859  0.672702292678359  0.5526541230363194  1.0000
  H   H15       1.0  0.8932299185970082  0.6727083912256546  0.05265559547786578  1.0000
  H   H16       1.0  0.3932381559352295  0.327292770750887  0.44734261905574624  1.0000
  H   H17       1.0  0.818751195259189  0.992237711264771  0.8528151252382588  1.0000
  H   H18       1.0  0.3187517331739116  0.007762434287229801  0.6471864938834955  1.0000
  H   H19       1.0  0.1812521285819315  0.0077573521644752  0.14718812765581646  1.0000
  H   H20       1.0  0.6812504907495693  0.992237711264771  0.3528115738917067  1.0000
  H   H21       1.0  0.7316850144187158  0.612488285920513  0.6866282531503601  1.0000
  H   H22       1.0  0.2316811526628655  0.3875138924805839  0.8133677405772917  1.0000
  H   H23       1.0  0.2683172095047723  0.3875108432069326  0.3133684840842434  1.0000
  H   H24       1.0  0.7683144717547636  0.6124801545241141  0.1866306304296401  1.0000
  H   H25       1.0  0.964130609843231  0.5854635899890184  0.7901219197573398  1.0000
  H   H26       1.0  0.4641278480050275  0.4145406212611746  0.7098755512693131  1.0000
  H   H27       1.0  0.0358738139155363  0.4145314734402278  0.2098742304436314  1.0000
  H   H28       1.0  0.5358699762478879  0.5854635899890184  0.2901284305593493  1.0000
  H   H29       1.0  0.20960360573928236  0.6172980068904153  0.7482377775717455  1.0000
  H   H30       1.0  0.7096008679892734  0.382708237208881  0.7517670896648312  1.0000
  H   H31       1.0  0.7903964183489123  0.3827123029070806  0.25176530913410033  1.0000
  H   H32       1.0  0.2904002560165679  0.6172990233149633  0.24823792433015512  1.0000
  H   H33       1.0  0.4535675387177918  0.645711138757008  0.6552103420522783  1.0000
  H   H34       1.0  0.9535670008030693  0.3542849410967861  0.8447906900358362  1.0000
  H   H35       1.0  0.5464357851233359  0.3542940889177331  0.34479497031698264  1.0000
  H   H36       1.0  0.0464374229556981  0.6457070730588086  0.15520738745426851  1.0000
  H   H37       1.0  0.4313239042301689  0.9780240303596203  0.8635648680714854  1.0000
  H   H38       1.0  0.9313178667272268  0.021982213739669  0.6364334883630747  1.0000
  H   H39       1.0  0.5686772197756724  0.0219842465887723  0.1364385170086351  1.0000
  H   H40       1.0  0.0686722581021826  0.9780199646614208  0.36356309725566405  1.0000
  H   H41       1.0  0.6216030569054567  0.9918087801047265  0.7518925835416824  1.0000
  H   H42       1.0  0.1216024949025325  0.0081923818718153  0.7481068147741112  1.0000
  H   H43       1.0  0.378403566688597  0.008193398296363301  0.2481116966612547  1.0000
  H   H44       1.0  0.8783964292680153  0.9918077636801783  0.2518912530010907  1.0000
  H   H45       1.0  0.6212906802949405  0.8611717984103109  0.6603845590389312  1.0000
  H   H46       1.0  0.121287918456737  0.1388283471416827  0.8396135087362709  1.0000
  H   H47       1.0  0.3787115436285404  0.1388334292644302  0.3396183857659666  1.0000
  H   H48       1.0  0.8787099057961782  0.861162650589364  0.16038264632215524  1.0000
  C   C1        1.0  0.22100315218786903  0.1050789863883637  0.988185348667564  1.0000
  C   C2        1.0  0.721018013120144  0.8949242084372813  0.5118137512739552  1.0000
  C   C3        1.0  0.7789803731356884  0.8949262412863845  0.01181049344422291  1.0000
  C   C4        1.0  0.278990810309196  0.10507492069016422  0.48818653730720746  1.0000
  C   C5        1.0  0.2757130557340517  0.24779922313143032  0.012341262947238406  1.0000
  C   C6        1.0  0.7757158175722552  0.7522009224205634  0.48766153995669737  1.0000
  C   C7        1.0  0.7242792689306441  0.752197873146919  0.9876545888794583  1.0000
  C   C8        1.0  0.224282006680653  0.24779922313143032  0.5123412629472385  1.0000
  C   C9        1.0  0.3999421539672738  0.2789932925664189  0.062478897944508616  1.0000
  C   C10       1.0  0.8999416160525513  0.7210027872873752  0.4375215422525117  1.0000
  C   C11       1.0  0.6000567702032811  0.7209997380137239  0.9375116317198149  1.0000
  C   C12       1.0  0.1000540083650776  0.2789963418400703  0.5624781544375568  1.0000
  C   C13       1.0  0.4438244682390576  0.4136400691100094  0.09125543749441081  1.0000
  C   C14       1.0  0.943820630571409  0.5863519450455926  0.40874796701552196  1.0000
  C   C15       1.0  0.556178855602063  0.5863519450455926  0.9087396805402365  1.0000
  C   C16       1.0  0.0561793935167856  0.41364616765730494  0.591254542371594  1.0000
  C   C17       1.0  0.3684801097164652  0.5172208457118828  0.06686163502716619  1.0000
  C   C18       1.0  0.8684762720488166  0.4827782834155628  0.4331469400292818  1.0000
  C   C19       1.0  0.6315199143717294  0.48277625056645956  0.9331395438193583  1.0000
  C   C20       1.0  0.1315259518746643  0.517222878560986  0.5668577853063398  1.0000
  C   C21       1.0  0.2509341110800847  0.4856486663443463  0.011847861065859904  1.0000
  C   C22       1.0  0.750923673906577  0.5143504627830993  0.4881536112974842  1.0000
  C   C23       1.0  0.7490670129257566  0.514348429933996  0.9881515421073889  1.0000
  C   C24       1.0  0.2490730504286915  0.4856476499197981  0.5118447548519924  1.0000
  C   C25       1.0  0.20286990993088247  0.3512641273346233  0.9865415616283072  1.0000
  C   C26       1.0  0.7028638724279475  0.6487339853682742  0.5134568045211694  1.0000
  C   C27       1.0  0.7971246145691  0.6487339853682742  0.013455620738980732  1.0000
  C   C28       1.0  0.2971306520720348  0.351261078060972  0.48653993757089614  1.0000
  C   C29       1.0  0.18314178709203335  0.5926995163594242  0.9759811350162124  1.0000
  C   C30       1.0  0.6831324498361653  0.4073016456171247  0.5240188551906684  1.0000
  C   C31       1.0  0.8168604368314478  0.40730469489076887  0.024019887356992314  1.0000
  C   C32       1.0  0.3168664743343825  0.5926954506612248  0.4759799560914858  1.0000
  C   C33       1.0  0.8313958484792752  0.886093511948161  0.8212596375635429  1.0000
  C   C34       1.0  0.3313974863116442  0.1139066336038326  0.6787402058849353  1.0000
  C   C35       1.0  0.168606375444206  0.1139015514810851  0.1787436153305322  1.0000
  C   C36       1.0  0.6686058375294837  0.886093511948161  0.3212566781080852  1.0000
  C   C37       1.0  0.7862442292478564  0.686160770142962  0.7354763094063231  1.0000
  C   C38       1.0  0.2862381676567196  0.31384242468268303  0.7645198310797384  1.0000
  C   C39       1.0  0.2137590945932715  0.3138414082581349  0.2645208681035101  1.0000
  C   C40       1.0  0.7137574567609024  0.6861577208693106  0.23547882858655816  1.0000
  C   C41       1.0  0.9009634395425863  0.674272668607884  0.7861421846959119  1.0000
  C   C42       1.0  0.4009606777043828  0.3257295097932129  0.7138555847050156  1.0000
  C   C43       1.0  0.09903768446325503  0.32572239482136217  0.21385751685161133  1.0000
  C   C44       1.0  0.5990382464661721  0.674272668607884  0.2861469198246454  1.0000
  C   C45       1.0  0.2911954964722128  0.6974095406361869  0.758297880401898  1.0000
  C   C46       1.0  0.7911938586398506  0.3025946706140061  0.7417049176445829  1.0000
  C   C47       1.0  0.7088045276159818  0.3025987363122056  0.24170609656930964  1.0000
  C   C48       1.0  0.20881056511891674  0.697411573485283  0.2582958063543543  1.0000
  C   C49       1.0  0.4111855121105989  0.7099888108651697  0.7114027093834993  1.0000
  C   C50       1.0  0.9111838742782368  0.2900093018377277  0.7885998000036167  1.0000
  C   C51       1.0  0.5888145119775957  0.2900154003850304  0.2886024562273448  1.0000
  C   C52       1.0  0.0888150498923181  0.7099837287424152  0.2114019755914569  1.0000
  C   C53       1.0  0.399762867391523  0.8856249402306773  0.8194074302943266  1.0000
  C   C54       1.0  0.8997601296415141  0.1143792710195157  0.680593000187784  1.0000
  C   C55       1.0  0.6002349568613923  0.11438740241591461  0.18059358236396866  1.0000
  C   C56       1.0  0.1002354947761148  0.885621890957026  0.3194063981280096  1.0000
  C   C57       1.0  0.6173738735694059  0.8815348478420688  0.7272098901401803  1.0000
  C   C58       1.0  0.11737331156648881  0.11846631413447281  0.7727883243934315  1.0000
  C   C59       1.0  0.3826305501893614  0.11846631413447281  0.2727924676310707  1.0000
  C   C60       1.0  0.8826322121099253  0.8815348478420688  0.22720811446690456  1.0000
  N   N1        1.0  0.9284712798680134  0.7993335452217991  0.8387077738315654  1.0000
  N   N2        1.0  0.42847071786508917  0.2006686331792906  0.6612911793515437  1.0000
  N   N3        1.0  0.0715320439731144  0.2006635510565431  0.16129222123277034  1.0000
  N   N4        1.0  0.5715293062231055  0.7993335452217991  0.33870954950484133  1.0000
  N   N5        1.0  0.7431659547728557  0.821386908679962  0.7586721034987465  1.0000
  N   N6        1.0  0.24316319293465233  0.17861526972112782  0.7413262577932686  1.0000
  N   N7        1.0  0.2568373690682719  0.1786122204474836  0.2413293688645979  1.0000
  N   N8        1.0  0.7568401309064754  0.8213818265572144  0.258671369706704  1.0000
  N   N9        1.0  0.2850007603087193  0.8074232682140804  0.825138327710981  1.0000
  N   N10       1.0  0.7850002223939967  0.1925829758852089  0.6748635800701381  1.0000
  N   N11       1.0  0.7149981638618357  0.1925870415834083  0.174865350885959  1.0000
  N   N12       1.0  0.2149976018589115  0.8074212353649841  0.3251386260852556  1.0000
  N   N13       1.0  0.4790262324749293  0.830306034104929  0.7508098641490477  1.0000
  N   N14       1.0  0.9790256945602067  0.16969512787161992  0.7491895341667458  1.0000
  N   N15       1.0  0.520974891530912  0.1696991935698193  0.24919308065584292  1.0000
  N   N16       1.0  0.020977629280921  0.8303040012558257  0.25080779495895206  1.0000
  O   O1        1.0  0.0922698912079269  0.0838021712862869  0.9542378479593197  1.0000
  O   O2        1.0  0.5922847521402019  0.9162040728130095  0.5457622841485233  1.0000
  O   O3        1.0  0.9077070346097714  0.9162040728130095  0.04576465171289363  1.0000
  O   O4        1.0  0.407717471783279  0.0837930234653399  0.4542329757870789  1.0000
  O   O5        1.0  0.2988520231828105  0.0093998942370419  0.0015318296419053001  1.0000
  O   O6        1.0  0.7988723837032978  0.9905982184658556  0.49846594461647703  1.0000
  O   O7        1.0  0.7011260025525345  0.9906043170131512  0.9984650494936532  1.0000
  O   O8        1.0  0.20113973947896827  0.0093978613879386  0.5015344955805503  1.0000
  O   O9        1.0  0.1251332305354893  0.5584236476892741  0.9057856252959625  1.0000
  O   O10       1.0  0.6251282929502011  0.44158056356091896  0.5942153970772495  1.0000
  O   O11       1.0  0.8748700933056313  0.4415846292591183  0.09421539221979461  1.0000
  O   O12       1.0  0.37487063122035386  0.5584175491419785  0.40578356096332163  1.0000
  O   O13       1.0  0.19213141398553552  0.7160670296732903  0.0185194486726559  1.0000
  O   O14       1.0  0.6921319759884597  0.2839351487278066  0.4814806882926419  1.0000
  O   O15       1.0  0.8078697100202987  0.283938198001458  0.9814805366767775  1.0000
  O   O16       1.0  0.3078735476879544  0.7160629639750908  0.5185194535301108  1.0000
