data_image0
_chemical_formula_structural       Cd2H20C24N4O8
_chemical_formula_sum              "Cd2 H20 C24 N4 O8"
_cell_length_a       8.287173516187327
_cell_length_b       8.28718422851358
_cell_length_c       10.722026455233925
_cell_angle_alpha    112.75343910732171
_cell_angle_beta     112.75340629696042
_cell_angle_gamma    90.00680859272484

_space_group_name_H-M_alt    "P 1"
_space_group_IT_number       1

loop_
  _space_group_symop_operation_xyz
  'x, y, z'

loop_
  _atom_site_type_symbol
  _atom_site_label
  _atom_site_symmetry_multiplicity
  _atom_site_fract_x
  _atom_site_fract_y
  _atom_site_fract_z
  _atom_site_occupancy
  Cd  Cd1       1.0  0.7499623686646827  0.2500383308254754  0.5000012914801599  1.0000
  Cd  Cd2       1.0  0.5000501733827534  0.49995109329644555  7.771111541719541e-07  1.0000
  H   H1        1.0  0.5830580982772562  0.37494084507952874  0.25005570095257207  1.0000
  H   H2        1.0  0.6671196819273534  0.8751206837544035  0.2500196261601533  1.0000
  H   H3        1.0  0.12488062534951891  0.33288067465112203  0.74998051509926  1.0000
  H   H4        1.0  0.6250579864025169  0.41693879980300613  0.7499434550875818  1.0000
  H   H5        1.0  0.0695409865251762  0.15832503736066172  0.40652003196401404  1.0000
  H   H6        1.0  0.336776667054707  0.24812478162935045  0.40631583626148426  1.0000
  H   H7        1.0  0.4981430006521492  0.8194314635220865  0.9064165851278999  1.0000
  H   H8        1.0  0.4081862082086189  0.0868888232570555  0.9063798417068155  1.0000
  H   H9        1.0  0.18057008012888076  0.501858946694071  0.09358320744009056  1.0000
  H   H10       1.0  0.9131121015260958  0.5918130936367235  0.0936187339795325  1.0000
  H   H11       1.0  0.7518756749491046  0.6632227528650744  0.5936845924896444  1.0000
  H   H12       1.0  0.8416782318052329  0.93045629591024  0.5934815985942805  1.0000
  H   H13       1.0  0.29552373035489415  0.9548549297822576  0.4081520906086809  1.0000
  H   H14       1.0  0.11242819418356481  0.45325605982759504  0.40788765992138565  1.0000
  H   H15       1.0  0.7032868895244421  0.0454300441693434  0.908027731495217  1.0000
  H   H16       1.0  0.20476620420330255  0.8625177960974997  0.9080575508151297  1.0000
  H   H17       1.0  0.9545717850142523  0.29671414472579033  0.09197242441015155  1.0000
  H   H18       1.0  0.13748380218272163  0.7952349356945662  0.09194308379125721  1.0000
  H   H19       1.0  0.5467432786605784  0.8875701306278788  0.5921104175749151  1.0000
  H   H20       1.0  0.04514676307820053  0.7044723236796742  0.5918480018223135  1.0000
  C   C1        1.0  0.7171932826810661  0.37489791528543054  0.25001282865793684  1.0000
  C   C2        1.0  0.5329376652883937  0.8750756193985084  0.24999932519219942  1.0000
  C   C3        1.0  0.1249227842885361  0.46706268677112217  0.7500000084416315  1.0000
  C   C4        1.0  0.62510287133545  0.2828050295736305  0.7499882034732579  1.0000
  C   C5        1.0  0.07321539522171609  0.057964950278901  0.449365487406908  1.0000
  C   C6        1.0  0.3759735581348663  0.3913727107875146  0.44920369083606465  1.0000
  C   C7        1.0  0.6413803548474134  0.823165037171016  0.9492845037675295  1.0000
  C   C8        1.0  0.3078537162630822  0.1260630982602606  0.9492601359932563  1.0000
  C   C9        1.0  0.17683447012795742  0.3586193772623646  0.05071397729800964  1.0000
  C   C10       1.0  0.8739356944870239  0.6921487899389621  0.05073974405566873  1.0000
  C   C11       1.0  0.6086276140300058  0.6240261175757382  0.5507958826843264  1.0000
  C   C12       1.0  0.9420357235969375  0.9267822989147236  0.5506345241928231  1.0000
  C   C13       1.0  0.19644204407534005  0.9442883786220694  0.44980240796476073  1.0000
  C   C14       1.0  0.25319767515910035  0.50553424752394  0.4495923995370035  1.0000
  C   C15       1.0  0.7555413536611936  0.9463951342829023  0.949712850797482  1.0000
  C   C16       1.0  0.19416129036903132  0.003270764658658699  0.9497022258569459  1.0000
  C   C17       1.0  0.053606018011770104  0.24446005424111666  0.050287548168597616  1.0000
  C   C18       1.0  0.9967295535168575  0.8058398897076916  0.050298642224454626  1.0000
  C   C19       1.0  0.49446473361856397  0.7468016861891374  0.550405844046665  1.0000
  C   C20       1.0  0.05571201967806162  0.8035556412995106  0.5501978187212019  1.0000
  C   C21       1.0  0.1870983673628643  0.812902476382398  0.5000006220861337  1.0000
  C   C22       1.0  0.3128162611910099  0.6871828660605531  0.49999913270507085  1.0000
  C   C23       1.0  0.9371521027622763  0.9371152414240457  0.999988825956713  1.0000
  C   C24       1.0  0.06288613306664098  0.06284977967527541  1.0771456139490598e-05  1.0000
  N   N1        1.0  0.9492308344976976  0.05076924656196271  0.5000010305505711  1.0000
  N   N2        1.0  0.5506893587795573  0.4493113897470027  0.5000013840923074  1.0000
  N   N3        1.0  0.6992609018795548  0.6992723095233303  3.1814826691401475e-05  1.0000
  N   N4        1.0  0.300729358097314  0.30074043124047745  0.999968639557231  1.0000
  O   O1        1.0  0.8267480510267403  0.30782474136040605  0.3282280502923456  1.0000
  O   O2        1.0  0.5016573221701606  0.0203858327832336  0.3282680857471049  1.0000
  O   O3        1.0  0.2703047252076729  0.5766133095527621  0.8283351790622148  1.0000
  O   O4        1.0  0.5580286066996436  0.25160216155349974  0.8282445269798302  1.0000
  O   O5        1.0  0.4233887078000648  0.7296952437632671  0.17166509551934445  1.0000
  O   O6        1.0  0.7483972011420902  0.44197162421106384  0.1717557327765461  1.0000
  O   O7        1.0  0.979613906506259  0.49834258994270203  0.6717321225537702  1.0000
  O   O8        1.0  0.692176369913831  0.1732502255260258  0.6717720653324051  1.0000
