data_image0
_chemical_formula_structural       Fe4H32C48N16
_chemical_formula_sum              "Fe4 H32 C48 N16"
_cell_length_a       13.529306495981086
_cell_length_b       13.529292661332391
_cell_length_c       13.337452035934996
_cell_angle_alpha    90.00085040589474
_cell_angle_beta     90.00238783434379
_cell_angle_gamma    99.56199847019435

_space_group_name_H-M_alt    "P 1"
_space_group_IT_number       1

loop_
  _space_group_symop_operation_xyz
  'x, y, z'

loop_
  _atom_site_type_symbol
  _atom_site_label
  _atom_site_symmetry_multiplicity
  _atom_site_fract_x
  _atom_site_fract_y
  _atom_site_fract_z
  _atom_site_occupancy
  Fe  Fe1       1.0  0.9798899861068477  0.9798740645220363  0.4999992159729771  1.0000
  Fe  Fe2       1.0  0.020116569265766795  0.020114072732795293  8.060347155899999e-06  1.0000
  Fe  Fe3       1.0  0.9867082931791914  0.013292079880535785  0.24998320574672303  1.0000
  Fe  Fe4       1.0  0.013289609598864199  0.9867012323265455  0.750022119839464  1.0000
  H   H1        1.0  0.21300513240822033  0.949936451941518  0.5304157393244252  1.0000
  H   H2        1.0  0.7870328343679205  0.05006613959891838  0.030381259653900393  1.0000
  H   H3        1.0  0.9499375488668919  0.2129989029204964  0.46959114490949344  1.0000
  H   H4        1.0  0.05007586377666941  0.7870378376842524  0.9696187599751694  1.0000
  H   H5        1.0  0.23073839911879193  0.047806720798305904  0.2204084746753807  1.0000
  H   H6        1.0  0.7692410310539658  0.9522393110975002  0.7203741449734691  1.0000
  H   H7        1.0  0.047790130324166596  0.23076161585315447  0.7796006635573673  1.0000
  H   H8        1.0  0.9521822487142231  0.7692641657961942  0.27960262536447533  1.0000
  H   H9        1.0  0.38297894707594077  0.9398939971516569  0.526710015495297  1.0000
  H   H10       1.0  0.6170317883322979  0.060073038482286664  0.026694266285637994  1.0000
  H   H11       1.0  0.9399093417590478  0.3829645203702511  0.4732863470515553  1.0000
  H   H12       1.0  0.0600831397285759  0.6170222812691787  0.9733027775673048  1.0000
  H   H13       1.0  0.5631358178820776  0.9365419229167313  0.5259833796725671  1.0000
  H   H14       1.0  0.436863631523984  0.06341955870328768  0.025966351150628997  1.0000
  H   H15       1.0  0.9365572212920129  0.563125623085071  0.4740134297172104  1.0000
  H   H16       1.0  0.0634457859182618  0.43686217332058414  0.9740384932614673  1.0000
  H   H17       1.0  0.582406661127159  0.04809634643710581  0.2225037343817675  1.0000
  H   H18       1.0  0.4175968183757846  0.9519403486271614  0.722449097496522  1.0000
  H   H19       1.0  0.04807812085584829  0.5824009695648583  0.7775152482409594  1.0000
  H   H20       1.0  0.9519195792025811  0.417601579273665  0.2775313250381116  1.0000
  H   H21       1.0  0.40229883008861833  0.0515843218528573  0.22341256595906597  1.0000
  H   H22       1.0  0.5977031761753437  0.9484454930225823  0.7233644523411583  1.0000
  H   H23       1.0  0.05157197613917929  0.4022933749972566  0.7765992272309388  1.0000
  H   H24       1.0  0.9484129372138738  0.5977063278979458  0.27660891366242873  1.0000
  H   H25       1.0  0.7364937853717562  0.9497717665729792  0.5312293871583406  1.0000
  H   H26       1.0  0.2635113024607705  0.050251323655203385  0.031184861735177094  1.0000
  H   H27       1.0  0.9497734641939245  0.736461402807741  0.4687756399225123  1.0000
  H   H28       1.0  0.050269667235113495  0.2634885383628641  0.9688192637818386  1.0000
  H   H29       1.0  0.7504098277096035  0.030717549744466117  0.21654561022125304  1.0000
  H   H30       1.0  0.24959480269976814  0.9692896817255844  0.7165151449465482  1.0000
  H   H31       1.0  0.030701730077176095  0.7503852456677577  0.783466338907317  1.0000
  H   H32       1.0  0.9692751780170851  0.24958146347849916  0.28347680879472387  1.0000
  C   C1        1.0  0.2012639827227005  0.9748052161091466  0.45460435863069637  1.0000
  C   C2        1.0  0.7987808726718556  0.025198758014518347  0.954593067570208  1.0000
  C   C3        1.0  0.9748063154499677  0.20124969428970016  0.545393145746253  1.0000
  C   C4        1.0  0.0252001792746199  0.7987738326542768  0.04540883414099279  1.0000
  C   C5        1.0  0.270037305851929  0.9983952634971799  0.37544389079049967  1.0000
  C   C6        1.0  0.7299754500284337  0.0016222611245666108  0.8754421876160662  1.0000
  C   C7        1.0  0.9983899136768386  0.2700314426050382  0.6245539477180556  1.0000
  C   C8        1.0  0.0016029671899601995  0.7299747453291943  0.12455712969966727  1.0000
  C   C9        1.0  0.21029928341260273  0.0249994512379388  0.2966780748520391  1.0000
  C   C10       1.0  0.7897030983204444  0.9750233600590474  0.7966569212912588  1.0000
  C   C11       1.0  0.0249931384923485  0.21030054243946236  0.7033306035422555  1.0000
  C   C12       1.0  0.974991405026529  0.7897083824286214  0.20332705720903727  1.0000
  C   C13       1.0  0.37749296231032053  0.9960954444553565  0.375113161591365  1.0000
  C   C14       1.0  0.6225077721399899  0.003914933046218007  0.875085378898177  1.0000
  C   C15       1.0  0.9960882811320602  0.3774787586696319  0.6248906172130616  1.0000
  C   C16       1.0  0.003900804061721899  0.6225009429227695  0.1249019993961298  1.0000
  C   C17       1.0  0.42620571128325935  0.9641733159960709  0.45949134432047595  1.0000
  C   C18       1.0  0.5738003810987067  0.03581920889968869  0.9594755631881495  1.0000
  C   C19       1.0  0.9641752509916232  0.42619202296631187  0.5405099052512127  1.0000
  C   C20       1.0  0.035820441851967595  0.5737964031876145  0.04051959289134289  1.0000
  C   C21       1.0  0.5285563359447991  0.9623119768583239  0.4591057815448139  1.0000
  C   C22       1.0  0.47144823755169096  0.0376795545848481  0.9590851156367817  1.0000
  C   C23       1.0  0.9623128703252704  0.5285439320863432  0.5408960295046298  1.0000
  C   C24       1.0  0.03768883510242921  0.4714447449663837  0.040911728355879994  1.0000
  C   C25       1.0  0.5879383942445173  0.9922577123003433  0.37427392306786794  1.0000
  C   C26       1.0  0.4120705481284901  0.007754735920258283  0.8742436368633971  1.0000
  C   C27       1.0  0.9922495463032988  0.5879284636967198  0.6257333854850555  1.0000
  C   C28       1.0  0.0077501209326414  0.41207293945679163  0.12575295830872338  1.0000
  C   C29       1.0  0.5392425412230679  0.02400172123976317  0.28981762882646217  1.0000
  C   C30       1.0  0.4607565312581627  0.9760234048766634  0.7897696139811855  1.0000
  C   C31       1.0  0.023986188237024895  0.5392359501075035  0.7101949739337456  1.0000
  C   C32       1.0  0.9760076355697153  0.46076128961475143  0.21021643835027953  1.0000
  C   C33       1.0  0.4369219821854032  0.025901244541813598  0.29028041864971493  1.0000
  C   C34       1.0  0.5630793567749421  0.9741227811068994  0.7902342876999241  1.0000
  C   C35       1.0  0.025887596381302603  0.43691186503179574  0.709730874773413  1.0000
  C   C36       1.0  0.9740994508290585  0.5630805627609091  0.20974932498979368  1.0000
  C   C37       1.0  0.7562952670813701  0.9689260284575099  0.4539490583361213  1.0000
  C   C38       1.0  0.2436813852889728  0.031081552654043793  0.9539280243619997  1.0000
  C   C39       1.0  0.9689245782367805  0.7562849279712295  0.5460533096413797  1.0000
  C   C40       1.0  0.031090794372218497  0.24368019184955608  0.046077259576136995  1.0000
  C   C41       1.0  0.695535220159357  0.9906927966359829  0.37396344609558696  1.0000
  C   C42       1.0  0.3044564740971225  0.009319040753311495  0.8739505499224406  1.0000
  C   C43       1.0  0.9906870382583791  0.695525615383289  0.6260385808839855  1.0000
  C   C44       1.0  0.009320837025782699  0.3044564400894244  0.12605207625522746  1.0000
  C   C45       1.0  0.7635440339251359  0.011094143183861042  0.29374712988592927  1.0000
  C   C46       1.0  0.23644616842329208  0.9889059356221208  0.7937299253680193  1.0000
  C   C47       1.0  0.011084104308764602  0.7635381669817957  0.7062593896143168  1.0000
  C   C48       1.0  0.9888982664159086  0.23644605324010118  0.20626820766667459  1.0000
  N   N1        1.0  0.10881738634929411  0.9868906632211036  0.4248300174287606  1.0000
  N   N2        1.0  0.8912110938560006  0.013107979662017018  0.9248245513298482  1.0000
  N   N3        1.0  0.9868970248270229  0.1088095522795527  0.5751704876947271  1.0000
  N   N4        1.0  0.013110091889913602  0.8912115528348818  0.07517659856041087  1.0000
  N   N5        1.0  0.11434361776017  0.0178128285811425  0.32704543720614504  1.0000
  N   N6        1.0  0.8856661342061686  0.9821983264870439  0.8270350445718149  1.0000
  N   N7        1.0  0.0178129387979453  0.11434423102272717  0.6729603563121741  1.0000
  N   N8        1.0  0.9821784614211422  0.8856727662212547  0.1729555679084385  1.0000
  N   N9        1.0  0.8522558542272449  0.9759826282552877  0.4234467367786933  1.0000
  N   N10       1.0  0.1477238358909219  0.02400578920268259  0.9234434348381269  1.0000
  N   N11       1.0  0.9759841582486073  0.8522436666291142  0.5765495155270343  1.0000
  N   N12       1.0  0.024013143732446496  0.14772115544674588  0.07656571501231468  1.0000
  N   N13       1.0  0.8567551994582631  0.002184302484060742  0.3240763394874903  1.0000
  N   N14       1.0  0.1432296345516164  0.9978042514125247  0.8240719740719554  1.0000
  N   N15       1.0  0.0021780677795533  0.8567458327609784  0.6759272896841536  1.0000
  N   N16       1.0  0.997799121196941  0.1432252718033382  0.1759297986571013  1.0000
