data_image0
_chemical_formula_structural       Cd4H40C28S4N8O20
_chemical_formula_sum              "Cd4 H40 C28 S4 N8 O20"
_cell_length_a       8.346460826
_cell_length_b       8.735679806
_cell_length_c       14.928
_cell_angle_alpha    90.0
_cell_angle_beta     90.0
_cell_angle_gamma    90.0

_space_group_name_H-M_alt    "P 1"
_space_group_IT_number       1

loop_
  _space_group_symop_operation_xyz
  'x, y, z'

loop_
  _atom_site_type_symbol
  _atom_site_label
  _atom_site_symmetry_multiplicity
  _atom_site_fract_x
  _atom_site_fract_y
  _atom_site_fract_z
  _atom_site_occupancy
  Cd  Cd1       1.0  0.6027860316947198  0.2334082802118687  0.5612781350482337  1.0000
  Cd  Cd2       1.0  0.3972126712285586  0.7334094360463579  0.4387218649517663  1.0000
  Cd  Cd3       1.0  0.6027860316947198  0.7334094360463579  0.9387218649517666  1.0000
  Cd  Cd4       1.0  0.3972150674537929  0.2334082802118687  0.0612788049303319  1.0000
  H   H1        1.0  0.2237439363739213  0.23519405995041606  0.8521061093247582  1.0000
  H   H2        1.0  0.7762547665493571  0.7351940710543019  0.1478938906752418  1.0000
  H   H3        1.0  0.2237439363739213  0.7351929263236983  0.647893890675242  1.0000
  H   H4        1.0  0.7762547665493571  0.2351952046810197  0.3521074490889618  1.0000
  H   H5        1.0  0.8105591269206514  0.9801790118404908  0.6093167202572332  1.0000
  H   H6        1.0  0.1894407741152406  0.480179000736605  0.3906832797427668  1.0000
  H   H7        1.0  0.8105591269206514  0.480179000736605  0.8906826098606617  1.0000
  H   H8        1.0  0.1894419722278613  0.9801790118404908  0.1093173901393385  1.0000
  H   H9        1.0  0.6377026276119011  0.9163076231917485  0.6025207663451226  1.0000
  H   H10       1.0  0.362297273423998  0.4163076120878628  0.3974792336548774  1.0000
  H   H11       1.0  0.6377026276119011  0.4163076120878628  0.8974792336548776  1.0000
  H   H12       1.0  0.362297273423998  0.9163053337305412  0.1025207663451226  1.0000
  H   H13       1.0  0.6765035046244918  0.5912316058622691  0.7192972936763127  1.0000
  H   H14       1.0  0.3234963964114073  0.0912327394889871  0.2807020364415892  1.0000
  H   H15       1.0  0.6765047027371054  0.0912350289501873  0.7807020364415893  1.0000
  H   H16       1.0  0.3234951982987937  0.5912338953234766  0.21929863344051637  1.0000
  H   H17       1.0  0.8251796951523858  0.6760572881739151  0.651059753483388  1.0000
  H   H18       1.0  0.1748214039961269  0.17605842180063286  0.3489409163987105  1.0000
  H   H19       1.0  0.8251784970397722  0.17605956653122934  0.8489395766345142  1.0000
  H   H20       1.0  0.17482020588351324  0.6760572881739151  0.1510590836012895  1.0000
  H   H21       1.0  0.0204421974243871  0.5313049588667551  0.5585155412647398  1.0000
  H   H22       1.0  0.9795565054988984  0.0313083819546733  0.441483118971064  1.0000
  H   H23       1.0  0.0204421974243871  0.0313106714158806  0.9414844587352604  1.0000
  H   H24       1.0  0.979557703611512  0.5313072483279626  0.058515541264739616  1.0000
  H   H25       1.0  0.08402962820063918  0.3461379156689332  0.5884592711682759  1.0000
  H   H26       1.0  0.9159678766100257  0.8461425056952263  0.4115393890675208  1.0000
  H   H27       1.0  0.0840284300880256  0.8461436504258231  0.9115407288317243  1.0000
  H   H28       1.0  0.915972669060487  0.3461390603995298  0.08845927116827572  1.0000
  H   H29       1.0  0.4700794842022091  0.3516131621365446  0.7749464094319407  1.0000
  H   H30       1.0  0.5299192187210764  0.851614317971034  0.22505359056805935  1.0000
  H   H31       1.0  0.4700794842022091  0.851614317971034  0.7250529206859613  1.0000
  H   H32       1.0  0.5299192187210764  0.3516143068671411  0.274947079314039  1.0000
  H   H33       1.0  0.0693203996354583  0.058670877525521796  0.7443863879957109  1.0000
  H   H34       1.0  0.930678303287827  0.5586708886294076  0.2556136120042893  1.0000
  H   H35       1.0  0.0693215977480719  0.558669743898804  0.7556136120042893  1.0000
  H   H36       1.0  0.9306795014004405  0.058670877525521796  0.24438772775991424  1.0000
  H   H37       1.0  0.2462492837200543  0.0621428454402775  0.5868703108252975  1.0000
  H   H38       1.0  0.7537482210906177  0.5621451460053635  0.4131303590568081  1.0000
  H   H39       1.0  0.2462516799452814  0.5621451460053635  0.9131310289389063  1.0000
  H   H40       1.0  0.7537482210906177  0.06214170070967379  0.0868716505894938  1.0000
  C   C1        1.0  0.6119420082928428  0.6074249649529762  0.5800261254019292  1.0000
  C   C2        1.0  0.38806028896828326  0.10742609857969398  0.4199732047159728  1.0000
  C   C3        1.0  0.6119432064054564  0.10742724331029757  0.9199732047159728  1.0000
  C   C4        1.0  0.3880566946304356  0.6074249649529762  0.08002679528402723  1.0000
  C   C5        1.0  0.7362030599674938  0.5831383605087195  0.6535698017149019  1.0000
  C   C6        1.0  0.2637980391810189  0.08313949413543749  0.3464295284030001  1.0000
  C   C7        1.0  0.7362042580801074  0.08314292832724128  0.8464281886387965  1.0000
  C   C8        1.0  0.2637956429557917  0.583140649969927  0.15357114147909814  1.0000
  C   C9        1.0  0.9792857320480763  0.4125105406822413  0.5657100750267932  1.0000
  C   C10       1.0  0.0207141689878227  0.9125128412473342  0.4342879153269053  1.0000
  C   C11       1.0  0.9792845339354628  0.9125151307085346  0.9342899249732071  1.0000
  C   C12       1.0  0.0207153671004363  0.4125105406822413  0.0657094051446947  1.0000
  C   C13       1.0  0.9346045183247327  0.34773367012761003  0.4736803322615231  1.0000
  C   C14       1.0  0.0653941845985457  0.8477359706926961  0.5263176580921753  1.0000
  C   C15       1.0  0.9346045183247327  0.8477371154232997  0.026318997856378708  1.0000
  C   C16       1.0  0.06539658082378  0.34773367012761003  0.9736810021436215  1.0000
  C   C17       1.0  0.3864236671372083  0.2733685360536881  0.7436247320471596  1.0000
  C   C18       1.0  0.6135750357860701  0.7733674024269772  0.2563745980707424  1.0000
  C   C19       1.0  0.3864236671372083  0.7733674024269772  0.7563752679528406  1.0000
  C   C20       1.0  0.6135750357860701  0.2733685360536881  0.2436254019292576  1.0000
  C   C21       1.0  0.17698639349008255  0.121230404904793  0.7266097266881033  1.0000
  C   C22       1.0  0.8230135075458165  0.6212338502004824  0.27339161307610044  1.0000
  C   C23       1.0  0.17698759160269617  0.6212327054698861  0.7733922829581986  1.0000
  C   C24       1.0  0.8230135075458165  0.12123383909659678  0.22660972668810336  1.0000
  C   C25       1.0  0.2646163500965528  0.12430629603138499  0.6485852090032154  1.0000
  C   C26       1.0  0.7353835509393463  0.6243097413270745  0.35141546087888303  1.0000
  C   C27       1.0  0.2646163500965528  0.624310886057678  0.8514161307609884  1.0000
  C   C28       1.0  0.7353835509393463  0.1243085854925852  0.1485858788853136  1.0000
  S   S1        1.0  0.8371452458309321  0.3998944647216405  0.6574665058949591  1.0000
  S   S2        1.0  0.1628534570923534  0.8998956205561299  0.3425334941050409  1.0000
  S   S3        1.0  0.8371464439435456  0.89989791001733  0.8425334941050411  1.0000
  S   S4        1.0  0.1628534570923534  0.3998944647216405  0.1574665058949591  1.0000
  N   N1        1.0  0.3951483231942063  0.21977911766882127  0.6599839228295823  1.0000
  N   N2        1.0  0.6048491816164656  0.7197814182339073  0.3400160771704179  1.0000
  N   N3        1.0  0.3951495213068199  0.7197825629645109  0.8400167470525162  1.0000
  N   N4        1.0  0.6048503797290792  0.21978026239941775  0.15998459271168036  1.0000
  N   N5        1.0  0.2563421843825253  0.215539035520365  0.7856062433011815  1.0000
  N   N6        1.0  0.7436565185407602  0.7155390466242577  0.2143930868167203  1.0000
  N   N7        1.0  0.2563433824951389  0.7155379018936543  0.7143937566988188  1.0000
  N   N8        1.0  0.7436565185407602  0.2155401802509687  0.2856069131832797  1.0000
  O   O1        1.0  0.559078883526773  0.4978776805684575  0.5335155412647339  1.0000
  O   O2        1.0  0.4409222156217396  0.9978776916723433  0.46648445873526617  1.0000
  O   O3        1.0  0.5590812797520002  0.9978776916723433  0.966483788853161  1.0000
  O   O4        1.0  0.4409186212838989  0.4978765358378539  0.03351688102893751  1.0000
  O   O5        1.0  0.5636760416276585  0.7448006502632083  0.5680298767416903  1.0000
  O   O6        1.0  0.4363250575208539  0.24480063915932246  0.4319694533762046  1.0000
  O   O7        1.0  0.5636760416276585  0.2448017838899261  0.93197012325831  1.0000
  O   O8        1.0  0.43632266129562675  0.7447995055326118  0.0680305466237954  1.0000
  O   O9        1.0  0.8197798015999423  0.2508551193113604  0.4657723740621621  1.0000
  O   O10       1.0  0.1802177032107224  0.7508574198764534  0.5342262861736345  1.0000
  O   O11       1.0  0.8197821978251767  0.7508562751458498  0.0342269560557327  1.0000
  O   O12       1.0  0.180218901323336  0.2508528298501602  0.9657730439442676  1.0000
  O   O13       1.0  0.0198455373424906  0.3877259784262748  0.4083159163987133  1.0000
  O   O14       1.0  0.9801519674681813  0.8877282789913677  0.5916827438370831  1.0000
  O   O15       1.0  0.0198467354551042  0.8877259895301606  0.09168408360128673  1.0000
  O   O16       1.0  0.9801543636934085  0.3877213995038673  0.9083152465166153  1.0000
  O   O17       1.0  0.6973554565629527  0.007757839287272399  0.6247474544480198  1.0000
  O   O18       1.0  0.3026444444729464  0.507757850391158  0.37525321543408563  1.0000
  O   O19       1.0  0.6973566546755663  0.5077589951217618  0.8752525455519804  1.0000
  O   O20       1.0  0.3026444444729464  0.0077566945566687  0.12474745444801982  1.0000
