data_image0
_chemical_formula_structural       Cd4H16C32N16O16
_chemical_formula_sum              "Cd4 H16 C32 N16 O16"
_cell_length_a       7.321819820476992
_cell_length_b       11.841492082782556
_cell_length_c       12.186575228798906
_cell_angle_alpha    84.6726291043656
_cell_angle_beta     72.51827366700343
_cell_angle_gamma    71.98978203746297

_space_group_name_H-M_alt    "P 1"
_space_group_IT_number       1

loop_
  _space_group_symop_operation_xyz
  'x, y, z'

loop_
  _atom_site_type_symbol
  _atom_site_label
  _atom_site_symmetry_multiplicity
  _atom_site_fract_x
  _atom_site_fract_y
  _atom_site_fract_z
  _atom_site_occupancy
  Cd  Cd1       1.0  0.7795365041703237  0.6705381013172697  0.023369166431827185  1.0000
  Cd  Cd2       1.0  0.4731507057861537  0.3294720654634276  0.9766768466747848  1.0000
  Cd  Cd3       1.0  0.1997229290877771  0.8295760847187806  0.5232562950579762  1.0000
  Cd  Cd4       1.0  0.5525092746714437  0.17048011299964824  0.476733729463909  1.0000
  H   H1        1.0  0.6433181286351516  0.8631201897923687  0.4316650006023294  1.0000
  H   H2        1.0  0.9382669002272338  0.1368430589066065  0.5684193398218013  1.0000
  H   H3        1.0  0.2572355367630621  0.6366787320077946  0.9312582702623118  1.0000
  H   H4        1.0  0.8250963369723439  0.3633047816893722  0.06866896996421439  1.0000
  H   H5        1.0  0.09685594651301001  0.8311031300263207  0.11417732408104089  1.0000
  H   H6        1.0  0.04199300782271126  0.16898162360832455  0.8859433665110855  1.0000
  H   H7        1.0  0.6781162814116616  0.6692834264343333  0.6137056658215839  1.0000
  H   H8        1.0  0.9612972121453326  0.3306383714358105  0.3861308545596954  1.0000
  H   H9        1.0  0.9635217162365636  0.9117975409432332  0.31914696338819937  1.0000
  H   H10       1.0  0.1944155070708787  0.08830418419098858  0.6809869833746021  1.0000
  H   H11       1.0  0.6259261993653453  0.58836795537119  0.818611208975497  1.0000
  H   H12       1.0  0.03289130585267939  0.411578208131786  0.1812203207200724  1.0000
  H   H13       1.0  0.08862723520643111  0.530644497673151  0.2990673990811743  1.0000
  H   H14       1.0  0.9183053139054278  0.46943214776784  0.7008165658970499  1.0000
  H   H15       1.0  0.36928366095560944  0.9693873308572452  0.7992332362498331  1.0000
  H   H16       1.0  0.1377136809420421  0.030685616094615394  0.200816879661339  1.0000
  C   C1        1.0  0.3638852329803298  0.5232021931291159  0.14632283904528254  1.0000
  C   C2        1.0  0.033354364435183595  0.47680706591542327  0.8536488472936837  1.0000
  C   C3        1.0  0.6368921583717441  0.9767408656723118  0.6464522203775402  1.0000
  C   C4        1.0  0.2600280354324056  0.02327920226922939  0.35358637175512797  1.0000
  C   C5        1.0  0.3980987447491343  0.5996966839472293  0.22216358701709982  1.0000
  C   C6        1.0  0.21987322265789547  0.40035202440342477  0.7778141599986839  1.0000
  C   C7        1.0  0.7477831206711728  0.9002597858499469  0.7222013400820159  1.0000
  C   C8        1.0  0.3702672451821697  0.09967984697811968  0.2777779150647177  1.0000
  C   C9        1.0  0.2830297020300065  0.6454891088957666  0.33257110120469235  1.0000
  C   C10       1.0  0.2610927430582847  0.3546065396867987  0.6673783223244456  1.0000
  C   C11       1.0  0.6787109803067469  0.8545501405974959  0.8326704267327472  1.0000
  C   C12       1.0  0.3658036162378764  0.14545863015139562  0.16734658319524695  1.0000
  C   C13       1.0  0.09065471370851715  0.6361444613009581  0.41046303240698734  1.0000
  C   C14       1.0  0.13726722400516433  0.3638612237197945  0.5895094292143597  1.0000
  C   C15       1.0  0.47701980443358144  0.8638552458207301  0.9105877589972947  1.0000
  C   C16       1.0  0.2513638874855247  0.13613015975308673  0.08942399048429907  1.0000
  C   C17       1.0  0.5432384735089428  0.7103446019612463  0.27676469135321463  1.0000
  C   C18       1.0  0.5302590352052833  0.28963012500881286  0.723266505211491  1.0000
  C   C19       1.0  0.003759220350388962  0.7896447213505555  0.7766701231314669  1.0000
  C   C20       1.0  0.5700409680375103  0.2103298529663177  0.22330266834117646  1.0000
  C   C21       1.0  0.6924321024313898  0.7699353073319698  0.2671527004394959  1.0000
  C   C22       1.0  0.7293988817888177  0.22998253261209098  0.7329365531748735  1.0000
  C   C23       1.0  0.21262603408869288  0.7300553176522726  0.7669095143894964  1.0000
  C   C24       1.0  0.70952671360498  0.2699458396303384  0.23304358916042384  1.0000
  C   C25       1.0  0.7236364210182842  0.8357428301311954  0.3437254376241583  1.0000
  C   C26       1.0  0.9030811922785202  0.16421817542303777  0.6563811097298213  1.0000
  C   C27       1.0  0.30991232775624417  0.6641992415630966  0.8433443609607492  1.0000
  C   C28       1.0  0.817392479727623  0.3357767021696887  0.1565740773752963  1.0000
  C   C29       1.0  0.9627395970116485  0.8201959596724107  0.1777510694704816  1.0000
  C   C30       1.0  0.9605461638436806  0.17984278150442634  0.8223698689039195  1.0000
  C   C31       1.0  0.5331651306590577  0.6800244845942273  0.6773292043279752  1.0000
  C   C32       1.0  0.8906346385586662  0.3199066513929125  0.32254771259397325  1.0000
  N   N1        1.0  0.561230583509868  0.6409222613927951  0.18972267398491027  1.0000
  N   N2        1.0  0.39175021651931274  0.3590270741039845  0.8103052036289496  1.0000
  N   N3        1.0  0.9521393965834478  0.8589822736201425  0.6896412948583901  1.0000
  N   N4        1.0  0.5008861138991564  0.14091126495517156  0.3103023023067379  1.0000
  N   N5        1.0  0.376703620057967  0.715384472941622  0.36484842618583707  1.0000
  N   N6        1.0  0.4569300687270895  0.28468775298156146  0.6351132495697058  1.0000
  N   N7        1.0  0.8423767742258335  0.7847242068758576  0.8649156397004489  1.0000
  N   N8        1.0  0.49175987692554185  0.21535526785275033  0.13513763179511068  1.0000
  N   N9        1.0  0.8435336818096818  0.7613025199032252  0.1637122476121035  1.0000
  N   N10       1.0  0.7683641014673979  0.2386506471688961  0.8363912851017687  1.0000
  N   N11       1.0  0.35493253350882276  0.738833524442519  0.6634224918361012  1.0000
  N   N12       1.0  0.7572377292443094  0.2611390241354171  0.3364987821401185  1.0000
  N   N13       1.0  0.8935990332554483  0.8660580212187058  0.28576544055328407  1.0000
  N   N14       1.0  0.04535996830836822  0.1339926924139121  0.7143564029869509  1.0000
  N   N15       1.0  0.5101559634871012  0.6340443707683721  0.7852849483682576  1.0000
  N   N16       1.0  0.9295202634468824  0.3658874886383642  0.21458503712101165  1.0000
  O   O1        1.0  0.4884003461617611  0.497474076788194  0.04664368490902859  1.0000
  O   O2        1.0  0.03247769675476775  0.5023651835256829  0.9533847838042178  1.0000
  O   O3        1.0  0.7355600222497927  0.002432661041041199  0.5467224676579363  1.0000
  O   O4        1.0  0.28463333212447856  0.9976793696945165  0.4533379594781266  1.0000
  O   O5        1.0  0.2104936883742498  0.4850206520901991  0.1844377444137422  1.0000
  O   O6        1.0  0.8799561207858562  0.5151528085012628  0.8155023340251971  1.0000
  O   O7        1.0  0.4453414691639496  0.015043004675547398  0.6846511294802154  1.0000
  O   O8        1.0  0.1448008215630951  0.9850708175354369  0.3154484849440706  1.0000
  O   O9        1.0  0.002778250895993012  0.5676982732823532  0.37998210058201204  1.0000
  O   O10       1.0  0.9503836115729387  0.4322350756751305  0.6199989575272653  1.0000
  O   O11       1.0  0.32062581904187926  0.9322088389134108  0.8801268516532443  1.0000
  O   O12       1.0  0.1328084529835962  0.06781493526088408  0.11992647732011359  1.0000
  O   O13       1.0  0.011451696651725778  0.6935458490107038  0.5023693980847881  1.0000
  O   O14       1.0  0.20736648908701483  0.3063888914147199  0.4976423419312894  1.0000
  O   O15       1.0  0.4553342595275753  0.8064015784866568  0.002467713676601525  1.0000
  O   O16       1.0  0.26428975673303523  0.1934578212965618  0.997462050873814  1.0000
