data_image0
_chemical_formula_structural       Cu16H96W4C144S16N72Cl8
_chemical_formula_sum              "Cu16 H96 W4 C144 S16 N72 Cl8"
_cell_length_a       13.998949631049904
_cell_length_b       20.12226080324892
_cell_length_c       20.122232919287747
_cell_angle_alpha    105.67805665382933
_cell_angle_beta     90.0012399785579
_cell_angle_gamma    89.99978706127716

_space_group_name_H-M_alt    "P 1"
_space_group_IT_number       1

loop_
  _space_group_symop_operation_xyz
  'x, y, z'

loop_
  _atom_site_type_symbol
  _atom_site_label
  _atom_site_symmetry_multiplicity
  _atom_site_fract_x
  _atom_site_fract_y
  _atom_site_fract_z
  _atom_site_occupancy
  Cu  Cu1       1.0  0.827152721972297  0.22383533753287568  0.11130172601927056  1.0000
  Cu  Cu2       1.0  0.8269214192616943  0.2762256964145421  0.3885734140621152  1.0000
  Cu  Cu3       1.0  0.6730790552628959  0.8885828100193719  0.776223210042623  1.0000
  Cu  Cu4       1.0  0.6728663438449445  0.611309599645061  0.7238376263231671  1.0000
  Cu  Cu5       1.0  0.1728366766155247  0.77617291333938  0.8886899655116807  1.0000
  Cu  Cu6       1.0  0.17306440764448888  0.7237691949961229  0.6114188286248206  1.0000
  Cu  Cu7       1.0  0.32693605971284273  0.11142254485226033  0.22378115865308246  1.0000
  Cu  Cu8       1.0  0.3271573431635773  0.3886915965983846  0.2761636882526516  1.0000
  Cu  Cu9       1.0  0.8154443827380788  0.11465704737214105  0.24194244659290823  1.0000
  Cu  Cu10      1.0  0.8156973240029474  0.3854912990669135  0.25796084632909094  1.0000
  Cu  Cu11      1.0  0.6843021600238188  0.7579787511085668  0.8855030872292314  1.0000
  Cu  Cu12      1.0  0.6845628171809538  0.7419511908148948  0.6146615021527849  1.0000
  Cu  Cu13      1.0  0.18454573027651827  0.8853374096820805  0.7580551519327442  1.0000
  Cu  Cu14      1.0  0.18429350313324017  0.6144998309101978  0.74202049180694  1.0000
  Cu  Cu15      1.0  0.31571438362454535  0.24202453931372503  0.11450075222155216  1.0000
  Cu  Cu16      1.0  0.31543872523347727  0.25805866785304926  0.3853345777818403  1.0000
  H   H1        1.0  0.8312319152110988  0.263620149140138  0.9827310821108879  1.0000
  H   H2        1.0  0.8311142078544976  0.23650805215316245  0.5172579288595072  1.0000
  H   H3        1.0  0.6688858335444009  0.0172693438385636  0.7365101566918708  1.0000
  H   H4        1.0  0.6687595018884238  0.48274184416824545  0.7636279966110705  1.0000
  H   H5        1.0  0.16875891220792033  0.7363805532885267  0.01727159662985398  1.0000
  H   H6        1.0  0.16887733381328474  0.7634868912839321  0.48273780631386376  1.0000
  H   H7        1.0  0.33112642405390597  0.9827359887360245  0.2634927152204582  1.0000
  H   H8        1.0  0.33123918329822294  0.5172733019731196  0.2363778880764896  1.0000
  H   H9        1.0  0.7360539181864921  0.3356184678890414  0.9222996888050897  1.0000
  H   H10       1.0  0.7360093576604996  0.16451591869504512  0.5777230835901149  1.0000
  H   H11       1.0  0.7639941061654271  0.077728211452424  0.6645142578404728  1.0000
  H   H12       1.0  0.7639340768579429  0.42230549703305803  0.8356188648687704  1.0000
  H   H13       1.0  0.263946195639825  0.6643878894780145  0.07770294871267676  1.0000
  H   H14       1.0  0.26398361268813636  0.8354774838374013  0.4222727535722867  1.0000
  H   H15       1.0  0.23602100880583524  0.9222802252284552  0.33548990690149333  1.0000
  H   H16       1.0  0.23605246458886597  0.5777055648040064  0.16438895471927845  1.0000
  H   H17       1.0  0.5185047695749178  0.3509634968896406  0.07879066339540934  1.0000
  H   H18       1.0  0.5184030705281941  0.14906248237921457  0.4212794744323459  1.0000
  H   H19       1.0  0.9815847517961062  0.9212803839789389  0.649061202048955  1.0000
  H   H20       1.0  0.9814998057976326  0.5787905241762487  0.8509770955220542  1.0000
  H   H21       1.0  0.4814903438215908  0.6490355977431008  0.9212076270815783  1.0000
  H   H22       1.0  0.4815898997860586  0.8509375701546202  0.5787140914581312  1.0000
  H   H23       1.0  0.018417505025659895  0.0787182317031707  0.3509394507730049  1.0000
  H   H24       1.0  0.018506737181894602  0.42120153812508226  0.14903231456416674  1.0000
  H   H25       1.0  0.6250221201861806  0.28232757644443746  0.13428102336211364  1.0000
  H   H26       1.0  0.6248416963475663  0.21767732013057636  0.3657219061593294  1.0000
  H   H27       1.0  0.8751491524634005  0.8657291255453927  0.7176834784438524  1.0000
  H   H28       1.0  0.8749865710331121  0.6342891569880891  0.7823405073024856  1.0000
  H   H29       1.0  0.37496299243231584  0.7176689153297315  0.8657151086993121  1.0000
  H   H30       1.0  0.3751498453381715  0.7823191865082179  0.6342752237962157  1.0000
  H   H31       1.0  0.12485739039873069  0.13427566861987122  0.2823177643464944  1.0000
  H   H32       1.0  0.125032830114634  0.3657168626429906  0.2176739721375965  1.0000
  H   H33       1.0  0.49813199703224603  0.5080772299000742  0.7866499140875758  1.0000
  H   H34       1.0  0.49825288970281884  0.9918986643355084  0.7133861064113345  1.0000
  H   H35       1.0  0.0017423677587374003  0.2133867730147401  0.4918940431970993  1.0000
  H   H36       1.0  0.0018750896879851002  0.2866372626803154  0.008070371736891986  1.0000
  H   H37       1.0  0.5018702597813061  0.4919254923835793  0.2133503004895018  1.0000
  H   H38       1.0  0.5017350803440196  0.008106137262373596  0.2866156351405208  1.0000
  H   H39       1.0  0.9982556029209705  0.7866168700082456  0.508098952176823  1.0000
  H   H40       1.0  0.998138596609806  0.7133521447356869  0.9919333876420137  1.0000
  H   H41       1.0  0.38998021763123353  0.5711169367526949  0.7294137236737298  1.0000
  H   H42       1.0  0.39020487649841584  0.9287812909498854  0.7705836451197993  1.0000
  H   H43       1.0  0.10978887563623371  0.2705814678688085  0.42877557160835517  1.0000
  H   H44       1.0  0.11003337327485241  0.22940486543956243  0.07111044375612607  1.0000
  H   H45       1.0  0.6100184673682776  0.4288753666637888  0.2705773586316765  1.0000
  H   H46       1.0  0.6097809505694016  0.07122303912985471  0.2294209576176128  1.0000
  H   H47       1.0  0.8902119524298797  0.7294206639789492  0.571219521445492  1.0000
  H   H48       1.0  0.8899953140683651  0.7705823957709727  0.9288872983769848  1.0000
  H   H49       1.0  0.16509512989978248  0.5581544016488565  0.8610449107563409  1.0000
  H   H50       1.0  0.16522549918354912  0.9417814796738423  0.6390253751737587  1.0000
  H   H51       1.0  0.33477529049371674  0.1390354382982366  0.4417956054553257  1.0000
  H   H52       1.0  0.33490713922545007  0.36105155708759895  0.05815633131122407  1.0000
  H   H53       1.0  0.8349056981910151  0.44184930083295626  0.13895207599935586  1.0000
  H   H54       1.0  0.8347724715387487  0.05821140674621009  0.360970329716963  1.0000
  H   H55       1.0  0.6652291094283312  0.8609776731231733  0.5582117457025432  1.0000
  H   H56       1.0  0.665097260816303  0.6389611720039524  0.9418598680866094  1.0000
  H   H57       1.0  0.26407344277503597  0.49351176906841937  0.9240559250003882  1.0000
  H   H58       1.0  0.26415402163122087  0.006468697174185  0.5760485692926025  1.0000
  H   H59       1.0  0.23584449096148316  0.0760615342708206  0.5064842226559633  1.0000
  H   H60       1.0  0.23592659331947627  0.424056135136169  0.9935113278839648  1.0000
  H   H61       1.0  0.7359316713276627  0.506488305762325  0.07593913775255602  1.0000
  H   H62       1.0  0.7358396630761846  0.9935267846722837  0.42394879497232535  1.0000
  H   H63       1.0  0.7641591946354893  0.9239541651446  0.49352428898685446  1.0000
  H   H64       1.0  0.7640720919553985  0.5759477903164482  0.006500626443880718  1.0000
  H   H65       1.0  0.8990522574830065  0.9720863377742716  0.2373206848701556  1.0000
  H   H66       1.0  0.8994835916646339  0.5278548093828306  0.2624730440883666  1.0000
  H   H67       1.0  0.6005021469910475  0.7624755550485888  0.027855308289211705  1.0000
  H   H68       1.0  0.6009510502014663  0.7373363668706147  0.4720935428338818  1.0000
  H   H69       1.0  0.1009521422699109  0.027914754416421796  0.7626736446658879  1.0000
  H   H70       1.0  0.1005136647752352  0.4721437988669876  0.7375271097713278  1.0000
  H   H71       1.0  0.399492251995092  0.23752449005286985  0.9721377586937547  1.0000
  H   H72       1.0  0.39902906229331586  0.2626773795812127  0.5279219231462873  1.0000
  H   H73       1.0  0.0487285116766714  0.9098862122098265  0.1856230960637432  1.0000
  H   H74       1.0  0.0491597445740481  0.5900393944217015  0.31421577675484247  1.0000
  H   H75       1.0  0.45082672808382535  0.8142128903598119  0.09003442979517465  1.0000
  H   H76       1.0  0.4512761524479388  0.6856326606402945  0.40989116834995787  1.0000
  H   H77       1.0  0.9512773168169417  0.09011083283817099  0.8143756630867854  1.0000
  H   H78       1.0  0.9508339402365849  0.4099546580055247  0.6857891732821597  1.0000
  H   H79       1.0  0.549161956101031  0.1857803709578789  0.9099519278568096  1.0000
  H   H80       1.0  0.5487082460579984  0.31437951517741414  0.5901224039648623  1.0000
  H   H81       1.0  0.0823278363197417  0.06266426519334799  0.0725966631736696  1.0000
  H   H82       1.0  0.0824459986524033  0.4374105595202734  0.42743085288395816  1.0000
  H   H83       1.0  0.41755275300552347  0.9274314232246751  0.9374045888696042  1.0000
  H   H84       1.0  0.4176857581025288  0.5725932107887601  0.5626574643355653  1.0000
  H   H85       1.0  0.9176879929766031  0.9373415834935199  0.9274063410833473  1.0000
  H   H86       1.0  0.9175426857269714  0.5625849743527809  0.5725700037761428  1.0000
  H   H87       1.0  0.5824402172204158  0.07256132941298428  0.06258213542428588  1.0000
  H   H88       1.0  0.5823164988501617  0.42740657833282825  0.4373529325888511  1.0000
  H   H89       1.0  0.9327030504770236  0.11760028193044998  0.12665410939960248  1.0000
  H   H90       1.0  0.9328162423187366  0.38249417176464817  0.37336112069085897  1.0000
  H   H91       1.0  0.5671875541343  0.8733680320419949  0.8825023455959735  1.0000
  H   H92       1.0  0.5673091240628096  0.6266499445153356  0.6175988206986601  1.0000
  H   H93       1.0  0.0673070641744218  0.8824041001754638  0.8733539859824119  1.0000
  H   H94       1.0  0.0671774423422562  0.6174945708921271  0.6266325278098319  1.0000
  H   H95       1.0  0.43281113092285045  0.12663256633352662  0.11749334833616835  1.0000
  H   H96       1.0  0.43269956187409514  0.37335131118720005  0.3824064851068413  1.0000
  W   W1        1.0  0.8238821912260051  0.25006336819030395  0.24995118378454606  1.0000
  W   W2        1.0  0.6761161501618106  0.7499601105283987  0.7500665643646015  1.0000
  W   W3        1.0  0.1761072073617527  0.7499309922432574  0.7500399287791806  1.0000
  W   W4        1.0  0.32389110699699586  0.25004617994732575  0.24993158293688109  1.0000
  C   C1        1.0  0.7620291863346438  0.2852954132330651  0.0022487868125082877  1.0000
  C   C2        1.0  0.7619066214130826  0.21482108197825767  0.4977587463349378  1.0000
  C   C3        1.0  0.7380894713491414  0.9977699465240163  0.7148237720287084  1.0000
  C   C4        1.0  0.7379671189286227  0.5022565952242816  0.7853033748634175  1.0000
  C   C5        1.0  0.23796235535856874  0.7146990438211346  0.9977488117253086  1.0000
  C   C6        1.0  0.23808206289072587  0.7851738540265174  0.5022364898944146  1.0000
  C   C7        1.0  0.2619235006251301  0.0022364554370141987  0.2851818591166405  1.0000
  C   C8        1.0  0.26203799536038724  0.4977498587633704  0.21470574865276854  1.0000
  C   C9        1.0  0.7083253250282482  0.3241682015641273  0.9684898640383035  1.0000
  C   C10       1.0  0.7082466446682643  0.17594100777548502  0.5315334361533955  1.0000
  C   C11       1.0  0.7917592265652542  0.031541479360313894  0.6759464244236992  1.0000
  C   C12       1.0  0.7916709775462608  0.4684951169187315  0.8241739951108327  1.0000
  C   C13       1.0  0.29167621743177813  0.6758319327255363  0.03150919004166041  1.0000
  C   C14       1.0  0.2917498973507193  0.8240503080105271  0.46846037502330506  1.0000
  C   C15       1.0  0.2082508880390606  0.968462850719085  0.32405817852055907  1.0000
  C   C16       1.0  0.2083262790163261  0.53150877137211  0.17583546460645036  1.0000
  C   C17       1.0  0.6187139525235922  0.3487343975098227  0.9954792622883982  1.0000
  C   C18       1.0  0.6186388572083461  0.1513419433735805  0.5045793128216259  1.0000
  C   C19       1.0  0.8813563458028498  0.004581469791389699  0.651340326793523  1.0000
  C   C20       1.0  0.8812851604577644  0.49548018636783536  0.8487383427645836  1.0000
  C   C21       1.0  0.38128473256423223  0.6512652058028364  0.0045186616136020765  1.0000
  C   C22       1.0  0.3813526844519615  0.848655049648109  0.49541595376946646  1.0000
  C   C23       1.0  0.11865091141579141  0.995422314446287  0.34866214813340685  1.0000
  C   C24       1.0  0.1187163821226918  0.5045175085750202  0.15126952921794865  1.0000
  C   C25       1.0  0.5874696448941421  0.333155870601189  0.055920427298332194  1.0000
  C   C26       1.0  0.5873556853608335  0.1669059224473486  0.44413919249534917  1.0000
  C   C27       1.0  0.9126340926201594  0.9441412344756798  0.6669088738309836  1.0000
  C   C28       1.0  0.9125336894940761  0.5559230371874618  0.8331658114075111  1.0000
  C   C29       1.0  0.41252475414136575  0.6668426856221641  0.9440762340992702  1.0000
  C   C30       1.0  0.4126358563159371  0.8330921176637177  0.5558573365636403  1.0000
  C   C31       1.0  0.0873753076268784  0.055861532402026584  0.3330943343250183  1.0000
  C   C32       1.0  0.08746785315221221  0.4440742159666512  0.16684691745755484  1.0000
  C   C33       1.0  0.6465730911912358  0.29499611717559304  0.08697022895709947  1.0000
  C   C34       1.0  0.6464268191031765  0.2050564023465711  0.4130547203257037  1.0000
  C   C35       1.0  0.8535694794436137  0.9130637060387555  0.7050625446664326  1.0000
  C   C36       1.0  0.8534294368390293  0.5869763545877974  0.795007908917803  1.0000
  C   C37       1.0  0.353411307084194  0.7049967692446515  0.9130254758180241  1.0000
  C   C38       1.0  0.35356972294276545  0.794939573315105  0.5869412795187896  1.0000
  C   C39       1.0  0.14643849212257723  0.0869406017435992  0.29494056150053166  1.0000
  C   C40       1.0  0.14657996346111452  0.41302389861950667  0.20499912794396374  1.0000
  C   C41       1.0  0.5593447278882451  0.3896003762656051  0.9612743672838847  1.0000
  C   C42       1.0  0.5593298923895489  0.1104664945954923  0.5388031345012506  1.0000
  C   C43       1.0  0.9406673676326777  0.038805211600610796  0.6104723948932997  1.0000
  C   C44       1.0  0.9406537569455152  0.4612717776254769  0.8896012764508396  1.0000
  C   C45       1.0  0.4406596720240615  0.6104070653525611  0.03873202733668531  1.0000
  C   C46       1.0  0.4406637922422689  0.8895237592364678  0.46118841634385166  1.0000
  C   C47       1.0  0.0593370321972841  0.9611923644244555  0.3895274943986847  1.0000
  C   C48       1.0  0.059342070949661305  0.538729036288501  0.11040888612768637  1.0000
  C   C49       1.0  0.45230223207713044  0.4580716548286717  0.8979416521609449  1.0000
  C   C50       1.0  0.45238204742943106  0.04192565533910649  0.6021236485142863  1.0000
  C   C51       1.0  0.047618690427064805  0.10213386439999539  0.541942841138656  1.0000
  C   C52       1.0  0.0476977214796008  0.39793577137135827  0.958068996590654  1.0000
  C   C53       1.0  0.5477014534457326  0.5419347025383344  0.10206098538724008  1.0000
  C   C54       1.0  0.5476116371342741  0.9580573208937508  0.3978625574932692  1.0000
  C   C55       1.0  0.9523849950538832  0.8978673021142995  0.4580564775881084  1.0000
  C   C56       1.0  0.9523052497734811  0.6020598591221641  0.04193834614696354  1.0000
  C   C57       1.0  0.390468501673034  0.49484695750443575  0.8609643755219307  1.0000
  C   C58       1.0  0.39058364460682776  0.005103105736750999  0.6390688726765389  1.0000
  C   C59       1.0  0.1094192378309913  0.13908109524091827  0.5051185467280419  1.0000
  C   C60       1.0  0.10953073494973613  0.3609626249833154  0.9948459512913526  1.0000
  C   C61       1.0  0.609531612042538  0.5051536185739848  0.13902982166333536  1.0000
  C   C62       1.0  0.6094071826789857  0.9948887038645892  0.36092357400671904  1.0000
  C   C63       1.0  0.8905851619885469  0.8609267584365484  0.4948809953312788  1.0000
  C   C64       1.0  0.8904715219797552  0.6390361096165404  0.005162684245483607  1.0000
  C   C65       1.0  0.42503104474790376  0.5173775911915827  0.8052904384582432  1.0000
  C   C66       1.0  0.42517716016528334  0.9825397242578192  0.6947119234052009  1.0000
  C   C67       1.0  0.07482130630654642  0.19471947730824007  0.48255136274963917  1.0000
  C   C68       1.0  0.07497640365424021  0.30528074413623324  0.017368928351956477  1.0000
  C   C69       1.0  0.5749697833271767  0.48262300718391066  0.19470525549215267  1.0000
  C   C70       1.0  0.5748158102028071  0.017455757588656695  0.3052854408536446  1.0000
  C   C71       1.0  0.925175950126615  0.805283753655452  0.5174484851794502  1.0000
  C   C72       1.0  0.9250372826173815  0.6947112066796065  0.9826329979999  1.0000
  C   C73       1.0  0.3641624457699777  0.5530363338320327  0.7726377220299125  1.0000
  C   C74       1.0  0.36434519993332515  0.94686929854074  0.7273730331175228  1.0000
  C   C75       1.0  0.13564965585026556  0.22737895336443598  0.4468783009820994  1.0000
  C   C76       1.0  0.13584575595570672  0.27263500074129604  0.05303312822889687  1.0000
  C   C77       1.0  0.6358362393036358  0.44696531163286585  0.22735923437012664  1.0000
  C   C78       1.0  0.6356470560939657  0.05312566719342019  0.27262419882096367  1.0000
  C   C79       1.0  0.8643490292473076  0.7726263197514669  0.5531205794572001  1.0000
  C   C80       1.0  0.8641693590888408  0.727366314420017  0.9469761689888043  1.0000
  C   C81       1.0  0.2391604906948146  0.5455652319589106  0.8460040625447929  1.0000
  C   C82       1.0  0.23930482438599657  0.9543405715670942  0.6540503313785634  1.0000
  C   C83       1.0  0.2606970367652793  0.15406533821340668  0.4543583226260138  1.0000
  C   C84       1.0  0.26084070642056634  0.34601050128897987  0.0455681202997482  1.0000
  C   C85       1.0  0.7608389086784514  0.4544343118948716  0.15398987000585143  1.0000
  C   C86       1.0  0.7606895746434928  0.04565129006071799  0.3459456077728759  1.0000
  C   C87       1.0  0.7393059344609583  0.8459487831356042  0.5456477963891899  1.0000
  C   C88       1.0  0.7391651222107499  0.6539969849233173  0.9544412678510737  1.0000
  C   C89       1.0  0.29496874529498746  0.5094891149228999  0.8812524983373532  1.0000
  C   C90       1.0  0.29506922676722513  0.9904654394407686  0.6188312487812835  1.0000
  C   C91       1.0  0.20493407483477455  0.11884656421368327  0.49048663141336135  1.0000
  C   C92       1.0  0.2050338696706007  0.38124896015779086  0.009483171595377383  1.0000
  C   C93       1.0  0.705034225872126  0.4905208255009796  0.11874906972592206  1.0000
  C   C94       1.0  0.7049251721941729  0.0095237747341699  0.38115953852167905  1.0000
  C   C95       1.0  0.7950724680827435  0.8811634356690164  0.5095189280377709  1.0000
  C   C96       1.0  0.7949662442806514  0.6187565061994392  0.9905286807677668  1.0000
  C   C97       1.0  0.9419956852048089  0.9902055095286355  0.2004133342442315  1.0000
  C   C98       1.0  0.9423673183468607  0.5097673910007501  0.2994419500155202  1.0000
  C   C99       1.0  0.5576250938545969  0.799448521611623  0.009772666615596337  1.0000
  C   C100      1.0  0.5580116652673297  0.7004225356045879  0.4902104942538798  1.0000
  C   C101      1.0  0.0580087146214439  0.0097977214349569  0.7995865137456946  1.0000
  C   C102      1.0  0.05763136677010999  0.49022607099049503  0.7005578785529918  1.0000
  C   C103      1.0  0.4423735911883498  0.2005541189161306  0.9902220598145843  1.0000
  C   C104      1.0  0.44198416269971835  0.2995891612624248  0.509805440442413  1.0000
  C   C105      1.0  0.024640067000589697  0.9559712992305549  0.17206153796723095  1.0000
  C   C106      1.0  0.0249938549999271  0.5439943534501667  0.32780756779229847  1.0000
  C   C107      1.0  0.47499148326109253  0.8278119352213196  0.04399450702777593  1.0000
  C   C108      1.0  0.4753735901655602  0.672065057516086  0.45597137186479825  1.0000
  C   C109      1.0  0.9753650471978689  0.0440293957655413  0.827940641975509  1.0000
  C   C110      1.0  0.9750019728032059  0.45600018535992587  0.6721955188984976  1.0000
  C   C111      1.0  0.5250007726330354  0.17218339797798873  0.9559928788313811  1.0000
  C   C112      1.0  0.5246250950786404  0.32793986299939354  0.5440383524931888  1.0000
  C   C113      1.0  0.07833917860595109  0.98271427584244  0.1263955377736678  1.0000
  C   C114      1.0  0.07860636705864718  0.5172890226848351  0.3735512303902622  1.0000
  C   C115      1.0  0.4213906470077617  0.8735525437951491  0.017282849572481388  1.0000
  C   C116      1.0  0.42166709010262343  0.6263942296566469  0.48270696272425784  1.0000
  C   C117      1.0  0.921665935637428  0.017292642231026896  0.873610225619032  1.0000
  C   C118      1.0  0.9213908894178716  0.4827060248052034  0.6264514897072926  1.0000
  C   C119      1.0  0.5786030375971478  0.12644231045360502  0.9827068985829752  1.0000
  C   C120      1.0  0.5783323093821054  0.37360440832257774  0.517295186832406  1.0000
  C   C121      1.0  0.0439711758966226  0.04115451059254129  0.10896384210526117  1.0000
  C   C122      1.0  0.044152622086045305  0.4588955971048136  0.39102586936076716  1.0000
  C   C123      1.0  0.4558495082138094  0.8910341859846227  0.9588966942640409  1.0000
  C   C124      1.0  0.45604046784166025  0.6089634381740866  0.541147656259305  1.0000
  C   C125      1.0  0.9560375100253397  0.9588508442791764  0.8910405265356898  1.0000
  C   C126      1.0  0.9558453486347533  0.5410967732029093  0.6089697032156847  1.0000
  C   C127      1.0  0.5441441764285244  0.10896431077986077  0.04109597577003398  1.0000
  C   C128      1.0  0.543961074723093  0.39103578280867174  0.45885911590699624  1.0000
  C   C129      1.0  0.9606131993995888  0.07195622914119329  0.1394152545449003  1.0000
  C   C130      1.0  0.960806001030157  0.4280927720069201  0.360552020227054  1.0000
  C   C131      1.0  0.539198219868979  0.8605572422581034  0.9280986969889468  1.0000
  C   C132      1.0  0.5393978351020436  0.6394122015028075  0.5719537657761221  1.0000
  C   C133      1.0  0.0393933435216454  0.9280481158029729  0.8605903462082904  1.0000
  C   C134      1.0  0.03918982666748149  0.5719001069808057  0.6394431857257316  1.0000
  C   C135      1.0  0.46080117952074323  0.13944334868505587  0.07189649802960218  1.0000
  C   C136      1.0  0.46060370745148294  0.36058546371061345  0.4280521105276946  1.0000
  C   C137      1.0  0.16960422967406433  0.9522162043701877  0.09790678692732492  1.0000
  C   C138      1.0  0.1698628675568585  0.5477937754942276  0.40207605217697295  1.0000
  C   C139      1.0  0.3301349106649027  0.9020785707882124  0.04778688934497671  1.0000
  C   C140      1.0  0.3304027040719363  0.597906846743406  0.4522068017868718  1.0000
  C   C141      1.0  0.8304001701836085  0.047788604659821494  0.9020954536841329  1.0000
  C   C142      1.0  0.8301372463143082  0.4522049145114976  0.5979295898235362  1.0000
  C   C143      1.0  0.6698587739250429  0.0979157524834946  0.9522017286568525  1.0000
  C   C144      1.0  0.6695988384770929  0.4020892701330324  0.5477986775741285  1.0000
  S   S1        1.0  0.7320214886374002  0.1720036476654627  0.17611130727653546  1.0000
  S   S2        1.0  0.7320541118369022  0.3281853657725122  0.32375923869221157  1.0000
  S   S3        1.0  0.7679469105685256  0.8237605760533738  0.8281787823357261  1.0000
  S   S4        1.0  0.7679827440926418  0.6761203221562084  0.6720084542441639  1.0000
  S   S5        1.0  0.2679779107044169  0.8279896879756664  0.8238800396634998  1.0000
  S   S6        1.0  0.267933858084227  0.6718131235596942  0.6762329323735157  1.0000
  S   S7        1.0  0.23206820427997601  0.17623332029402405  0.17181569057050436  1.0000
  S   S8        1.0  0.2320266560624162  0.32389006005631427  0.32798825699133255  1.0000
  S   S9        1.0  0.9158382389013084  0.30423985122280334  0.18913134679583973  1.0000
  S   S10       1.0  0.9157092172080114  0.1958887199194521  0.310723355590774  1.0000
  S   S11       1.0  0.5842942099436783  0.810735366494768  0.6958906116636853  1.0000
  S   S12       1.0  0.5841600164781582  0.6891406647072031  0.8042425447783328  1.0000
  S   S13       1.0  0.08415258840622641  0.6957571269341756  0.8108629219498052  1.0000
  S   S14       1.0  0.08428232441489311  0.8041092607327369  0.6892691821107773  1.0000
  S   S15       1.0  0.4157209049423328  0.1892806929532824  0.30410755507745785  1.0000
  S   S16       1.0  0.41584724069635826  0.3108640997286187  0.19575670233937356  1.0000
  N   N1        1.0  0.732543486708906  0.271291877168629  0.06079173284747698  1.0000
  N   N2        1.0  0.7323800364066385  0.22880558216876784  0.4392143934430449  1.0000
  N   N3        1.0  0.7676154794877945  0.93922475422908  0.72880679298715  1.0000
  N   N4        1.0  0.7674612529158155  0.5608010104508948  0.7713032620551842  1.0000
  N   N5        1.0  0.2674459119514125  0.728702048908552  0.9392047355184585  1.0000
  N   N6        1.0  0.2676122196251712  0.7711955620486108  0.560783428427335  1.0000
  N   N7        1.0  0.232400349896082  0.06078119107845479  0.2712026972257106  1.0000
  N   N8        1.0  0.2325488617864977  0.43920239888924323  0.22870856005572895  1.0000
  N   N9        1.0  0.5976147191760431  0.40931556858092216  0.9074984371973399  1.0000
  N   N10       1.0  0.5976349321466827  0.09079161743225939  0.5925940286202617  1.0000
  N   N11       1.0  0.9023641981413277  0.0925945728302224  0.590792955557866  1.0000
  N   N12       1.0  0.9023861820010666  0.4074916075858326  0.909310252505527  1.0000
  N   N13       1.0  0.40239253813690823  0.590697580002242  0.09251140858325602  1.0000
  N   N14       1.0  0.40235803813759924  0.909198112855023  0.4073968909848061  1.0000
  N   N15       1.0  0.09764163029093  0.9073998321972638  0.40920115066386126  1.0000
  N   N16       1.0  0.09761464624904899  0.5925045538847585  0.09069822036746439  1.0000
  N   N17       1.0  0.5432866155724837  0.443596596368721  0.8751342210194576  1.0000
  N   N18       1.0  0.543347029483307  0.05647813554206489  0.6249529753131852  1.0000
  N   N19       1.0  0.9566520755900497  0.12495974950672215  0.5564862277453101  1.0000
  N   N20       1.0  0.9567114531222601  0.37512970029177944  0.9435958812317221  1.0000
  N   N21       1.0  0.4567170699586072  0.5564102845429701  0.12486904776267947  1.0000
  N   N22       1.0  0.4566452264085327  0.9435094782694051  0.37503392259095847  1.0000
  N   N23       1.0  0.04334803811127589  0.8750336084314794  0.44350661595984764  1.0000
  N   N24       1.0  0.0432900895015678  0.6248644413236519  0.056415055908352864  1.0000
  N   N25       1.0  0.470324805025342  0.4072337325851194  0.9862513301654728  1.0000
  N   N26       1.0  0.4703236014829598  0.09278382437942408  0.5138274197746924  1.0000
  N   N27       1.0  0.029673794188887805  0.013831237982415699  0.5927878537967641  1.0000
  N   N28       1.0  0.029674919280715504  0.48624570561928937  0.9072310181248964  1.0000
  N   N29       1.0  0.5296803092457552  0.5927804184932981  0.01375678454670039  1.0000
  N   N30       1.0  0.5296722261331013  0.9072017621444814  0.48616144350118856  1.0000
  N   N31       1.0  0.9703291768173231  0.9861672067554254  0.4072013238786382  1.0000
  N   N32       1.0  0.9703216229410428  0.5137530364130073  0.09277811628295748  1.0000
  N   N33       1.0  0.41620458018078205  0.44248550010745186  0.954373057388437  1.0000
  N   N34       1.0  0.41624785166470696  0.057519252179091  0.5457079491847026  1.0000
  N   N35       1.0  0.08375092892832471  0.04571484908396429  0.5575271557322734  1.0000
  N   N36       1.0  0.08379661642138102  0.4543659989360264  0.9424787286035889  1.0000
  N   N37       1.0  0.5838033914468072  0.5575307079878797  0.04563508768547554  1.0000
  N   N38       1.0  0.5837444042368461  0.9424647711431648  0.4542795192785859  1.0000
  N   N39       1.0  0.9162563281287108  0.9542841266308671  0.44246315213326426  1.0000
  N   N40       1.0  0.916200640081321  0.5456311353004041  0.05752601751009219  1.0000
  N   N41       1.0  0.2724029615680124  0.5673013324508176  0.7922849549469004  1.0000
  N   N42       1.0  0.27258020100020275  0.9325913220711043  0.7077502332787728  1.0000
  N   N43       1.0  0.2274149302260042  0.20775480008400385  0.4325976641447723  1.0000
  N   N44       1.0  0.22760425045884602  0.29228457059497254  0.06729599996215536  1.0000
  N   N45       1.0  0.7275985808344315  0.4327043973185097  0.20771006647356666  1.0000
  N   N46       1.0  0.7274091976945484  0.06740521429716037  0.29224889233723417  1.0000
  N   N47       1.0  0.7725866122370563  0.7922556267227777  0.5674020405418858  1.0000
  N   N48       1.0  0.7724072928622405  0.7077213449831843  0.9327114945354749  1.0000
  N   N49       1.0  0.9110008282842373  0.0480779515482723  0.18559254500920017  1.0000
  N   N50       1.0  0.9112795047898176  0.4519434847707727  0.31431811096206985  1.0000
  N   N51       1.0  0.5887194260111669  0.8143277851306436  0.9519524105124474  1.0000
  N   N52       1.0  0.5890047802537951  0.685600241910933  0.5480818297151302  1.0000
  N   N53       1.0  0.08899499943738222  0.9519231852366943  0.8144047779719158  1.0000
  N   N54       1.0  0.08872203756093461  0.5480467541963564  0.6856724421105937  1.0000
  N   N55       1.0  0.4112785446453416  0.1856748033706097  0.04803882347389527  1.0000
  N   N56       1.0  0.41099676239177546  0.31440369840636617  0.45193112247640943  1.0000
  N   N57       1.0  0.20852931580879644  0.9770147867537842  0.04772531265367508  1.0000
  N   N58       1.0  0.20875004785014542  0.522964696803527  0.4522473890895852  1.0000
  N   N59       1.0  0.2912459154696592  0.9522483235443246  0.022961336058131106  1.0000
  N   N60       1.0  0.2914722890044956  0.5477264606673771  0.47700809140189177  1.0000
  N   N61       1.0  0.7914636545151695  0.022981675290836293  0.9522688237959539  1.0000
  N   N62       1.0  0.7912464943281989  0.47702833826372165  0.5477582941825644  1.0000
  N   N63       1.0  0.7087449118019509  0.0477455282092549  0.9770301431231726  1.0000
  N   N64       1.0  0.7085299678755846  0.4522645025181332  0.5229965637421685  1.0000
  N   N65       1.0  0.20908542510426287  0.9034060521363257  0.12374739836610614  1.0000
  N   N66       1.0  0.20939331426225044  0.5965832152414093  0.3762263308039093  1.0000
  N   N67       1.0  0.2906061896257199  0.8762304802432226  0.09657803482431858  1.0000
  N   N68       1.0  0.29091549664631333  0.6237532042448423  0.40340211342254406  1.0000
  N   N69       1.0  0.7909146886307498  0.0965919731099021  0.8762481329265268  1.0000
  N   N70       1.0  0.7906060852598812  0.40341443510731506  0.6237785476422957  1.0000
  N   N71       1.0  0.7093924953947521  0.12376441859961321  0.9034147068918088  1.0000
  N   N72       1.0  0.709078902542558  0.37624500681044276  0.5966058908134213  1.0000
  Cl  Cl1       1.0  0.926374019726488  0.1685299920152943  0.024108723101903696  1.0000
  Cl  Cl2       1.0  0.9261478678525635  0.33150725012264814  0.47579332025649274  1.0000
  Cl  Cl3       1.0  0.573839450306629  0.9758036860763897  0.8315056580320854  1.0000
  Cl  Cl4       1.0  0.5736439157141716  0.5241254256382674  0.6685320817114613  1.0000
  Cl  Cl5       1.0  0.0736268083590588  0.8314695890002638  0.9758877040593104  1.0000
  Cl  Cl6       1.0  0.0738329586440472  0.6684896611432335  0.5241964581268589  1.0000
  Cl  Cl7       1.0  0.42615423428633653  0.0241962995662064  0.16848341758736038  1.0000
  Cl  Cl8       1.0  0.4263769139064664  0.47588139581431926  0.33146719585924694  1.0000
