data_image0
_chemical_formula_structural       Li4H32C20N4O16
_chemical_formula_sum              "Li4 H32 C20 N4 O16"
_cell_length_a       5.136458356011724
_cell_length_b       7.991000718036999
_cell_length_c       15.8661815590381
_cell_angle_alpha    89.99974944053746
_cell_angle_beta     90.00000656480404
_cell_angle_gamma    90.00024387877153

_space_group_name_H-M_alt    "P 1"
_space_group_IT_number       1

loop_
  _space_group_symop_operation_xyz
  'x, y, z'

loop_
  _atom_site_type_symbol
  _atom_site_label
  _atom_site_symmetry_multiplicity
  _atom_site_fract_x
  _atom_site_fract_y
  _atom_site_fract_z
  _atom_site_occupancy
  Li  Li1       1.0  0.4661977934897905  0.28417872994346294  0.6526085125657204  1.0000
  Li  Li2       1.0  0.03380194857045641  0.7158221190524259  0.15260745083273972  1.0000
  Li  Li3       1.0  0.5337985930742376  0.7841779307170427  0.8473927007206754  1.0000
  Li  Li4       1.0  0.9661957140733222  0.21582134566379813  0.3473927504617009  1.0000
  H   H1        1.0  0.9424925870956216  0.773062741808353  0.7313376998281882  1.0000
  H   H2        1.0  0.5575036159040822  0.2269375440229098  0.23133834391278896  1.0000
  H   H3        1.0  0.057507619865951716  0.2730626606898525  0.7686629076261439  1.0000
  H   H4        1.0  0.44249412007551553  0.7269371788637073  0.2686618329424063  1.0000
  H   H5        1.0  0.7270676101769667  0.6974879788571046  0.6053446420511077  1.0000
  H   H6        1.0  0.7729265905973292  0.30252091131313824  0.10534449574887358  1.0000
  H   H7        1.0  0.27293015130043585  0.1974848906005562  0.8946567618394637  1.0000
  H   H8        1.0  0.22706775028283493  0.8025113502341482  0.39465551493587003  1.0000
  H   H9        1.0  0.0218617077804879  0.656772692201912  0.5520363243591859  1.0000
  H   H10       1.0  0.4781302025997646  0.34322778015499733  0.05203546404495538  1.0000
  H   H11       1.0  0.9781338382224831  0.1567735796380347  0.9479651690451902  1.0000
  H   H12       1.0  0.5218624600085278  0.8432273247897156  0.4479625663159439  1.0000
  H   H13       1.0  0.757453343245551  0.9977484215974287  0.5742643705609041  1.0000
  H   H14       1.0  0.7425505782007207  0.0022607389178262  0.0742655138399471  1.0000
  H   H15       1.0  0.24254834606993106  0.4977424767544961  0.9257363731686538  1.0000
  H   H16       1.0  0.2574495691711363  0.5022522423381022  0.42573578727869676  1.0000
  H   H17       1.0  0.9459214792314724  0.9286613383310824  0.4879368097762651  1.0000
  H   H18       1.0  0.5540884646505829  0.07134297264593668  0.9879383278773941  1.0000
  H   H19       1.0  0.05408148135835939  0.42865972549434883  0.0120616630198995  1.0000
  H   H20       1.0  0.44591625204662927  0.5713398431554639  0.5120627230892366  1.0000
  H   H21       1.0  0.36224319228227125  0.9603377125722831  0.7085386795030713  1.0000
  H   H22       1.0  0.13775657434668176  0.03965764431472249  0.20853658624209  1.0000
  H   H23       1.0  0.6377582502384483  0.4603390265643982  0.791462146471126  1.0000
  H   H24       1.0  0.8622399260528582  0.539659484900291  0.2914621115573723  1.0000
  H   H25       1.0  0.9323345143529449  0.396084161381836  0.6161074902023742  1.0000
  H   H26       1.0  0.5676655317277621  0.6039171267373862  0.116106675460415  1.0000
  H   H27       1.0  0.06766845111093998  0.896083016033117  0.883893477044893  1.0000
  H   H28       1.0  0.4323313926164261  0.10391582123241251  0.3838937718732396  1.0000
  H   H29       1.0  0.7775584196360014  0.3446990084494105  0.5325398634659206  1.0000
  H   H30       1.0  0.7224435365733015  0.6553017551365485  0.03253957036933029  1.0000
  H   H31       1.0  0.2224461536778151  0.8446975612599915  0.9674605864877108  1.0000
  H   H32       1.0  0.27756151425471387  0.1553018005521736  0.46746139425809463  1.0000
  C   C1        1.0  0.258454573818426  0.6117467252854781  0.6996453019442583  1.0000
  C   C2        1.0  0.24153350769752535  0.388247457514062  0.1996474873472636  1.0000
  C   C3        1.0  0.7415406751251152  0.11174824694009543  0.8003525088270179  1.0000
  C   C4        1.0  0.7584555582117858  0.888251438596086  0.30035359538356227  1.0000
  C   C5        1.0  0.0773224660248673  0.7590685462563371  0.6776461455195245  1.0000
  C   C6        1.0  0.4226733933081376  0.24093208494870313  0.17764676910052657  1.0000
  C   C7        1.0  0.9226757017445589  0.25906912255591397  0.8223532321594932  1.0000
  C   C8        1.0  0.5773224881296953  0.740930371626746  0.3223527467158078  1.0000
  C   C9        1.0  0.9234443212495191  0.7453621510764991  0.5941245012398255  1.0000
  C   C10       1.0  0.576555715172475  0.2546405796531488  0.094125084953653  1.0000
  C   C11       1.0  0.07655570295234779  0.24536092878332028  0.9058755368479793  1.0000
  C   C12       1.0  0.4234441504375752  0.7546377172849931  0.40587503099535377  1.0000
  C   C13       1.0  0.9291472703159229  0.9225704147846585  0.5567189611993442  1.0000
  C   C14       1.0  0.5708527496719141  0.07743514411338738  0.056719934366682885  1.0000
  C   C15       1.0  0.0708519761487025  0.42256634866118503  0.9432806872746369  1.0000
  C   C16       1.0  0.42914399994201347  0.5774294692306369  0.4432812014674568  1.0000
  C   C17       1.0  0.16005789912424007  0.0033689069265179002  0.5990414228898755  1.0000
  C   C18       1.0  0.339955447473656  0.9966374136362789  0.09904290371421348  1.0000
  C   C19       1.0  0.8399522097032203  0.503363476860848  0.9009566261729132  1.0000
  C   C20       1.0  0.6600538021740546  0.4966303279960584  0.4009585709900847  1.0000
  N   N1        1.0  0.22595456824686977  0.9134361967132706  0.6668601439413135  1.0000
  N   N2        1.0  0.2740471269450778  0.08656452831807832  0.16686047247154073  1.0000
  N   N3        1.0  0.7740504585640194  0.4134350196420087  0.8331388943410545  1.0000
  N   N4        1.0  0.7259516297810577  0.5865631293172414  0.3331400130143365  1.0000
  O   O1        1.0  0.21301227950115728  0.4691601558298758  0.6674266158515891  1.0000
  O   O2        1.0  0.28698162847187797  0.5308405642815333  0.16742281658619618  1.0000
  O   O3        1.0  0.7869872743424722  0.9691564265475068  0.8325735604593945  1.0000
  O   O4        1.0  0.7130167606163054  0.030840475932386403  0.3325727492441288  1.0000
  O   O5        1.0  0.44351799689750476  0.6417567669404179  0.7504640521795095  1.0000
  O   O6        1.0  0.05648178817723699  0.3582432309094727  0.2504618864557742  1.0000
  O   O7        1.0  0.5564813437645313  0.1417557195889074  0.7495381045130074  1.0000
  O   O8        1.0  0.9435226547062924  0.8582456593617567  0.24953674115993604  1.0000
  O   O9        1.0  0.2734613725795043  0.1358181536745349  0.576551305556734  1.0000
  O   O10       1.0  0.22655391097794816  0.8641821054818378  0.0765505533225337  1.0000
  O   O11       1.0  0.7265496100943735  0.6358147193826936  0.9234483431099534  1.0000
  O   O12       1.0  0.7734583585487369  0.36418264406780315  0.4234499520520387  1.0000
  O   O13       1.0  0.7660505214593627  0.35000719336662206  0.5948150807999824  1.0000
  O   O14       1.0  0.733949515257741  0.6499930285446568  0.09481479969822708  1.0000
  O   O15       1.0  0.23395214001469358  0.8500075708560502  0.9051853574808391  1.0000
  O   O16       1.0  0.26604965994287966  0.14999233262283707  0.4051855463305287  1.0000
