data_image0
_chemical_formula_structural       Cu4H36C56N4O16
_chemical_formula_sum              "Cu4 H36 C56 N4 O16"
_cell_length_a       10.913331561088262
_cell_length_b       10.920633467185665
_cell_length_c       16.300458723478776
_cell_angle_alpha    89.945099142556
_cell_angle_beta     97.42595088047021
_cell_angle_gamma    91.06674403636407

_space_group_name_H-M_alt    "P 1"
_space_group_IT_number       1

loop_
  _space_group_symop_operation_xyz
  'x, y, z'

loop_
  _atom_site_type_symbol
  _atom_site_label
  _atom_site_symmetry_multiplicity
  _atom_site_fract_x
  _atom_site_fract_y
  _atom_site_fract_z
  _atom_site_occupancy
  Cu  Cu1       1.0  0.3162104107088979  0.8397322716274757  0.7756312537733409  1.0000
  Cu  Cu2       1.0  0.28386436214693583  0.8394926746045073  0.6143539182403404  1.0000
  Cu  Cu3       1.0  0.6837900617974455  0.16026865520245787  0.2243698393398788  1.0000
  Cu  Cu4       1.0  0.7161342409572669  0.1605073426515702  0.38564578740602684  1.0000
  H   H1        1.0  0.5148887127874033  0.8830544824507173  0.9285087057290868  1.0000
  H   H2        1.0  0.5285466086832642  0.8867710594992175  0.0835615327571162  1.0000
  H   H3        1.0  0.1499512050803347  0.7528695184077634  0.05593350216654609  1.0000
  H   H4        1.0  0.15240978380450795  0.7592618883983275  0.9033055911521758  1.0000
  H   H5        1.0  0.6571284912656168  0.839433738178364  0.5629969743705558  1.0000
  H   H6        1.0  0.8859480922029518  0.8361114861156196  0.5605665673955543  1.0000
  H   H7        1.0  0.7138125694081694  0.8465767850231173  0.8285873288407686  1.0000
  H   H8        1.0  0.9432678210558122  0.8449190014731581  0.8262695243429479  1.0000
  H   H9        1.0  0.2730436190698597  0.2211699052840004  0.564876486091201  1.0000
  H   H10       1.0  0.15574375356665374  0.8078944816077538  0.18436621560822897  1.0000
  H   H11       1.0  0.3193607544918393  0.45874151672995805  0.827514145255222  1.0000
  H   H12       1.0  0.31737475536974813  0.22888256463846793  0.830495373337648  1.0000
  H   H13       1.0  0.4583312208543617  0.8428672010372152  0.3335233094370481  1.0000
  H   H14       1.0  0.43845287000311833  0.8500333478420641  0.20545918111650957  1.0000
  H   H15       1.0  0.2745737724172059  0.4511721202666619  0.5618502993356602  1.0000
  H   H16       1.0  0.0762470501537109  0.8304166477006729  0.4630410917900463  1.0000
  H   H17       1.0  0.05849433038886791  0.8195728393142828  0.308564339955268  1.0000
  H   H18       1.0  0.4573195936258685  0.8544806318375961  0.485113601385585  1.0000
  H   H19       1.0  0.4851099038207352  0.11694645494223008  0.07149038990063161  1.0000
  H   H20       1.0  0.47145293458359566  0.11322987475729461  0.9164382547661206  1.0000
  H   H21       1.0  0.8500483034364236  0.24712958844542496  0.9440656643006095  1.0000
  H   H22       1.0  0.8475897433776751  0.24073813001145783  0.09669419269125258  1.0000
  H   H23       1.0  0.3428728866532893  0.16056627824868736  0.4370035795634521  1.0000
  H   H24       1.0  0.11405236163796671  0.16388852915772387  0.43943390834139967  1.0000
  H   H25       1.0  0.2861878226747692  0.15341956257317688  0.1714137458733944  1.0000
  H   H26       1.0  0.056732584531061996  0.1550782662599985  0.17373094035456663  1.0000
  H   H27       1.0  0.7269568534364836  0.7788310215459333  0.4351246070220185  1.0000
  H   H28       1.0  0.844254911295522  0.19210920332538003  0.815632891060929  1.0000
  H   H29       1.0  0.6806415500857951  0.5412584965606583  0.1724871005723116  1.0000
  H   H30       1.0  0.6826257332212791  0.7711192780381919  0.1695057234553872  1.0000
  H   H31       1.0  0.5416683037470804  0.15713282166270656  0.6664758607099162  1.0000
  H   H32       1.0  0.5615457626896969  0.14996850539760936  0.7945399181930244  1.0000
  H   H33       1.0  0.7254276055017002  0.5488278961603895  0.438150254598348  1.0000
  H   H34       1.0  0.9237534171911435  0.1695842877095401  0.5369587739302588  1.0000
  H   H35       1.0  0.941505212877999  0.18042809494222914  0.6914354475679759  1.0000
  H   H36       1.0  0.542680855053554  0.1455193920160269  0.5148856469584402  1.0000
  C   C1        1.0  0.4359749305911862  0.85625167015165  0.9598020445617126  1.0000
  C   C2        1.0  0.4433578835722115  0.8572933799389373  0.045633968128939294  1.0000
  C   C3        1.0  0.33904811952654507  0.8236150826750118  0.0836319784522601  1.0000
  C   C4        1.0  0.23275979741220704  0.7849763353391237  0.030978792701681395  1.0000
  C   C5        1.0  0.23351796022656396  0.787175878933972  0.9459672760785551  1.0000
  C   C6        1.0  0.7204729635423702  0.8396306943163337  0.6203495514728061  1.0000
  C   C7        1.0  0.6722206381179204  0.8423992779767815  0.695993339820241  1.0000
  C   C8        1.0  0.8474658861359076  0.8378656942703412  0.6189654310451971  1.0000
  C   C9        1.0  0.2986509983822144  0.6051531918705279  0.6934930253604464  1.0000
  C   C10       1.0  0.2972945668940454  0.4678084794963908  0.6946237460977474  1.0000
  C   C11       1.0  0.7526097913380312  0.8441031832795926  0.7703366112865242  1.0000
  C   C12       1.0  0.927881819197161  0.8392917468377304  0.6933660926062046  1.0000
  C   C13       1.0  0.8796524596575777  0.8428965690066407  0.7690053526457561  1.0000
  C   C14       1.0  0.0648713241762877  0.8378109949930276  0.6923580204270935  1.0000
  C   C15       1.0  0.2831517549596824  0.2742718125239634  0.6219146157143884  1.0000
  C   C16       1.0  0.2960489241810365  0.21178643343729675  0.697698926814077  1.0000
  C   C17       1.0  0.24904275731754671  0.8215869843811276  0.2169260630834771  1.0000
  C   C18       1.0  0.3092263751801028  0.40556820664725285  0.7704644118390719  1.0000
  C   C19       1.0  0.2983263596866336  0.07465520699960845  0.6985941294155966  1.0000
  C   C20       1.0  0.5353584568129436  0.8436640190331204  0.6974287898096565  1.0000
  C   C21       1.0  0.30851425122771303  0.27825949613571044  0.7719983708743998  1.0000
  C   C22       1.0  0.3704925567771724  0.8404840076263226  0.3584718033943234  1.0000
  C   C23       1.0  0.3459454855444477  0.831210519484024  0.1732060877517654  1.0000
  C   C24       1.0  0.28393511795193405  0.40156127094228095  0.6202713001594874  1.0000
  C   C25       1.0  0.15833327001604397  0.8332661703609429  0.4311905341365048  1.0000
  C   C26       1.0  0.1492913569631185  0.8269283682524529  0.345344838055226  1.0000
  C   C27       1.0  0.2572934689251056  0.8299516508406766  0.30660559526934617  1.0000
  C   C28       1.0  0.3710692819463119  0.8466289845454896  0.4433399665399023  1.0000
  C   C29       1.0  0.5640227619389647  0.143749266087589  0.040196972870944585  1.0000
  C   C30       1.0  0.556642567687966  0.14270663962454216  0.9543658939115502  1.0000
  C   C31       1.0  0.6609495408342383  0.17638402187077418  0.916367031620773  1.0000
  C   C32       1.0  0.7672397136852994  0.2150227672239282  0.9690209874619385  1.0000
  C   C33       1.0  0.7664806267929548  0.2128232224753787  0.054032425887996324  1.0000
  C   C34       1.0  0.2795274742138716  0.16036840511028314  0.37965092058433214  1.0000
  C   C35       1.0  0.32777978871512653  0.15759889702282948  0.3040083559500033  1.0000
  C   C36       1.0  0.1525354943637396  0.16213431786656676  0.3810357365852752  1.0000
  C   C37       1.0  0.7013494689626398  0.39484774353968516  0.3065068403598588  1.0000
  C   C38       1.0  0.7027068271095375  0.5321924527773874  0.30537681151607643  1.0000
  C   C39       1.0  0.24739061166810222  0.1558940887437075  0.22966323971452604  1.0000
  C   C40       1.0  0.07211861855907388  0.16070735258888647  0.3066343794509336  1.0000
  C   C41       1.0  0.12034795109079252  0.15710069014624392  0.23099633944467973  1.0000
  C   C42       1.0  0.9351291296646309  0.1621890202803229  0.3076424553098533  1.0000
  C   C43       1.0  0.7168496416246483  0.7257291154596784  0.3780865555958925  1.0000
  C   C44       1.0  0.7039506216665785  0.788214496529072  0.3023014744056169  1.0000
  C   C45       1.0  0.7509558779560167  0.17841486456840977  0.7830736499225139  1.0000
  C   C46       1.0  0.6907741108301763  0.5944336403195506  0.229536071257499  1.0000
  C   C47       1.0  0.7016731700762976  0.9253448071200409  0.3014062681242963  1.0000
  C   C48       1.0  0.46464103561913817  0.15633417197334146  0.3025703729776837  1.0000
  C   C49       1.0  0.6914862347825661  0.7217423508310928  0.22800211222217112  1.0000
  C   C50       1.0  0.6295060598309589  0.15951692976661744  0.641527292235395  1.0000
  C   C51       1.0  0.6540549792196658  0.16879042021632523  0.8267931642720754  1.0000
  C   C52       1.0  0.7160662599669722  0.5984387454847705  0.3797292537745279  1.0000
  C   C53       1.0  0.8416662867547514  0.16673568403243877  0.5688086433700832  1.0000
  C   C54       1.0  0.8507082049691732  0.17307347756064928  0.6546555668442835  1.0000
  C   C55       1.0  0.7427060743417613  0.17004928341583536  0.6933941922538907  1.0000
  C   C56       1.0  0.6289311641523694  0.1533710435982698  0.5566586681076656  1.0000
  N   N1        1.0  0.2671943340445324  0.8426033726682004  0.4799498648888588  1.0000
  N   N2        1.0  0.3325013867145045  0.8240874043401476  0.910189286719394  1.0000
  N   N3        1.0  0.7328051931376578  0.15739664574158493  0.5200499189545695  1.0000
  N   N4        1.0  0.6674981430484267  0.17591260977949463  0.08981111082049863  1.0000
  O   O1        1.0  0.1030996376925515  0.8315186959353015  0.621865604039435  1.0000
  O   O2        1.0  0.3084451431071358  0.6581527177958789  0.7637691842232783  1.0000
  O   O3        1.0  0.2899035111531986  0.6567777084947436  0.6229709426872887  1.0000
  O   O4        1.0  0.32078208192025665  0.023082057658285696  0.7691769409465579  1.0000
  O   O5        1.0  0.1318114257659673  0.8434574846837887  0.7625266484085814  1.0000
  O   O6        1.0  0.2790970925184766  0.021555875516021693  0.6284506076839378  1.0000
  O   O7        1.0  0.4973385259910544  0.8410197470205886  0.7682057803160874  1.0000
  O   O8        1.0  0.4681001471009553  0.8472050082022164  0.6274748985365975  1.0000
  O   O9        1.0  0.8969017241416709  0.16848040464501673  0.3781349462147575  1.0000
  O   O10       1.0  0.6915544162444079  0.34184913230735947  0.23623060697977397  1.0000
  O   O11       1.0  0.7100978641849593  0.34322231222244426  0.3770289975502622  1.0000
  O   O12       1.0  0.6792183693399138  0.9769179619051939  0.23082292109392447  1.0000
  O   O13       1.0  0.8681899495721908  0.15654253603339893  0.2374732918289695  1.0000
  O   O14       1.0  0.7209024507483903  0.9784450587404903  0.371549179839306  1.0000
  O   O15       1.0  0.5026609555178324  0.15897751955886716  0.23179460618435846  1.0000
  O   O16       1.0  0.5319003067399634  0.152795007071127  0.3725255772003493  1.0000
