data_image0
_chemical_formula_structural       Cd2H24C24S2N8O10
_chemical_formula_sum              "Cd2 H24 C24 S2 N8 O10"
_cell_length_a       7.616917725623244
_cell_length_b       10.669413859989435
_cell_length_c       10.871622755879313
_cell_angle_alpha    104.69355129735249
_cell_angle_beta     101.71823267658682
_cell_angle_gamma    108.00612582597728

_space_group_name_H-M_alt    "P 1"
_space_group_IT_number       1

loop_
  _space_group_symop_operation_xyz
  'x, y, z'

loop_
  _atom_site_type_symbol
  _atom_site_label
  _atom_site_symmetry_multiplicity
  _atom_site_fract_x
  _atom_site_fract_y
  _atom_site_fract_z
  _atom_site_occupancy
  Cd  Cd1       1.0  0.21185466093202618  0.13203877649316104  0.24380143859909956  1.0000
  Cd  Cd2       1.0  0.7881457706227905  0.8679620425491875  0.7561974306910171  1.0000
  H   H1        1.0  0.6523065919817554  0.11608590286910919  0.21051912891630306  1.0000
  H   H2        1.0  0.3476973280229388  0.8839138924536062  0.7894809115360812  1.0000
  H   H3        1.0  0.5379093617550835  0.46700755518821785  0.39943525098643556  1.0000
  H   H4        1.0  0.4620840705881547  0.5329901284699615  0.6005637140601934  1.0000
  H   H5        1.0  0.9202631320346768  0.5569616688899616  0.3959367533105932  1.0000
  H   H6        1.0  0.07973138091090692  0.44303808629202723  0.6040610204988893  1.0000
  H   H7        1.0  0.9723792335857623  0.16098255545951898  0.678813242457906  1.0000
  H   H8        1.0  0.027617709519169774  0.839019287302463  0.321184455669943  1.0000
  H   H9        1.0  0.961540206307525  0.3351486708614075  0.27124400333281773  1.0000
  H   H10       1.0  0.03846077882844413  0.6648532080270186  0.7287561177539529  1.0000
  H   H11       1.0  0.8316902389546215  0.047362879679248196  0.06128746337956407  1.0000
  H   H12       1.0  0.16831047483483977  0.9526359079796336  0.9387155601184458  1.0000
  H   H13       1.0  0.8477479378839516  0.9107663681691631  0.07855886532438909  1.0000
  H   H14       1.0  0.15225219576439739  0.08923131147530228  0.9214392115464989  1.0000
  H   H15       1.0  0.33664166499911363  0.4649542901880181  0.9192576174701724  1.0000
  H   H16       1.0  0.663360656413886  0.535047580672412  0.08074177175688386  1.0000
  H   H17       1.0  0.3781685214629744  0.7283159421630215  0.950815231540943  1.0000
  H   H18       1.0  0.6218284548419177  0.2716859608093855  0.04918708512498425  1.0000
  H   H19       1.0  0.8800253137158832  0.12285920677842907  0.4301984841016874  1.0000
  H   H20       1.0  0.11997485552426201  0.8771436797736454  0.5697990021033801  1.0000
  H   H21       1.0  0.4873185317554344  0.24609568344866514  0.5651086015488287  1.0000
  H   H22       1.0  0.5126797385946915  0.7539009925460504  0.4348926502155876  1.0000
  H   H23       1.0  0.3424360027874016  0.24214446033291642  0.7810813014494683  1.0000
  H   H24       1.0  0.6575590703793281  0.7578563667372366  0.21891864786428528  1.0000
  C   C1        1.0  0.1991344607233074  0.3451546952339016  0.10528779122972047  1.0000
  C   C2        1.0  0.8008713624195493  0.6548461759910678  0.8947146165748376  1.0000
  C   C3        1.0  0.6716840041918886  0.2225463529623042  0.2643097904536234  1.0000
  C   C4        1.0  0.3283180392346025  0.777452414626495  0.7356915774770554  1.0000
  C   C5        1.0  0.6191878607226753  0.4069706757936231  0.3620171124306423  1.0000
  C   C6        1.0  0.38081040298746416  0.5930259881590131  0.6379832156261569  1.0000
  C   C7        1.0  0.8080600202144977  0.45305126801196843  0.36019747894840737  1.0000
  C   C8        1.0  0.1919353019869234  0.5469474674642925  0.6398020060351682  1.0000
  C   C9        1.0  0.22908360498577449  0.483928734173368  0.09060155431917137  1.0000
  C   C10       1.0  0.7709165353025609  0.5160689575131842  0.9093974462593336  1.0000
  C   C11       1.0  0.3000519061164084  0.5306303677174284  0.9957260228465115  1.0000
  C   C12       1.0  0.6999436518397175  0.4693662520807679  0.004271150391645115  1.0000
  C   C13       1.0  0.3194270258514607  0.6695941307686939  0.011125407898482789  1.0000
  C   C14       1.0  0.68057555787621  0.3304056725820175  0.988875364413623  1.0000
  C   C15       1.0  0.2595136850129052  0.7275110743022425  0.1161191794511751  1.0000
  C   C16       1.0  0.740485665939566  0.27248767321628964  0.8838808810760951  1.0000
  C   C17       1.0  0.25162174322942815  0.867657312652021  0.15727928972014366  1.0000
  C   C18       1.0  0.7483800445223847  0.1323435344885908  0.842721618833103  1.0000
  C   C19       1.0  0.027287880065294708  0.15909541072585404  0.4947468519440221  1.0000
  C   C20       1.0  0.9727117555136716  0.8409064521063954  0.5052521535872427  1.0000
  C   C21       1.0  0.339930013588166  0.22145211810396856  0.5690173762284941  1.0000
  C   C22       1.0  0.6600709715478104  0.7785497607844576  0.4309827448582765  1.0000
  C   C23       1.0  0.27100114920903456  0.2202352478100736  0.676661362570364  1.0000
  C   C24       1.0  0.7289966230717083  0.7797656113724329  0.3233408178544223  1.0000
  S   S1        1.0  0.18513646608435141  0.6115200594486794  0.19785524243499697  1.0000
  S   S2        1.0  0.8148636808439775  0.3884776442799592  0.8021446818511251  1.0000
  N   N1        1.0  0.18641907604191485  0.1836266124226427  0.45614211083865536  1.0000
  N   N2        1.0  0.8135808152117292  0.8163731708577942  0.5438573540700344  1.0000
  N   N3        1.0  0.07357657346898344  0.18122451834719294  0.6273469832297848  1.0000
  N   N4        1.0  0.926422010459447  0.8187804678267624  0.3726516991651818  1.0000
  N   N5        1.0  0.5357857040975843  0.26289241526453816  0.3020053681582197  1.0000
  N   N6        1.0  0.4642125596125553  0.7371042486880911  0.6979949598985795  1.0000
  N   N7        1.0  0.8387438062252455  0.3352875226841262  0.299095434237408  1.0000
  N   N8        1.0  0.16125717891072366  0.6647143562043  0.7009046868493697  1.0000
  O   O1        1.0  0.8828930576902109  0.011294328246791  0.1306239006488922  1.0000
  O   O2        1.0  0.11710654893694539  0.9887023397199358  0.8693766192558028  1.0000
  O   O3        1.0  0.23057051717239566  0.2573499118699019  0.01972550247879919  1.0000
  O   O4        1.0  0.7694412046597207  0.7426519870891751  0.9802752296835419  1.0000
  O   O5        1.0  0.14959502123050325  0.32490860400572785  0.20771295607698181  1.0000
  O   O6        1.0  0.850402980164958  0.6750901274566274  0.7922859888947755  1.0000
  O   O7        1.0  0.2887608512458398  0.9451337475566816  0.08646539980797022  1.0000
  O   O8        1.0  0.711248453706915  0.05486608790656791  0.9135372554512388  1.0000
  O   O9        1.0  0.20886209270065584  0.9084314514948914  0.26475597640607856  1.0000
  O   O10       1.0  0.7911364689159511  0.0915683518556278  0.7352451440699495  1.0000
