data_image0
_chemical_formula_structural       SrSi4H44C16N2O2
_chemical_formula_sum              "Sr1 Si4 H44 C16 N2 O2"
_cell_length_a       7.470623381500199
_cell_length_b       8.317286323968853
_cell_length_c       12.12743871059738
_cell_angle_alpha    99.55650210074499
_cell_angle_beta     99.38455548142667
_cell_angle_gamma    113.82470413184363

_space_group_name_H-M_alt    "P 1"
_space_group_IT_number       1

loop_
  _space_group_symop_operation_xyz
  'x, y, z'

loop_
  _atom_site_type_symbol
  _atom_site_label
  _atom_site_symmetry_multiplicity
  _atom_site_fract_x
  _atom_site_fract_y
  _atom_site_fract_z
  _atom_site_occupancy
  Sr  Sr1       1.0  0.99998016631104  0.9999873914638256  0.9999995927951203  1.0000
  Si  Si1       1.0  0.7896762238219921  0.7662127658614113  0.7178081623141707  1.0000
  Si  Si2       1.0  0.21032220107005628  0.2337867283492372  0.28219046113313334  1.0000
  Si  Si3       1.0  0.02184112778802218  0.17112822851822074  0.7361008826879284  1.0000
  Si  Si4       1.0  0.9781701540707386  0.8288725637670427  0.2639000059658798  1.0000
  H   H1        1.0  0.6486397585482919  0.47941766862282265  0.7812334875948321  1.0000
  H   H2        1.0  0.35136000073541845  0.520579052123992  0.2187624974874396  1.0000
  H   H3        1.0  0.6528469623830232  0.6543641133203337  0.8858578571706344  1.0000
  H   H4        1.0  0.347146734921445  0.34562320808765895  0.1141439212649757  1.0000
  H   H5        1.0  0.8800236607823918  0.6293502452187882  0.880790899566918  1.0000
  H   H6        1.0  0.11997340687518938  0.3706465292223343  0.11920729290246612  1.0000
  H   H7        1.0  0.440546436878975  0.5639412971364025  0.5925232704960236  1.0000
  H   H8        1.0  0.5594445416221632  0.43605686601690524  0.40747363143656656  1.0000
  H   H9        1.0  0.5395891118127379  0.7749437546221929  0.5560105200706644  1.0000
  H   H10       1.0  0.46040388880513927  0.22505301975400732  0.4439856118078609  1.0000
  H   H11       1.0  0.444086117784316  0.759150784077015  0.6800267932636287  1.0000
  H   H12       1.0  0.5559183918200148  0.2408554558631409  0.31997070024137736  1.0000
  H   H13       1.0  0.8119872631180768  0.5285707566362774  0.571335069015575  1.0000
  H   H14       1.0  0.18798815305527222  0.47142069370533335  0.4286603585766641  1.0000
  H   H15       1.0  0.05407943493359818  0.6740460428619388  0.6660048183322543  1.0000
  H   H16       1.0  0.945904711782795  0.32593296620547113  0.3339827273127439  1.0000
  H   H17       1.0  0.9511336473454363  0.7492387598581306  0.5547002275402733  1.0000
  H   H18       1.0  0.04885122822771848  0.25075260796174353  0.44529449869060755  1.0000
  H   H19       1.0  0.18939731943009963  0.5064516069866799  0.8193218570525788  1.0000
  H   H20       1.0  0.8106396444480168  0.4935489790267057  0.1806783084932633  1.0000
  H   H21       1.0  0.27521552794618737  0.40252656390467223  0.9182609884136355  1.0000
  H   H22       1.0  0.7248227795046133  0.5974767046752947  0.08173712887711562  1.0000
  H   H23       1.0  0.032937438070348386  0.40043749879772866  0.9064427296189023  1.0000
  H   H24       1.0  0.9671130888981947  0.5995793976520573  0.0935622183082785  1.0000
  H   H25       1.0  0.2888086992209793  0.301791059548549  0.6301034465432522  1.0000
  H   H26       1.0  0.7111910461814333  0.6981893303099727  0.3698932474421781  1.0000
  H   H27       1.0  0.172796553258749  0.06029715922877441  0.5879487325892397  1.0000
  H   H28       1.0  0.8272045585225668  0.9396886908154586  0.41204951384008837  1.0000
  H   H29       1.0  0.3562103208180503  0.17870404501192644  0.7217214299585422  1.0000
  H   H30       1.0  0.6437880628691417  0.8212790439045322  0.27827294392590574  1.0000
  H   H31       1.0  0.8848542011011064  0.3086315304544911  0.5954471252510416  1.0000
  H   H32       1.0  0.11514224265953016  0.6913694641421061  0.40455970594936014  1.0000
  H   H33       1.0  0.7040294519924828  0.20385141573118665  0.6713483804060231  1.0000
  H   H34       1.0  0.29598598343056887  0.7961496122376631  0.32867027064769866  1.0000
  H   H35       1.0  0.7416032014455495  0.0688575488696159  0.556893628460088  1.0000
  H   H36       1.0  0.2583925910945837  0.931147591476567  0.44311688300530255  1.0000
  H   H37       1.0  0.4320076109568163  0.785961787859698  0.06548156335296085  1.0000
  H   H38       1.0  0.5679787088144294  0.21406512271906317  0.9345229193925562  1.0000
  H   H39       1.0  0.3528855935561665  0.9236119368612992  0.1583468609734524  1.0000
  H   H40       1.0  0.6471054444021148  0.0764053968043541  0.8416570648099791  1.0000
  H   H41       1.0  0.26141825476577885  0.9329976453882621  0.8189981057740566  1.0000
  H   H42       1.0  0.7385788723123667  0.0670155839509832  0.1810076419021911  1.0000
  H   H43       1.0  0.38037429996916206  0.79490735350835  0.8618212057393178  1.0000
  H   H44       1.0  0.6196099565170741  0.2051072561675582  0.1381792661413854  1.0000
  C   C1        1.0  0.7411610999125031  0.6232511980088166  0.8280806734778634  1.0000
  C   C2        1.0  0.25883665543357637  0.3767442455048098  0.1719199186585101  1.0000
  C   C3        1.0  0.53005116575067  0.7114970213889648  0.6288207341466645  1.0000
  C   C4        1.0  0.4699452233262703  0.2885011087816168  0.37117671147772313  1.0000
  C   C5        1.0  0.9131305637809389  0.6704272663210207  0.6188523760544554  1.0000
  C   C6        1.0  0.08685430268436527  0.3295640766968902  0.381140697354418  1.0000
  C   C7        1.0  0.14053788338291173  0.38907754841538633  0.8570579231805483  1.0000
  C   C8        1.0  0.8595024552924855  0.6109243561894362  0.1429410768781452  1.0000
  C   C9        1.0  0.22868974195075248  0.17916985239902064  0.6619582105571878  1.0000
  C   C10       1.0  0.7713066333180619  0.8208173781117198  0.33803888125830645  1.0000
  C   C11       1.0  0.8199919047257467  0.19004102740469622  0.6304082274584744  1.0000
  C   C12       1.0  0.1800180837266865  0.8099626499532423  0.36960273725939885  1.0000
  C   C13       1.0  0.4231825907029714  0.9164815251198561  0.0859235003395469  1.0000
  C   C14       1.0  0.5768138258072782  0.08352482629929629  0.9140773096827741  1.0000
  C   C15       1.0  0.370630402842721  0.9240856218693096  0.8874034559055842  1.0000
  C   C16       1.0  0.6293552110243253  0.07594257003302121  0.11259532152892857  1.0000
  N   N1        1.0  0.9333640644293338  0.9877964081049914  0.7917395113960523  1.0000
  N   N2        1.0  0.0666357176605885  0.012203090260960898  0.20826007438520117  1.0000
  O   O1        1.0  0.28926528132519985  0.9226793046050192  0.9878343060334628  1.0000
  O   O2        1.0  0.7107304383155296  0.0773229217112146  0.012163514211913192  1.0000
