data_image0
_chemical_formula_structural       Zn2H44C58N6O8
_chemical_formula_sum              "Zn2 H44 C58 N6 O8"
_cell_length_a       15.292630439346535
_cell_length_b       18.24875627612959
_cell_length_c       19.651977459215296
_cell_angle_alpha    89.99965852595118
_cell_angle_beta     90.36357544454525
_cell_angle_gamma    90.00025678991204

_space_group_name_H-M_alt    "P 1"
_space_group_IT_number       1

loop_
  _space_group_symop_operation_xyz
  'x, y, z'

loop_
  _atom_site_type_symbol
  _atom_site_label
  _atom_site_symmetry_multiplicity
  _atom_site_fract_x
  _atom_site_fract_y
  _atom_site_fract_z
  _atom_site_occupancy
  Zn  Zn1       1.0  0.4999989242801066  0.42455212217210203  0.4999997601022059  1.0000
  Zn  Zn2       1.0  0.4999999813114116  0.5753169172325983  0.4999993400893317  1.0000
  H   H1        1.0  0.3603298898216778  0.0674371630475719  0.4844626825792701  1.0000
  H   H2        1.0  0.4449641214559891  0.39096301643937886  0.2834730478546135  1.0000
  H   H3        1.0  0.5524050869000093  0.6076815432402682  0.2847734538183033  1.0000
  H   H4        1.0  0.5550361593063972  0.3909634991160901  0.7165251428148238  1.0000
  H   H5        1.0  0.3598710786968768  0.5012609209851462  0.9353522983759105  1.0000
  H   H6        1.0  0.6401317549540978  0.5012663817805174  0.0646457900067645  1.0000
  H   H7        1.0  0.35910741850121053  0.4981061992519287  0.0620623565526657  1.0000
  H   H8        1.0  0.6408953982694715  0.4981077965541231  0.9379357495113466  1.0000
  H   H9        1.0  0.5976732601753698  0.30788987670526075  0.5730063234583297  1.0000
  H   H10       1.0  0.4023372408328642  0.6920262894385445  0.4269236117065134  1.0000
  H   H11       1.0  0.40232985626823864  0.30788942562050886  0.42699641454089493  1.0000
  H   H12       1.0  0.6396515700434977  0.9324532473826113  0.5156193016336275  1.0000
  H   H13       1.0  0.5976653166798728  0.6920245481087904  0.5730779834518103  1.0000
  H   H14       1.0  0.6019132387696832  0.1706438072091601  0.5767607223807545  1.0000
  H   H15       1.0  0.3988321639394103  0.8292460588939221  0.4226134998969967  1.0000
  H   H16       1.0  0.3980911016458821  0.1706439120105898  0.4232412644702989  1.0000
  H   H17       1.0  0.601166548621251  0.8292448514012989  0.5773868022096664  1.0000
  H   H18       1.0  0.7775959859375023  0.3830528319032993  0.497685620515071  1.0000
  H   H19       1.0  0.2221843218379577  0.617774644288737  0.49733256277917076  1.0000
  H   H20       1.0  0.08105423756794043  0.6869034698291755  0.49933567401184586  1.0000
  H   H21       1.0  0.9189957285548689  0.3138193304901479  0.4993934939356706  1.0000
  H   H22       1.0  0.4085897815481801  0.6576167047954017  0.8148863499415029  1.0000
  H   H23       1.0  0.63967389740656  0.06743813315260638  0.5155393734999763  1.0000
  H   H24       1.0  0.4648749458713511  0.7126470966489933  0.9139591302633007  1.0000
  H   H25       1.0  0.5559552095228429  0.6867607339182342  0.8621873651268928  1.0000
  H   H26       1.0  0.5248742137392101  0.6319561695271217  0.9330925203098488  1.0000
  H   H27       1.0  0.40671672636344186  0.34141413152568845  0.1831630546652363  1.0000
  H   H28       1.0  0.4649909294692877  0.28636860481418575  0.0855697041800241  1.0000
  H   H29       1.0  0.5551068239814045  0.31317426685426136  0.1388731963800396  1.0000
  H   H30       1.0  0.5244455804687721  0.36737265019644383  0.0671370631653048  1.0000
  H   H31       1.0  0.5914099749980224  0.6576206760382846  0.1851149201749394  1.0000
  H   H32       1.0  0.5351211801280301  0.7126492914698018  0.0860413094007271  1.0000
  H   H33       1.0  0.4440440476445604  0.6867584269960288  0.137813230676862  1.0000
  H   H34       1.0  0.36034770215515993  0.9324522778543666  0.48438347553879874  1.0000
  H   H35       1.0  0.47512475552525785  0.6319577136414409  0.0669104178996207  1.0000
  H   H36       1.0  0.593284594695881  0.34141302774649057  0.8168344002784309  1.0000
  H   H37       1.0  0.5350146798374666  0.2863666682162815  0.9144301101142105  1.0000
  H   H38       1.0  0.44489828376907087  0.31317178298696285  0.8611300275635045  1.0000
  H   H39       1.0  0.4755598067966248  0.36736982789139455  0.932861786318  1.0000
  H   H40       1.0  0.7778152783565421  0.6177751140399721  0.5026913203550336  1.0000
  H   H41       1.0  0.2223989515423811  0.3830512355776746  0.5022851182182961  1.0000
  H   H42       1.0  0.9189471368104025  0.6869039297177152  0.500725990865149  1.0000
  H   H43       1.0  0.08099489068701622  0.3138216022217648  0.5005679508875572  1.0000
  H   H44       1.0  0.44759505394973337  0.6076816339830912  0.7152270805164349  1.0000
  C   C1        1.0  0.49839596398935293  0.49909460380283827  0.3674036172144497  1.0000
  C   C2        1.0  0.46790777026335933  0.4379391773658909  0.1839145408166942  1.0000
  C   C3        1.0  0.5298801029506709  0.5612265967067386  0.18458210588889296  1.0000
  C   C4        1.0  0.5320914551478  0.4379383984163567  0.8160838911370546  1.0000
  C   C5        1.0  0.5009420053624113  0.49965476068534526  0.8523547538194904  1.0000
  C   C6        1.0  0.4990588579260021  0.49965698047274293  0.1476433368908161  1.0000
  C   C7        1.0  0.5015886215144365  0.4993686199836133  0.7087787592518637  1.0000
  C   C8        1.0  0.49841158888889964  0.4993666435273667  0.2912203485669878  1.0000
  C   C9        1.0  0.42134126854443127  0.5002866327267057  0.9637994765302834  1.0000
  C   C10       1.0  0.5786615637559437  0.5002893041732717  0.0362001438975312  1.0000
  C   C11       1.0  0.42093464725251567  0.4991141404694943  0.0347462734360704  1.0000
  C   C12       1.0  0.5016029345408058  0.4990976090017867  0.6325944699532471  1.0000
  C   C13       1.0  0.5790688288243261  0.49911369120935933  0.965251829213905  1.0000
  C   C14       1.0  0.4995519640526569  0.4997032504934609  0.0720249974502067  1.0000
  C   C15       1.0  0.5004528230131842  0.4997010997228628  0.9279731063567667  1.0000
  C   C16       1.0  0.5551266530680437  0.27460434338734524  0.5406866430281383  1.0000
  C   C17       1.0  0.44512797502285667  0.7252844246283628  0.4590706034723624  1.0000
  C   C18       1.0  0.4448769393031356  0.2746043948067509  0.45931628363771176  1.0000
  C   C19       1.0  0.554872142080285  0.7252849187079633  0.5409297787670866  1.0000
  C   C20       1.0  0.5571981550504507  0.19851313009061763  0.5420169330405926  1.0000
  C   C21       1.0  0.4432112024242586  0.8013811183484947  0.4576421221637901  1.0000
  C   C22       1.0  0.4428056817643553  0.1985131821915189  0.4579854043403913  1.0000
  C   C23       1.0  0.044648018238632424  0.63541824866482  0.49960879618181747  1.0000
  C   C24       1.0  0.5567886754233415  0.801382706509479  0.5423608847668433  1.0000
  C   C25       1.0  0.5000021388452823  0.1584320684794633  0.5000015364864581  1.0000
  C   C26       1.0  0.5000007019470305  0.8414632740804818  0.500002156727632  1.0000
  C   C27       1.0  0.32897531384379874  0.5006364432347966  0.4992519892474547  1.0000
  C   C28       1.0  0.6710229351379841  0.5006376234351393  0.5007445604829925  1.0000
  C   C29       1.0  0.4220544650170056  0.03805388748079961  0.4902270401042017  1.0000
  C   C30       1.0  0.5779490889671807  0.9618332352683652  0.509800062919858  1.0000
  C   C31       1.0  0.5779472058913699  0.0380530201278759  0.509776191606548  1.0000
  C   C32       1.0  0.42205099426694664  0.9618335547813358  0.49020255190904993  1.0000
  C   C33       1.0  0.500000916799472  0.9223011118891693  0.5000014214694062  1.0000
  C   C34       1.0  0.955328852264245  0.3653330448041104  0.4996930943044831  1.0000
  C   C35       1.0  0.5000006148825877  0.07760245040820021  0.5000017584096241  1.0000
  C   C36       1.0  0.814846268113975  0.43401308183121756  0.4991638010367155  1.0000
  C   C37       1.0  0.18502222199153817  0.5667760277218434  0.4983979429984871  1.0000
  C   C38       1.0  0.7692021132537906  0.5004350532379148  0.5005775485726502  1.0000
  C   C39       1.0  0.2307954781486076  0.5004351502946065  0.49941798234282686  1.0000
  C   C40       1.0  0.8149744395306587  0.5667766426507369  0.5016063713486714  1.0000
  C   C41       1.0  0.1851489766848716  0.4340135479934731  0.500820391468153  1.0000
  C   C42       1.0  0.9066576907515799  0.5682004749219515  0.500692631756678  1.0000
  C   C43       1.0  0.09342094754210713  0.43254314158237156  0.5003203778150862  1.0000
  C   C44       1.0  0.953526758252899  0.500365256192012  0.5001053686016732  1.0000
  C   C45       1.0  0.47058192728835035  0.560296438632605  0.7440975323573511  1.0000
  C   C46       1.0  0.04647280743039061  0.500365211777833  0.49989525798337536  1.0000
  C   C47       1.0  0.9065723224738493  0.4325430138813005  0.4996617808069105  1.0000
  C   C48       1.0  0.09333964776991624  0.5681984167977844  0.4993177831654805  1.0000
  C   C49       1.0  0.9553510404356022  0.6354210378836455  0.5004221099331757  1.0000
  C   C50       1.0  0.04466206435932211  0.3653346351059811  0.5002767125976106  1.0000
  C   C51       1.0  0.49953623061095015  0.6659465152597547  0.8914754108136121  1.0000
  C   C52       1.0  0.4989505747395669  0.33339645838638177  0.108426949523583  1.0000
  C   C53       1.0  0.5004583352351945  0.6659489871093173  0.10852426826122041  1.0000
  C   C54       1.0  0.501050713750118  0.3333928955794149  0.8915746212164706  1.0000
  C   C55       1.0  0.4677025005572163  0.4386266702226535  0.2551882309109033  1.0000
  C   C56       1.0  0.5294179537201276  0.5602953484904771  0.255900723098442  1.0000
  C   C57       1.0  0.5322980376696267  0.4386285336913431  0.7448107104966295  1.0000
  C   C58       1.0  0.47011978689896966  0.5612255911690979  0.8154176709366324  1.0000
  N   N1        1.0  0.500001242908212  0.31200472612139407  0.500001610791756  1.0000
  N   N2        1.0  0.5000002836180003  0.6878988361823913  0.4999995336471982  1.0000
  N   N3        1.0  0.43800591997870003  0.6239376431334448  0.849407101194771  1.0000
  N   N4        1.0  0.43641798111058006  0.37524125678391584  0.1492048311575189  1.0000
  N   N5        1.0  0.5619956220836574  0.6239356948336479  0.15059589084261654  1.0000
  N   N6        1.0  0.5635861313818751  0.37524421199432817  0.8507904077630855  1.0000
  O   O1        1.0  0.47936149581055815  0.4390207918283338  0.39704394747221267  1.0000
  O   O2        1.0  0.482443938472848  0.5590491508015276  0.6026200751115595  1.0000
  O   O3        1.0  0.5206370840531281  0.43902460291766215  0.6029554939042825  1.0000
  O   O4        1.0  0.5175572462800135  0.5590454798399948  0.3973792095099355  1.0000
  O   O5        1.0  0.36713983790424737  0.44025646645332744  0.5127497116786799  1.0000
  O   O6        1.0  0.6333655955387913  0.5611857466037121  0.5142525148024859  1.0000
  O   O7        1.0  0.6328574304080308  0.4402586856563389  0.4872456474487166  1.0000
  O   O8        1.0  0.3666342889396221  0.5611858878436706  0.4857452268085609  1.0000
