data_image0
_chemical_formula_structural       Zn2H60C46N8O8
_chemical_formula_sum              "Zn2 H60 C46 N8 O8"
_cell_length_a       7.545072659399972
_cell_length_b       9.211871874893099
_cell_length_c       18.16631131067581
_cell_angle_alpha    87.59953704609806
_cell_angle_beta     84.06452788144341
_cell_angle_gamma    65.8213645453525

_space_group_name_H-M_alt    "P 1"
_space_group_IT_number       1

loop_
  _space_group_symop_operation_xyz
  'x, y, z'

loop_
  _atom_site_type_symbol
  _atom_site_label
  _atom_site_symmetry_multiplicity
  _atom_site_fract_x
  _atom_site_fract_y
  _atom_site_fract_z
  _atom_site_occupancy
  Zn  Zn1       1.0  0.17155500156744805  0.6570059633722208  0.7500897473926638  1.0000
  Zn  Zn2       1.0  0.8284435285687974  0.3429949918591504  0.249910753427791  1.0000
  H   H1        1.0  0.22545115547367806  0.3281140129191442  0.9864493240514133  1.0000
  H   H2        1.0  0.4463368385928418  0.3282180647977313  0.5135048903758203  1.0000
  H   H3        1.0  0.774553659404184  0.6718798009927267  0.013548315127429994  1.0000
  H   H4        1.0  0.5536617944112409  0.6717852714818731  0.48649776101497355  1.0000
  H   H5        1.0  0.5787249252058474  0.5231539503429659  0.7931316978811362  1.0000
  H   H6        1.0  0.8985065961864367  0.5228443838691772  0.707158966929512  1.0000
  H   H7        1.0  0.42127687487913323  0.4768458145167781  0.20686814550676752  1.0000
  H   H8        1.0  0.101487936429784  0.4771565715440715  0.2928416935151929  1.0000
  H   H9        1.0  0.8199279315764939  0.05673225155987179  0.8911934462441519  1.0000
  H   H10       1.0  0.12392109548124348  0.05660588607731397  0.608708296906215  1.0000
  H   H11       1.0  0.180072516233736  0.9432675139685781  0.10880755209750956  1.0000
  H   H12       1.0  0.8760793819810928  0.9433938785390121  0.3912910488169387  1.0000
  H   H13       1.0  0.8151331590907773  0.9213236245687637  0.9637256475999504  1.0000
  H   H14       1.0  0.26359798012209285  0.9209484281801108  0.5361125560972437  1.0000
  H   H15       1.0  0.184868026174783  0.0786773308454087  0.036275297677164496  1.0000
  H   H16       1.0  0.7364011648335734  0.079051336496839  0.46388684283399306  1.0000
  H   H17       1.0  0.7626949078619136  0.35229615611490317  0.893420158339445  1.0000
  H   H18       1.0  0.8853353761157549  0.3519150849739887  0.6068328569920209  1.0000
  H   H19       1.0  0.23730763956243095  0.647704798326515  0.10657908111107865  1.0000
  H   H20       1.0  0.11466568651390222  0.6480834900000402  0.3931670394604223  1.0000
  H   H21       1.0  0.8450389130912865  0.9892934692440605  0.0928233310808366  1.0000
  H   H22       1.0  0.16569513848723727  0.9887985537220984  0.40714206468501135  1.0000
  H   H23       1.0  0.15496154460298334  0.0107062959803486  0.9071771163879843  1.0000
  H   H24       1.0  0.8343028163657352  0.011203590847536294  0.5928573345333203  1.0000
  H   H25       1.0  0.8625311776852127  0.17318457367814227  0.10691085329771248  1.0000
  H   H26       1.0  0.9646465325619644  0.17286163093620383  0.3930488269175639  1.0000
  H   H27       1.0  0.13747060263169447  0.826815191789684  0.8930900918358655  1.0000
  H   H28       1.0  0.035351412406967694  0.8271405139374719  0.6069511231736012  1.0000
  H   H29       1.0  0.5482288770208824  0.1952280755580488  0.684727388861347  1.0000
  H   H30       1.0  0.25665523152722597  0.1953641662744516  0.815513971976223  1.0000
  H   H31       1.0  0.45176966299940374  0.8047728793692882  0.3152725610862673  1.0000
  H   H32       1.0  0.7433465784417875  0.8046355982812514  0.18448532053884034  1.0000
  H   H33       1.0  0.7614948175374109  0.04888247032823049  0.7207799044667238  1.0000
  H   H34       1.0  0.1895417801263122  0.04913410160396128  0.7794323348759131  1.0000
  H   H35       1.0  0.23850565992492534  0.9511172942880959  0.2792194412564298  1.0000
  H   H36       1.0  0.8104567697780002  0.9508668530193273  0.22056706419886746  1.0000
  H   H37       1.0  0.5828637397432175  0.19667188201724167  0.7797374111867723  1.0000
  H   H38       1.0  0.2205618283862663  0.19682027188004264  0.7205272045026587  1.0000
  H   H39       1.0  0.41713657554707584  0.8033255033751132  0.2202630892030441  1.0000
  H   H40       1.0  0.7794393865314007  0.8031806826219987  0.2794720881559555  1.0000
  H   H41       1.0  0.45686022112022345  0.9836405510344403  0.6359365409459554  1.0000
  H   H42       1.0  0.5595287409273979  0.9836855054328806  0.8642200632410916  1.0000
  H   H43       1.0  0.543138186380112  0.016358023756787098  0.3640629110498209  1.0000
  H   H44       1.0  0.44046832418222703  0.016313069723018696  0.13577999283560155  1.0000
  H   H45       1.0  0.6851537028542437  0.8511886092188657  0.6640235357337543  1.0000
  H   H46       1.0  0.46341876282559735  0.8513779790826915  0.8361338820070611  1.0000
  H   H47       1.0  0.3148460470368022  0.1488099652076968  0.33597531218110516  1.0000
  H   H48       1.0  0.5365783220520938  0.14862059546512538  0.16386507232397207  1.0000
  H   H49       1.0  0.05936656657402755  0.5051094361388521  0.8825311430043424  1.0000
  H   H50       1.0  0.4355470000804902  0.5051222397416167  0.617536139830207  1.0000
  H   H51       1.0  0.9406363108617769  0.4948855680840225  0.11746710039896155  1.0000
  H   H52       1.0  0.5644451226782364  0.4948834763691251  0.382466173807181  1.0000
  H   H53       1.0  0.5710141275418648  0.29741329437224095  0.05959912445023008  1.0000
  H   H54       1.0  0.13184562957457768  0.2972373937509046  0.4404429674156558  1.0000
  H   H55       1.0  0.4289870873758018  0.7025876601298079  0.9404001682083842  1.0000
  H   H56       1.0  0.8681536182489256  0.7027647519742712  0.5595585820859197  1.0000
  H   H57       1.0  0.5373364741685049  0.13599713187914378  0.024610820655659903  1.0000
  H   H58       1.0  0.3269544560108386  0.13589133346524557  0.47541705659467215  1.0000
  H   H59       1.0  0.4626647308651286  0.8640038229269389  0.975389022875788  1.0000
  H   H60       1.0  0.6730461539714413  0.8641108112871831  0.5245827870803195  1.0000
  C   C1        1.0  0.4942007103864442  0.011631470249632497  0.7500901129641374  1.0000
  C   C2        1.0  0.5057984246851889  0.9883682947313586  0.24990983683993298  1.0000
  C   C3        1.0  0.3087370986856258  0.3692463183458229  0.9445318592010064  1.0000
  C   C4        1.0  0.32205511771321227  0.36922898471707544  0.5555071892643254  1.0000
  C   C5        1.0  0.6912672536608255  0.6307510656484893  0.055466278073218696  1.0000
  C   C6        1.0  0.6779434124230335  0.6307719705142958  0.44449331155612254  1.0000
  C   C7        1.0  0.5093545578083437  0.3237237278256159  0.9477751381777106  1.0000
  C   C8        1.0  0.16702878672212057  0.3235767264280013  0.5523069505366107  1.0000
  C   C9        1.0  0.4906485846673477  0.6762760366694635  0.05222410112926918  1.0000
  C   C10       1.0  0.8329690059587946  0.6764230389176544  0.4476936033483766  1.0000
  C   C11       1.0  0.45745402450934597  0.772614254210353  0.6896591376022483  1.0000
  C   C12       1.0  0.7697910420285585  0.7725616948918769  0.8104663014918213  1.0000
  C   C13       1.0  0.5425431830042627  0.22738670077760048  0.3103408655534493  1.0000
  C   C14       1.0  0.23020615560101737  0.22743926040011783  0.1895342525367169  1.0000
  C   C15       1.0  0.5056966853709851  0.4773876427807693  0.8369075939336594  1.0000
  C   C16       1.0  0.017177885340615383  0.4771534287958586  0.6632927236782675  1.0000
  C   C17       1.0  0.4943051245980359  0.5226121217749335  0.16309169858140385  1.0000
  C   C18       1.0  0.9828206447956308  0.5228475264355196  0.33670777714218747  1.0000
  C   C19       1.0  0.8767712054901226  0.009077297368243397  0.9444059129634181  1.0000
  C   C20       1.0  0.11438168933729287  0.008944982031643199  0.5555300980907842  1.0000
  C   C21       1.0  0.12323058471081778  0.9909224677955424  0.05559448129731949  1.0000
  C   C22       1.0  0.8856201107476874  0.9910547828281009  0.4444697452971197  1.0000
  C   C23       1.0  0.6076922253597702  0.38136713571383735  0.8928309311896425  1.0000
  C   C24       1.0  0.011167481541839795  0.3811118361147903  0.6073430502483815  1.0000
  C   C25       1.0  0.3923128446739455  0.6186314387742797  0.10716825476571049  1.0000
  C   C26       1.0  0.9888291210363817  0.6188903091235503  0.3926575039237007  1.0000
  C   C27       1.0  0.9026486930430621  0.074959208374743  0.06758010507920889  1.0000
  C   C28       1.0  0.022530074336451416  0.07472889185405047  0.43239559027125535  1.0000
  C   C29       1.0  0.09735250210653125  0.9250417467353813  0.9324202893250724  1.0000
  C   C30       1.0  0.9774684755678676  0.9252720627692381  0.5676038088035255  1.0000
  C   C31       1.0  0.6044318947380702  0.11876305477126439  0.7324808131345362  1.0000
  C   C32       1.0  0.27682887421948277  0.118906806157554  0.7677442257117091  1.0000
  C   C33       1.0  0.39556650287822503  0.8812355203240042  0.2675191897340737  1.0000
  C   C34       1.0  0.7231702707361833  0.8810929585193958  0.23225517321952782  1.0000
  C   C35       1.0  0.5284978379065352  0.9060280726700253  0.6815313831187024  1.0000
  C   C36       1.0  0.5653780985027483  0.906056403972819  0.8186183002282728  1.0000
  C   C37       1.0  0.47150130704913107  0.09397169200692446  0.3184680158125345  1.0000
  C   C38       1.0  0.4346197139462404  0.09394336076475437  0.18138115191104723  1.0000
  C   C39       1.0  0.21521919059330946  0.46669765120545736  0.8877676297907723  1.0000
  C   C40       1.0  0.3181543190085918  0.4666658854143434  0.6123176235634983  1.0000
  C   C41       1.0  0.7847850193491652  0.5332973529567937  0.11223056040444848  1.0000
  C   C42       1.0  0.6818403362435389  0.5333374504390491  0.3876840857058851  1.0000
  C   C43       1.0  0.6074112057838192  0.22031348479175245  0.010568949658299702  1.0000
  C   C44       1.0  0.172493885509077  0.22016299571987463  0.4894527630577626  1.0000
  C   C45       1.0  0.3925905943011543  0.7796862800679916  0.9894308937296044  1.0000
  C   C46       1.0  0.8275059771338465  0.7798379594508731  0.510547684554602  1.0000
  N   N1        1.0  0.3128456274318125  0.5193000522830786  0.8341282613384133  1.0000
  N   N2        1.0  0.16804177901960324  0.5191607687795566  0.6660335055639874  1.0000
  N   N3        1.0  0.6871554549659111  0.4806985220828607  0.16587053336835564  1.0000
  N   N4        1.0  0.831955408725932  0.4808401868164864  0.3339675993373844  1.0000
  N   N5        1.0  0.8181786966401104  0.13843482757280157  0.9979923761749416  1.0000
  N   N6        1.0  0.04367149001926411  0.13825203760943336  0.5019762807446424  1.0000
  N   N7        1.0  0.1818230836768039  0.8615649378950321  0.002008568958636703  1.0000
  N   N8        1.0  0.9563276549364019  0.8617477270675165  0.4980231181865945  1.0000
  O   O1        1.0  0.2799093934435178  0.8129187944509225  0.7194044225931291  1.0000
  O   O2        1.0  0.9070561381720595  0.8127617633046565  0.7806914186578877  1.0000
  O   O3        1.0  0.7200891564608013  0.18708216017236617  0.28059497648165166  1.0000
  O   O4        1.0  0.0929416545088557  0.1872380020409992  0.21930913522710674  1.0000
  O   O5        1.0  0.568522631939686  0.6349647965635086  0.667643707209393  1.0000
  O   O6        1.0  0.7963590053265792  0.6349718403469422  0.8325146342869726  1.0000
  O   O7        1.0  0.43147650313194674  0.36503496841748256  0.3323562425946775  1.0000
  O   O8        1.0  0.20363935275357656  0.3650267359644984  0.16748757207297865  1.0000
