data_image0
_chemical_formula_structural       Zn2H32C44N4O8
_chemical_formula_sum              "Zn2 H32 C44 N4 O8"
_cell_length_a       7.92324126329051
_cell_length_b       7.9232117203405705
_cell_length_c       14.92986425030321
_cell_angle_alpha    97.93267791831568
_cell_angle_beta     97.93216111261628
_cell_angle_gamma    91.93178200465476

_space_group_name_H-M_alt    "P 1"
_space_group_IT_number       1

loop_
  _space_group_symop_operation_xyz
  'x, y, z'

loop_
  _atom_site_type_symbol
  _atom_site_label
  _atom_site_symmetry_multiplicity
  _atom_site_fract_x
  _atom_site_fract_y
  _atom_site_fract_z
  _atom_site_occupancy
  Zn  Zn1       1.0  0.03617962798023198  0.963820070054929  0.7500025830907048  1.0000
  Zn  Zn2       1.0  0.9638205063870656  0.03619078919481209  0.249999528217117  1.0000
  H   H1        1.0  0.854907580212668  0.5202256269419934  0.5336563882261771  1.0000
  H   H2        1.0  0.520232856446917  0.8548943603445592  0.03365762032753136  1.0000
  H   H3        1.0  0.1450927005872984  0.4797877958526512  0.4663465794203673  1.0000
  H   H4        1.0  0.47976739296552745  0.14509358668708927  0.966346271407346  1.0000
  H   H5        1.0  0.8113696569432843  0.21333499029612568  0.45764546102581244  1.0000
  H   H6        1.0  0.2133442076920602  0.8113614299905548  0.9576459669502737  1.0000
  H   H7        1.0  0.18863928471574104  0.7866745543843833  0.5423544864889536  1.0000
  H   H8        1.0  0.7866537070853212  0.188630354725035  0.04235869807256879  1.0000
  H   H9        1.0  0.0661384346090799  0.3373179411667521  0.7808588960820939  1.0000
  H   H10       1.0  0.33732076879991263  0.06614268026002179  0.2808576651513377  1.0000
  H   H11       1.0  0.9338678682188474  0.662690302771935  0.21913944063479818  1.0000
  H   H12       1.0  0.6626812948965507  0.9338566846789289  0.7191431180775536  1.0000
  H   H13       1.0  0.8896947111710817  0.9823378397849535  0.5534392609074601  1.0000
  H   H14       1.0  0.9823467672445572  0.8896964444143122  0.05343666584340669  1.0000
  H   H15       1.0  0.11031037400098849  0.01767045985076979  0.44656234509346854  1.0000
  H   H16       1.0  0.01765135018577269  0.11029916861470207  0.9465682765749219  1.0000
  H   H17       1.0  0.38134086961742497  0.10485283602125857  0.5756614226969319  1.0000
  H   H18       1.0  0.10486615567108967  0.38133127219721513  0.07566453295748939  1.0000
  H   H19       1.0  0.6186586010039506  0.8951440654309052  0.42434437135291597  1.0000
  H   H20       1.0  0.8951329645649935  0.6186628616629191  0.9243283194024484  1.0000
  H   H21       1.0  0.37599924683906494  0.34699344437758123  0.6989459364024312  1.0000
  H   H22       1.0  0.3470150357009061  0.3759974709655579  0.19894424286680126  1.0000
  H   H23       1.0  0.623993818243406  0.653003418153119  0.30105740463243785  1.0000
  H   H24       1.0  0.6529843320777075  0.6240017446405727  0.8010476365369854  1.0000
  H   H25       1.0  0.44497922953166835  0.6445044661791357  0.673596094696677  1.0000
  H   H26       1.0  0.6445208331740346  0.44498152842664485  0.17358443402566337  1.0000
  H   H27       1.0  0.5550150871987682  0.3554923746623827  0.32640599127934417  1.0000
  H   H28       1.0  0.3554785455020593  0.5550189066042036  0.8264041808012903  1.0000
  H   H29       1.0  0.4614754849218414  0.156696747660483  0.424987299808265  1.0000
  H   H30       1.0  0.15669555139461977  0.46146626221053566  0.9249890453507843  1.0000
  H   H31       1.0  0.5385250011356603  0.843295061692451  0.575018883547294  1.0000
  H   H32       1.0  0.8432993968277669  0.5385214768430943  0.07500241000107617  1.0000
  C   C1        1.0  0.9985688463245734  0.6287326613420559  0.7126880159198448  1.0000
  C   C2        1.0  0.6287344326598685  0.9985627347670414  0.2126914496105456  1.0000
  C   C3        1.0  0.0014324834703955867  0.37127691144998204  0.2873134192723795  1.0000
  C   C4        1.0  0.37126751859602786  0.0014341006348530983  0.7873104915048187  1.0000
  C   C5        1.0  0.9638010060514759  0.4507392662387061  0.6628427733442023  1.0000
  C   C6        1.0  0.4507421796951903  0.9637901503259556  0.16284359948765828  1.0000
  C   C7        1.0  0.036204326663124696  0.5492741151430208  0.3371578597005751  1.0000
  C   C8        1.0  0.5492621964081508  0.03620414616838728  0.8371590036216999  1.0000
  C   C9        1.0  0.8910670731021141  0.4152648254787792  0.5710169553779565  1.0000
  C   C10       1.0  0.41527276080407194  0.8910543911045534  0.07101925794056999  1.0000
  C   C11       1.0  0.10893650111553647  0.5847396108529421  0.4289822712443367  1.0000
  C   C12       1.0  0.5847276123796447  0.10893609680009318  0.9289841473162354  1.0000
  C   C13       1.0  0.8654658482581327  0.24582436796650595  0.5293421041184415  1.0000
  C   C14       1.0  0.24583264878162228  0.8654556852398015  0.02934090580841797  1.0000
  C   C15       1.0  0.13454326249497234  0.7541877629308117  0.4706600425518416  1.0000
  C   C16       1.0  0.7541664052031505  0.13453354824955707  0.9706636620420637  1.0000
  C   C17       1.0  0.007836395120037287  0.3142513564738535  0.7094362021148014  1.0000
  C   C18       1.0  0.3142545578612825  0.007835744322463298  0.20943525113958117  1.0000
  C   C19       1.0  0.992171362442015  0.6857594860003146  0.2905650929239698  1.0000
  C   C20       1.0  0.6857474609455919  0.9921623671839083  0.7905667824409474  1.0000
  C   C21       1.0  0.9104953282401809  0.11717003321811599  0.5812880134299405  1.0000
  C   C22       1.0  0.1171776606772141  0.9104925400534826  0.0812876653888992  1.0000
  C   C23       1.0  0.0895109972491426  0.8828382333924764  0.41871166610375343  1.0000
  C   C24       1.0  0.8828227800574806  0.08949922395564869  0.9187158323330562  1.0000
  C   C25       1.0  0.41295819301348763  0.23357927932677564  0.562815504426105  1.0000
  C   C26       1.0  0.2335922764149601  0.41295605411801256  0.06281553973423117  1.0000
  C   C27       1.0  0.5870360339377851  0.7664150546495987  0.437189082253191  1.0000
  C   C28       1.0  0.7664059185973927  0.5870444706177338  0.9371783586019544  1.0000
  C   C29       1.0  0.41026225035640346  0.37185510159376617  0.6335566564691035  1.0000
  C   C30       1.0  0.3718697354326466  0.41026274767724397  0.1335539917321711  1.0000
  C   C31       1.0  0.5897296079676906  0.628143036058688  0.36644668927296914  1.0000
  C   C32       1.0  0.6281284029261941  0.5897377203787357  0.8664365495620171  1.0000
  C   C33       1.0  0.45113347420574007  0.5364832919493948  0.6203784867452311  1.0000
  C   C34       1.0  0.5364919631599181  0.45114163783188127  0.12037432329776011  1.0000
  C   C35       1.0  0.5488556101852851  0.4635109927522833  0.37962306326864587  1.0000
  C   C36       1.0  0.4635048786613821  0.5488575984807152  0.8796187234069135  1.0000
  C   C37       1.0  0.49892375446165  0.5699815836210148  0.5359942718368486  1.0000
  C   C38       1.0  0.5699845511958301  0.4989295771472228  0.03598690731482178  1.0000
  C   C39       1.0  0.5010653412600732  0.4300127124166123  0.4640079495854295  1.0000
  C   C40       1.0  0.4300096853532479  0.501069600520168  0.9640026068319327  1.0000
  C   C41       1.0  0.4567649466411367  0.26237173235312367  0.4796894794397061  1.0000
  C   C42       1.0  0.2623721356900859  0.4567623033690963  0.979688862017454  1.0000
  C   C43       1.0  0.543229381419998  0.7376251198243509  0.5203132779447159  1.0000
  C   C44       1.0  0.7376219095367347  0.5432330573208191  0.02030104614222239  1.0000
  N   N1        1.0  0.9813888525612599  0.15124049704058956  0.6697107978393007  1.0000
  N   N2        1.0  0.15124634545402668  0.9813920796480671  0.16970948382780893  1.0000
  N   N3        1.0  0.018616153729126894  0.8487665151547006  0.33029004428806985  1.0000
  N   N4        1.0  0.8487544779251691  0.018607318316014695  0.830293225868324  1.0000
  O   O1        1.0  0.06357376640141149  0.6521060555136058  0.7952947879054832  1.0000
  O   O2        1.0  0.6521059550263715  0.06356234168142547  0.29529625760473266  1.0000
  O   O3        1.0  0.9364263117455991  0.3479035389676141  0.20470790234558214  1.0000
  O   O4        1.0  0.3478972705388799  0.936434494703192  0.7047057712685927  1.0000
  O   O5        1.0  0.9590471211202852  0.7507909927733322  0.665466670297853  1.0000
  O   O6        1.0  0.750794496661385  0.9590429956140126  0.16546731979065749  1.0000
  O   O7        1.0  0.04095667841172459  0.24921729454371888  0.33453417653672085  1.0000
  O   O8        1.0  0.2492063716073929  0.04095765578263408  0.8345341395538382  1.0000
