data_image0
_chemical_formula_structural       Cu4H20C20N8Cl4O12
_chemical_formula_sum              "Cu4 H20 C20 N8 Cl4 O12"
_cell_length_a       6.077945156874514
_cell_length_b       9.721425161101457
_cell_length_c       13.37842041347482
_cell_angle_alpha    104.90315168118353
_cell_angle_beta     90.00067161210546
_cell_angle_gamma    108.20962648714972

_space_group_name_H-M_alt    "P 1"
_space_group_IT_number       1

loop_
  _space_group_symop_operation_xyz
  'x, y, z'

loop_
  _atom_site_type_symbol
  _atom_site_label
  _atom_site_symmetry_multiplicity
  _atom_site_fract_x
  _atom_site_fract_y
  _atom_site_fract_z
  _atom_site_occupancy
  Cu  Cu1       1.0  0.056368267803534884  0.23310935225819657  0.6461134351701076  1.0000
  Cu  Cu2       1.0  0.8241189697517586  0.7666535943741626  0.8538933561515518  1.0000
  Cu  Cu3       1.0  0.9435341382172169  0.7669770807831003  0.3539496996033407  1.0000
  Cu  Cu4       1.0  0.17606821533963313  0.23344628767464576  0.1461797895159549  1.0000
  H   H1        1.0  0.4869501339108383  0.328095670416012  0.34222611684725723  1.0000
  H   H2        1.0  0.16011994542409289  0.6725990921849887  0.1583096960736867  1.0000
  H   H3        1.0  0.5130859027994392  0.6725245576565798  0.6580878706417579  1.0000
  H   H4        1.0  0.8404819928371908  0.32797161897230614  0.8419874862582332  1.0000
  H   H5        1.0  0.7691023416769485  0.14377658842958857  0.26441667694084703  1.0000
  H   H6        1.0  0.6254654647358677  0.8558290505341477  0.2355255370807114  1.0000
  H   H7        1.0  0.23094970078425825  0.8559937795077136  0.7355711895626056  1.0000
  H   H8        1.0  0.37413481992435055  0.14382425205658939  0.764470161890827  1.0000
  H   H9        1.0  0.7118626385188094  0.11213277224462816  0.4462753544179349  1.0000
  H   H10       1.0  0.5999573751685008  0.8873094780564446  0.05340696538721088  1.0000
  H   H11       1.0  0.28812544644031163  0.8877663471075795  0.5535977486083751  1.0000
  H   H12       1.0  0.3999200184385856  0.11246368622188645  0.9464341748996359  1.0000
  H   H13       1.0  0.9000969153841895  0.4550149561432024  0.6298961251397586  1.0000
  H   H14       1.0  0.44577657518895825  0.5447914611523149  0.869958746900842  1.0000
  H   H15       1.0  0.09972551355620149  0.5449740454246382  0.37002904945408227  1.0000
  H   H16       1.0  0.5543544089506939  0.45514008081752194  0.1299727910033539  1.0000
  H   H17       1.0  0.05401257574109759  0.5362536047502289  0.7398157853178232  1.0000
  H   H18       1.0  0.5178914449711841  0.4635613830329393  0.7599512677935394  1.0000
  H   H19       1.0  0.9457614680036673  0.46372747213898463  0.2601228449058084  1.0000
  H   H20       1.0  0.48234898583288555  0.5363981979665482  0.24000648468808078  1.0000
  C   C1        1.0  0.27831757605473234  0.2746498626938775  0.4669049276869188  1.0000
  C   C2        1.0  0.004642450113529279  0.7253108031362602  0.033200867823474325  1.0000
  C   C3        1.0  0.7215090102061911  0.7253342902903983  0.5331157572816209  1.0000
  C   C4        1.0  0.995466225181197  0.27460573549625183  0.9668332360624345  1.0000
  C   C5        1.0  0.312937157786955  0.2815860090006695  0.36508782917658067  1.0000
  C   C6        1.0  0.032558844042469656  0.718795924927271  0.13508793056359275  1.0000
  C   C7        1.0  0.6869455017403256  0.718671528066395  0.6349769087520085  1.0000
  C   C8        1.0  0.9677845834119766  0.2814288780641547  0.8649908215253601  1.0000
  C   C9        1.0  0.9163642259263585  0.17679029072429844  0.32210637625720295  1.0000
  C   C10       1.0  0.739742913820379  0.8230034752107402  0.1777880055024568  1.0000
  C   C11       1.0  0.08381931345809342  0.8231377721596759  0.677852162703047  1.0000
  C   C12       1.0  0.25996268677471335  0.17686045901994876  0.822171151405797  1.0000
  C   C13       1.0  0.8831835537283083  0.16325181556394605  0.4226536596207993  1.0000
  C   C14       1.0  0.7202529143980813  0.8364302511810849  0.07725904875390908  1.0000
  C   C15       1.0  0.11686941983793289  0.836721139662615  0.5773454814714256  1.0000
  C   C16       1.0  0.2795611996875991  0.16343353099634336  0.9227396961338599  1.0000
  C   C17       1.0  0.4701170648825652  0.3383634293939153  0.5533099217986646  1.0000
  C   C18       1.0  0.13257807592725623  0.6615097121556206  0.946799361602771  1.0000
  C   C19       1.0  0.5298594373840828  0.6616309843887509  0.44667158669855667  1.0000
  C   C20       1.0  0.8674112213996353  0.33841486484068645  0.05319365076907449  1.0000
  N   N1        1.0  0.06448688509844668  0.21401704258916263  0.49408668698023905  1.0000
  N   N2        1.0  0.8509435437946494  0.7855455941959025  0.005878159789134033  1.0000
  N   N3        1.0  0.9354510475337182  0.7858377109787612  0.505915589072238  1.0000
  N   N4        1.0  0.14885723438526816  0.21417634604290478  0.9941215072172864  1.0000
  N   N5        1.0  0.13113529785799474  0.23408992110999807  0.2938897505284855  1.0000
  N   N6        1.0  0.8977794263268919  0.766197075484314  0.20615980990272925  1.0000
  N   N7        1.0  0.8689844359141078  0.7660001012775981  0.7061097789292958  1.0000
  N   N8        1.0  0.10224515503037422  0.23391652992018672  0.7938576185987569  1.0000
  Cl  Cl1       1.0  0.6918323356111672  0.07370264638454674  0.6336601230922554  1.0000
  Cl  Cl2       1.0  0.6185345232416923  0.9258381016025513  0.8663769807556606  1.0000
  Cl  Cl3       1.0  0.30808690690074075  0.9262726750329622  0.36631031187184243  1.0000
  Cl  Cl4       1.0  0.38151852080741844  0.07418106280816521  0.13360695066189265  1.0000
  O   O1        1.0  0.4042932448774509  0.32336955052326743  0.6427286660070235  1.0000
  O   O2        1.0  0.08193957570686207  0.6764997776235193  0.8573382646880459  1.0000
  O   O3        1.0  0.595684999497884  0.6767204834512274  0.35727086499944244  1.0000
  O   O4        1.0  0.9182302269468395  0.32360482713262695  0.14267447812427037  1.0000
  O   O5        1.0  0.6724064580345158  0.4025409802810744  0.5351432701758654  1.0000
  O   O6        1.0  0.2705771612294328  0.5972020836257671  0.9648989229012553  1.0000
  O   O7        1.0  0.32752026100538967  0.5974098078325769  0.464762742818415  1.0000
  O   O8        1.0  0.7293888257079999  0.4026462583329363  0.0350079630227711  1.0000
  O   O9        1.0  0.04309161936007651  0.46478062403402737  0.6710702548426895  1.0000
  O   O10       1.0  0.5787324635678885  0.5349920464546115  0.8286838140949369  1.0000
  O   O11       1.0  0.9567116623979433  0.5352161510696833  0.328884788854907  1.0000
  O   O12       1.0  0.4214492038366517  0.46496188761897655  0.17128034853535473  1.0000
