data_image0
_chemical_formula_structural       Zn4H44C60N8O16
_chemical_formula_sum              "Zn4 H44 C60 N8 O16"
_cell_length_a       7.750240352693461
_cell_length_b       14.860809425793375
_cell_length_c       16.10718440855651
_cell_angle_alpha    104.73750698015454
_cell_angle_beta     90.0107030055968
_cell_angle_gamma    105.1020890564386

_space_group_name_H-M_alt    "P 1"
_space_group_IT_number       1

loop_
  _space_group_symop_operation_xyz
  'x, y, z'

loop_
  _atom_site_type_symbol
  _atom_site_label
  _atom_site_symmetry_multiplicity
  _atom_site_fract_x
  _atom_site_fract_y
  _atom_site_fract_z
  _atom_site_occupancy
  Zn  Zn1       1.0  0.5713726147596391  0.6410604549406784  0.30424214992914494  1.0000
  Zn  Zn2       1.0  0.9300485169781753  0.35877972395249463  0.1956568138452894  1.0000
  Zn  Zn3       1.0  0.4286257200448915  0.35893971592245305  0.6957555326991026  1.0000
  Zn  Zn4       1.0  0.06995461401179888  0.641219716528461  0.8043413117988294  1.0000
  H   H1        1.0  0.6499144952235695  0.47582025159836394  0.2798609662172993  1.0000
  H   H2        1.0  0.1738236568284393  0.5240751659391449  0.220108275294443  1.0000
  H   H3        1.0  0.3500841859087558  0.5241806111930956  0.7201393686310807  1.0000
  H   H4        1.0  0.8261789024500171  0.47592571193679584  0.7798908216562737  1.0000
  H   H5        1.0  0.5116757811019426  0.48827401773993967  0.35826478419155444  1.0000
  H   H6        1.0  0.022959936398429193  0.5116979632613051  0.1417721010041859  1.0000
  H   H7        1.0  0.48832326484618  0.5117275751753781  0.6417351078120248  1.0000
  H   H8        1.0  0.9770462756424222  0.4883050590224298  0.8582293815755975  1.0000
  H   H9        1.0  0.6607496544613054  0.7718748631588351  0.48637820528220727  1.0000
  H   H10       1.0  0.8887363794013294  0.22805686159052382  0.013484412623519388  1.0000
  H   H11       1.0  0.33923944169533365  0.2281274756751941  0.51362000550845  1.0000
  H   H12       1.0  0.11126730850976678  0.7719411109390178  0.9865152177659553  1.0000
  H   H13       1.0  0.9400322928873734  0.8852992624309695  0.5707976969502297  1.0000
  H   H14       1.0  0.054730387286568316  0.11467758354057621  0.9290623098701332  1.0000
  H   H15       1.0  0.05995595360047899  0.11469363043370606  0.42920255687317876  1.0000
  H   H16       1.0  0.9452637498341049  0.8853167693135262  0.07093705843475823  1.0000
  H   H17       1.0  0.200754468656541  0.8545409522130852  0.3311480118857446  1.0000
  H   H18       1.0  0.3465356922533119  0.14548661078565311  0.16867948362228447  1.0000
  H   H19       1.0  0.7992464133702128  0.14545914976891078  0.6688552419449252  1.0000
  H   H20       1.0  0.6534665133021419  0.8545135598837417  0.8313181991342589  1.0000
  H   H21       1.0  0.9141081175890162  0.7450255959719739  0.2589315596617325  1.0000
  H   H22       1.0  0.1693643697928096  0.2550360045526219  0.24091365011967975  1.0000
  H   H23       1.0  0.08588855105661249  0.25497382191454676  0.7410684228075013  1.0000
  H   H24       1.0  0.8306429967638848  0.7449641658584695  0.759084032807948  1.0000
  H   H25       1.0  0.24707530564628405  0.9771483245355341  0.5752958910272952  1.0000
  H   H26       1.0  0.2699228336772491  0.022807864439947402  0.92457776909324  1.0000
  H   H27       1.0  0.7529156838667249  0.022842309011828398  0.4247112625757055  1.0000
  H   H28       1.0  0.730071100245297  0.9771886635721144  0.07542150866046878  1.0000
  H   H29       1.0  0.43869259362607227  0.9356793004369662  0.4072983433263532  1.0000
  H   H30       1.0  0.5030022046607101  0.0643845460154466  0.0926415661261544  1.0000
  H   H31       1.0  0.5613062657280636  0.064314169252782  0.5927138482541635  1.0000
  H   H32       1.0  0.4969992638679555  0.9356141491279996  0.9073582403459639  1.0000
  H   H33       1.0  0.9632089522523445  0.5736561781749002  0.2981963082621988  1.0000
  H   H34       1.0  0.38909215901883704  0.4261875887310893  0.201776860522024  1.0000
  H   H35       1.0  0.03678808120908172  0.4263439698354787  0.7018032313622342  1.0000
  H   H36       1.0  0.6109131876559603  0.5738111214968455  0.7982217080524306  1.0000
  H   H37       1.0  0.20004929142415742  0.6526506085753635  0.5575564802434056  1.0000
  H   H38       1.0  0.5467608081073081  0.34725337804911044  0.942393104784017  1.0000
  H   H39       1.0  0.7999500666664899  0.3473567719862841  0.4424442020071666  1.0000
  H   H40       1.0  0.45324669418385355  0.6527496441700437  0.05760837783854101  1.0000
  H   H41       1.0  0.6273438408379164  0.5521578467159854  0.5085398050517327  1.0000
  H   H42       1.0  0.07465623346428166  0.4478394714929833  0.9914261571969973  1.0000
  H   H43       1.0  0.37265571305565703  0.4478473434094851  0.49146220577600264  1.0000
  H   H44       1.0  0.9253494290506481  0.5521650340203833  0.008572582611463996  1.0000
  C   C1        1.0  0.7838073568801462  0.7947598280137597  0.4556099455938281  1.0000
  C   C2        1.0  0.9890387908505147  0.20522471027899059  0.044242151331395994  1.0000
  C   C3        1.0  0.21618453037043392  0.20524035081137273  0.544387117807581  1.0000
  C   C4        1.0  0.010961598021175628  0.7947718250492952  0.9557565076231639  1.0000
  C   C5        1.0  0.9394471477796457  0.8570140950714203  0.5012997013219262  1.0000
  C   C6        1.0  0.08256645727487918  0.14304568622809197  0.9985420260992653  1.0000
  C   C7        1.0  0.06054457415567068  0.14298317083277814  0.49869851448845276  1.0000
  C   C8        1.0  0.9174296923324902  0.856950111530949  0.0014576945847792268  1.0000
  C   C9        1.0  0.09630875142845953  0.8815451390160335  0.4586533635419415  1.0000
  C   C10       1.0  0.21489445366380983  0.11850548702619788  0.041194504151391705  1.0000
  C   C11       1.0  0.9036910509413116  0.11845280315080228  0.5413487427711698  1.0000
  C   C12       1.0  0.7851053671939565  0.8814924933361823  0.9588045070967864  1.0000
  C   C13       1.0  0.08501651594483668  0.8409447125531742  0.3690067694249777  1.0000
  C   C14       1.0  0.2443429899515265  0.159097057230653  0.1308397623981676  1.0000
  C   C15       1.0  0.9149812249625741  0.15905684987028929  0.6309955985877878  1.0000
  C   C16       1.0  0.7556581248541505  0.8409009307062547  0.8691586298797844  1.0000
  C   C17       1.0  0.9249688249154173  0.7800488095693863  0.3276247377097476  1.0000
  C   C18       1.0  0.1451344814730149  0.2199677743430613  0.1722225493543235  1.0000
  C   C19       1.0  0.07503131178248168  0.21995496607843276  0.67237444477243  1.0000
  C   C20       1.0  0.8548705040835928  0.780030213400117  0.8277758430519455  1.0000
  C   C21       1.0  0.25899780902264513  0.945490268215387  0.507059143381113  1.0000
  C   C22       1.0  0.3135799733926348  0.05454223556243678  0.9928077045411072  1.0000
  C   C23       1.0  0.7409976007672157  0.05449888190860009  0.4929507531215194  1.0000
  C   C24       1.0  0.6864207839924532  0.9454550375288234  0.007189892555672379  1.0000
  C   C25       1.0  0.4219085909624525  0.9679242597132002  0.4747981847524727  1.0000
  C   C26       1.0  0.4539832403620918  0.032098585981337587  0.025146749302585595  1.0000
  C   C27       1.0  0.5780921303535109  0.03206777251698159  0.5252130355642208  1.0000
  C   C28       1.0  0.5460106861652535  0.9678979267525065  0.9748537664770964  1.0000
  C   C29       1.0  0.779717651222299  0.5556825024987971  0.3964302956076367  1.0000
  C   C30       1.0  0.2235509152512165  0.4442294004402427  0.1035362061627367  1.0000
  C   C31       1.0  0.22028102991002643  0.4443183602926624  0.6035700392407434  1.0000
  C   C32       1.0  0.7764536528163362  0.5557729147015279  0.8964638621801128  1.0000
  C   C33       1.0  0.9508821538659261  0.5796460531366775  0.3666213308078525  1.0000
  C   C34       1.0  0.37072283028382447  0.42019710552728634  0.1333484349477914  1.0000
  C   C35       1.0  0.049117666991840246  0.4203519272257024  0.6333776804403186  1.0000
  C   C36       1.0  0.629285044218328  0.5798066620939507  0.8666513668039925  1.0000
  C   C37       1.0  0.10228329533883607  0.614593891393355  0.4245619494524888  1.0000
  C   C38       1.0  0.48709960040520867  0.3852061266406181  0.07538954683059976  1.0000
  C   C39       1.0  0.8977177704911838  0.3854091617051267  0.5754370569042706  1.0000
  C   C40       1.0  0.5129091616485938  0.61480199887108  0.9246094548485928  1.0000
  C   C41       1.0  0.08208881340343777  0.6268634469409733  0.5127199006794926  1.0000
  C   C42       1.0  0.45461575926612596  0.3730203131536881  0.9872475098536597  1.0000
  C   C43       1.0  0.9179073961726728  0.3731453787839241  0.4872811337791489  1.0000
  C   C44       1.0  0.5453902717621943  0.6269849301226528  0.012750168097006983  1.0000
  C   C45       1.0  0.9115260477390307  0.6040574302085346  0.5427136653155813  1.0000
  C   C46       1.0  0.30694555758597625  0.395934322029774  0.9572700163042214  1.0000
  C   C47       1.0  0.08846820572124156  0.3959449007280752  0.4572851646591402  1.0000
  C   C48       1.0  0.6930588109810429  0.604070175909065  0.04272934247445188  1.0000
  C   C49       1.0  0.7599208922398757  0.5688047101735733  0.4844341827767663  1.0000
  C   C50       1.0  0.19058472640259078  0.43116772546185433  0.015537234338410092  1.0000
  C   C51       1.0  0.24007428295731606  0.43119688293548103  0.5155657090985102  1.0000
  C   C52       1.0  0.8094156060982344  0.5688338597497802  0.9844632767209305  1.0000
  C   C53       1.0  0.2876932412824544  0.6362843054649262  0.3950338653603255  1.0000
  C   C54       1.0  0.6508764929870522  0.36348267234077974  0.10483973042695276  1.0000
  C   C55       1.0  0.7123063726795922  0.3637158424162977  0.6049656743496428  1.0000
  C   C56       1.0  0.34912643480478783  0.6365189432981354  0.8951583046659763  1.0000
  C   C57       1.0  0.8916889927957495  0.6131336589471488  0.6370096103819165  1.0000
  C   C58       1.0  0.278398926357724  0.3869858363859464  0.8629763248692015  1.0000
  C   C59       1.0  0.10830933461357967  0.38686649663776507  0.3629893102722974  1.0000
  C   C60       1.0  0.7216076615917261  0.6130179389389809  0.13702285782682114  1.0000
  N   N1        1.0  0.7757971813863734  0.7568575454114211  0.3697530421577255  1.0000
  N   N2        1.0  0.018993289030042593  0.24311239952163527  0.13010701959556306  1.0000
  N   N3        1.0  0.22419708316670037  0.24314480844251551  0.6302439307780361  1.0000
  N   N4        1.0  0.981006738723458  0.756883413321894  0.869891463190811  1.0000
  N   N5        1.0  0.6274088034120169  0.5234168775734744  0.3354543261773059  1.0000
  N   N6        1.0  0.10358932132250943  0.4765075786566442  0.1645314487716618  1.0000
  N   N7        1.0  0.37258987772030844  0.4765839852179779  0.6645460086710742  1.0000
  N   N8        1.0  0.8964145282062501  0.5234932991547154  0.8354676482218224  1.0000
  O   O1        1.0  0.3067475907356609  0.6265331382262572  0.3128002301115629  1.0000
  O   O2        1.0  0.6798252923938577  0.3731889086539725  0.18705651650512325  1.0000
  O   O3        1.0  0.6932571842276118  0.3734670093966626  0.6871993097694897  1.0000
  O   O4        1.0  0.32018351493801583  0.6268141440570432  0.8129424901082487  1.0000
  O   O5        1.0  0.4202941848752672  0.6618478902467613  0.44859143367575877  1.0000
  O   O6        1.0  0.7578723450289431  0.3379998466492893  0.05123200444357678  1.0000
  O   O7        1.0  0.5797037740206648  0.338151527575178  0.5514085488362426  1.0000
  O   O8        1.0  0.24212784434222095  0.6619988714760651  0.9487659449468068  1.0000
  O   O9        1.0  0.7394323921963986  0.5888433104721924  0.664567310836702  1.0000
  O   O10       1.0  0.15062644268210318  0.4113839565089064  0.8353285147680154  1.0000
  O   O11       1.0  0.26056520927894394  0.4111553925040992  0.3354318764941268  1.0000
  O   O12       1.0  0.8493825188722325  0.5886219862057162  0.16467119647535367  1.0000
  O   O13       1.0  0.04114177640276744  0.6471276106465066  0.6846991199736577  1.0000
  O   O14       1.0  0.3940200165282448  0.35303209826709997  0.8153955367036047  1.0000
  O   O15       1.0  0.9588569121247587  0.35287326742316333  0.315299976848749  1.0000
  O   O16       1.0  0.605988598698289  0.6469731525192014  0.18460152231961752  1.0000
