data_image0
_chemical_formula_structural       AlH39C39O6
_chemical_formula_sum              "Al1 H39 C39 O6"
_cell_length_a       4.236612543423662
_cell_length_b       16.19602769529555
_cell_length_c       16.197083084058143
_cell_angle_alpha    120.68093023641963
_cell_angle_beta     89.71759384443308
_cell_angle_gamma    89.72233377599096

_space_group_name_H-M_alt    "P 1"
_space_group_IT_number       1

loop_
  _space_group_symop_operation_xyz
  'x, y, z'

loop_
  _atom_site_type_symbol
  _atom_site_label
  _atom_site_symmetry_multiplicity
  _atom_site_fract_x
  _atom_site_fract_y
  _atom_site_fract_z
  _atom_site_occupancy
  Al  Al1       1.0  6.894118894960309e-05  0.5007562121598141  0.4991798986344661  1.0000
  H   H1        1.0  0.500025770028209  0.9197175573462034  0.08020072404023178  1.0000
  H   H2        1.0  0.4317424402331227  0.6556926887494825  0.07931764051425456  1.0000
  H   H3        1.0  0.5681228964481306  0.9205346618796496  0.34416740484135006  1.0000
  H   H4        1.0  0.281028795061438  0.22380650420413428  0.5565560526912847  1.0000
  H   H5        1.0  0.2730775630473019  0.32948901970340927  0.5493647796701211  1.0000
  H   H6        1.0  0.9506130066331335  0.2502840390660666  0.5071324459331022  1.0000
  H   H7        1.0  0.7281695226126104  0.21811224982477742  0.16411251042331537  1.0000
  H   H8        1.0  0.7417575043792369  0.324633841496194  0.27829071595489546  1.0000
  H   H9        1.0  0.06574301453076002  0.2446734443602452  0.2375347919747171  1.0000
  H   H10       1.0  0.9301545037330997  0.09523217334403002  0.4337127282647941  1.0000
  H   H11       1.0  0.0694301886845068  0.9805164843035213  0.34537430711741  1.0000
  H   H12       1.0  0.26116902751111587  0.04425105508675391  0.4577953242844544  1.0000
  H   H13       1.0  0.0985111437398842  0.09139642755302899  0.15838237868828736  1.0000
  H   H14       1.0  0.9828121838358824  0.9782646075573993  0.13849032553716245  1.0000
  H   H15       1.0  0.7734767492972522  0.03247179694656669  0.0835004247918079  1.0000
  H   H16       1.0  0.2718782765401854  0.83577051623287  0.7817824664696644  1.0000
  H   H17       1.0  0.25831003623186893  0.7215681596766929  0.675272179770424  1.0000
  H   H18       1.0  0.9342823355320818  0.7623191362379772  0.7552250852060637  1.0000
  H   H19       1.0  0.9015719948321318  0.8415180180372913  0.9084961184184691  1.0000
  H   H20       1.0  0.017218063267748114  0.8614033258823783  0.02161873057738709  1.0000
  H   H21       1.0  0.22663025147499383  0.9163921145919363  0.9674230362837051  1.0000
  H   H22       1.0  0.7189947023650022  0.44332853497033403  0.7761315498615105  1.0000
  H   H23       1.0  0.7270086661920488  0.4505082237088303  0.6704388996214234  1.0000
  H   H24       1.0  0.049438710134758396  0.49275627291343244  0.7496614388686282  1.0000
  H   H25       1.0  0.0698946119444983  0.5662237557886911  0.9046921140517127  1.0000
  H   H26       1.0  0.9306186524160083  0.654564321011101  0.019401029847472242  1.0000
  H   H27       1.0  0.7389049276364685  0.5421136724683535  0.9556697834599247  1.0000
  H   H28       1.0  0.7616770128755875  0.5440280074924503  0.08353836515607332  1.0000
  H   H29       1.0  0.9524127618007017  0.6566253502550837  0.13776066152222202  1.0000
  H   H30       1.0  0.0870333353267085  0.5664397905944156  0.15998341691257414  1.0000
  H   H31       1.0  0.0162536363642332  0.47870239097088074  0.24426540277696765  1.0000
  H   H32       1.0  0.6365392374259357  0.4378801803588104  0.24970882016067003  1.0000
  H   H33       1.0  0.7429691598992604  0.4514535080765897  0.15134567351019962  1.0000
  H   H34       1.0  0.23792476394837786  0.9162982631008634  0.4557333793541646  1.0000
  H   H35       1.0  0.04734625113248821  0.8620221866654205  0.3431209208123746  1.0000
  H   H36       1.0  0.9125532292494326  0.8398345186141615  0.43331891818631607  1.0000
  H   H37       1.0  0.9835321012465315  0.7556537760290921  0.52117649478577  1.0000
  H   H38       1.0  0.36323984071650267  0.7502298810865187  0.5619928831950176  1.0000
  H   H39       1.0  0.2568579103044186  0.8485625664277449  0.548373351915856  1.0000
  C   C1        1.0  0.495238625787607  0.5738181896610258  0.6459651554615818  1.0000
  C   C2        1.0  0.5000882801058283  0.5732655627649879  0.4266904532473178  1.0000
  C   C3        1.0  0.5049220367565396  0.3539475088094762  0.4260594653473291  1.0000
  C   C4        1.0  0.4794130046917715  0.780365580765988  0.06521282708393264  1.0000
  C   C5        1.0  0.5000214086740016  0.881230005273899  0.1186732518622121  1.0000
  C   C6        1.0  0.5206253535057285  0.9346710943700741  0.21952699990514177  1.0000
  C   C7        1.0  0.5326146185583696  0.8819661806741125  0.2670141114136796  1.0000
  C   C8        1.0  0.4999463296198101  0.7812446385993187  0.21860969433365093  1.0000
  C   C9        1.0  0.46736036481946286  0.7328541103538698  0.11789617494439845  1.0000
  C   C10       1.0  0.6632689154799535  0.19541749221131252  0.28364686193643246  1.0000
  C   C11       1.0  0.6843083139385017  0.0945745521447989  0.23674082965786172  1.0000
  C   C12       1.0  0.5218664587578488  0.04299272282841569  0.2731307748346552  1.0000
  C   C13       1.0  0.351289074213561  0.0969779406239368  0.3608388146194201  1.0000
  C   C14       1.0  0.36113061059884194  0.19807921133255493  0.4133533950840587  1.0000
  C   C15       1.0  0.5097847279393194  0.24613529423604064  0.3728309261979205  1.0000
  C   C16       1.0  0.31571257509439477  0.7631411746818133  0.9053163983669705  1.0000
  C   C17       1.0  0.33676272843652544  0.7162278270730057  0.8044797227221565  1.0000
  C   C18       1.0  0.4902649662145537  0.6270661540621348  0.7537902785218761  1.0000
  C   C19       1.0  0.6389546088017823  0.586526208272602  0.8018369307640115  1.0000
  C   C20       1.0  0.648765059838766  0.6390487981587897  0.902919009627574  1.0000
  C   C21       1.0  0.47817676107970164  0.7267684385744533  0.9569051769390596  1.0000
  C   C22       1.0  0.6635184739875869  0.6388752954861588  0.23597407098149148  1.0000
  C   C23       1.0  0.6421199922020335  0.5849937886000659  0.2818776294002274  1.0000
  C   C24       1.0  0.4999152947293268  0.626311637069456  0.37359507192891056  1.0000
  C   C25       1.0  0.3576813639967753  0.718012514271692  0.4148761136795685  1.0000
  C   C26       1.0  0.3362206355697309  0.7638925083662825  0.36096522247152046  1.0000
  C   C27       1.0  0.4998760279682627  0.7275902789470053  0.2722489506990442  1.0000
  C   C28       1.0  0.2094899124712413  0.25339668282901334  0.5115209741001863  1.0000
  C   C29       1.0  0.8065213385928659  0.24837013874739006  0.23872008745916418  1.0000
  C   C30       1.0  0.1432746774677582  0.051580005423467405  0.4014099352084841  1.0000
  C   C31       1.0  0.8939924614205523  0.046497422640292996  0.14957908914787768  1.0000
  C   C32       1.0  0.19353542048249037  0.7611510617189197  0.7515248909390592  1.0000
  C   C33       1.0  0.1060919685620689  0.8503196844252017  0.95340319179202  1.0000
  C   C34       1.0  0.7905900268564139  0.4883641164577243  0.7465369334096225  1.0000
  C   C35       1.0  0.8568098686768479  0.5985121606483189  0.9483382748119877  1.0000
  C   C36       1.0  0.875797536695245  0.5992734576461557  0.14951746975339106  1.0000
  C   C37       1.0  0.7656850999367677  0.4830527845154576  0.22917726679228412  1.0000
  C   C38       1.0  0.1238232464347533  0.8503047170307453  0.4004991497096454  1.0000
  C   C39       1.0  0.2340910173495345  0.7707389507581012  0.5168131246967531  1.0000
  O   O1        1.0  0.2689536582774394  0.3946078027839235  0.4124661683345394  1.0000
  O   O2        1.0  0.2622203972766073  0.5189269715617898  0.6036019895288547  1.0000
  O   O3        1.0  0.26376666488955886  0.585604633136768  0.481426261919367  1.0000
  O   O4        1.0  0.737905561699364  0.39631281352738074  0.4809595300650642  1.0000
  O   O5        1.0  0.7365145102162103  0.5185668331848562  0.4143523482039341  1.0000
  O   O6        1.0  0.731201726214671  0.5874311350741692  0.6053284304227587  1.0000
