data_image0
_chemical_formula_structural       Na2Zn3P8H60C28N4Cl8O24
_chemical_formula_sum              "Na2 Zn3 P8 H60 C28 N4 Cl8 O24"
_cell_length_a       9.71372835959605
_cell_length_b       11.170215672008982
_cell_length_c       15.120949994513406
_cell_angle_alpha    100.51647305110369
_cell_angle_beta     105.3975594245788
_cell_angle_gamma    105.02657450988933

_space_group_name_H-M_alt    "P 1"
_space_group_IT_number       1

loop_
  _space_group_symop_operation_xyz
  'x, y, z'

loop_
  _atom_site_type_symbol
  _atom_site_label
  _atom_site_symmetry_multiplicity
  _atom_site_fract_x
  _atom_site_fract_y
  _atom_site_fract_z
  _atom_site_occupancy
  Na  Na1       1.0  0.33075262000183875  0.0219793192878441  0.9723389582203412  1.0000
  Na  Na2       1.0  0.6692476226940443  0.9780239820320279  0.027661691939208345  1.0000
  Zn  Zn1       1.0  0.49999815880654813  0.49999763837330147  3.5046042939233926e-06  1.0000
  Zn  Zn2       1.0  0.19160858461231814  0.19420335185549223  0.10838005833032585  1.0000
  Zn  Zn3       1.0  0.8083992087806424  0.8058057136958188  0.8916200127895099  1.0000
  P   P1        1.0  0.5470771016320414  0.31536197723389153  0.1498281844899482  1.0000
  P   P2        1.0  0.4529196748075677  0.6846239940652126  0.8501648930063868  1.0000
  P   P3        1.0  0.3752797880253241  0.5062433148315081  0.18113294352987455  1.0000
  P   P4        1.0  0.6247058485661158  0.49375810423225647  0.8188643072753624  1.0000
  P   P5        1.0  0.07442859198125977  0.8815788850583675  0.08876860152353326  1.0000
  P   P6        1.0  0.9255702551651555  0.11842635243270652  0.9112294291440225  1.0000
  P   P7        1.0  0.9807826392186313  0.0634014201175646  0.22318969284668108  1.0000
  P   P8        1.0  0.019224984642534085  0.9365960717594959  0.7768140678948544  1.0000
  H   H1        1.0  0.2176765278646045  0.30089632812912737  0.9427856560409754  1.0000
  H   H2        1.0  0.7823226469777042  0.6991069786098622  0.05721349070228848  1.0000
  H   H3        1.0  0.2888787923443843  0.31441938914462514  0.8617426975453102  1.0000
  H   H4        1.0  0.711118164608834  0.6855781372160054  0.1382579323599132  1.0000
  H   H5        1.0  0.578230817428981  0.22303777420701465  0.9918875869870338  1.0000
  H   H6        1.0  0.42176835999728723  0.776965528152509  0.008114204939900576  1.0000
  H   H7        1.0  0.6260499818194489  0.14196735626341453  0.9180249109146178  1.0000
  H   H8        1.0  0.37394914934792917  0.8580330592467431  0.0819738356422448  1.0000
  H   H9        1.0  0.8355407470071441  0.4117707404178716  0.1621260164713192  1.0000
  H   H10       1.0  0.16445977841772225  0.5882277411108207  0.8378740269857021  1.0000
  H   H11       1.0  0.8841130900151626  0.2703692180473923  0.1773549144229421  1.0000
  H   H12       1.0  0.11588493285366047  0.729628306178718  0.8226452350108107  1.0000
  H   H13       1.0  0.9067084378875379  0.3928965694130612  0.2794096515109531  1.0000
  H   H14       1.0  0.09329208689133849  0.6071019132104993  0.720589730650147  1.0000
  H   H15       1.0  0.21596078264713736  0.4836293493758178  0.304467091883474  1.0000
  H   H16       1.0  0.7840401571774933  0.5163729849533212  0.6955342067261584  1.0000
  H   H17       1.0  0.17106338898766887  0.6273271441636511  0.300032553497907  1.0000
  H   H18       1.0  0.8289339823653066  0.37267423499742597  0.6999693315599276  1.0000
  H   H19       1.0  0.4381604434707072  0.6014266914794179  0.4489312805695605  1.0000
  H   H20       1.0  0.5618408651407876  0.398576607705941  0.5510688891185185  1.0000
  H   H21       1.0  0.276516305806254  0.6311678657649225  0.46816993335193063  1.0000
  H   H22       1.0  0.7234835668107921  0.36883447288847293  0.5318305231373304  1.0000
  H   H23       1.0  0.3463100790805741  0.8418075484909766  0.4308209251381785  1.0000
  H   H24       1.0  0.6536901180024159  0.15819286488466844  0.5691773409472134  1.0000
  H   H25       1.0  0.4994392534077363  0.836108407321035  0.5226761815431828  1.0000
  H   H26       1.0  0.5005588555189603  0.16389490155246736  0.4773234456715515  1.0000
  H   H27       1.0  0.5802184218641956  0.9233853087148418  0.3943028587212468  1.0000
  H   H28       1.0  0.4197850198704956  0.07661798401174022  0.6056976726157262  1.0000
  H   H29       1.0  0.626576143704618  0.781830077179265  0.40472670196523114  1.0000
  H   H30       1.0  0.37341978842395923  0.21817034692417542  0.5952721634142011  1.0000
  H   H31       1.0  0.35531894109113454  0.8023031401181486  0.2563584068718044  1.0000
  H   H32       1.0  0.6446813016047486  0.19770016120172326  0.743642243287745  1.0000
  H   H33       1.0  0.512012180186197  0.7660242124490966  0.23419716407816085  1.0000
  H   H34       1.0  0.48798690859823785  0.23397330964250074  0.7658025048841285  1.0000
  H   H35       1.0  0.06010527553879547  0.6084142521922759  0.11478792740135904  1.0000
  H   H36       1.0  0.9398959418469133  0.39158327110460794  0.8852074741383975  1.0000
  H   H37       1.0  0.1812024365018559  0.6044830560906078  0.04354313807296249  1.0000
  H   H38       1.0  0.8187963245866784  0.39551639675306677  0.9564554148136114  1.0000
  H   H39       1.0  0.9980199263838542  0.620886634059616  0.9946303891131694  1.0000
  H   H40       1.0  0.0019809671818933473  0.3791128134201572  0.005367864126384313  1.0000
  H   H41       1.0  0.9741499001572933  0.010539827937812205  0.4304507551213916  1.0000
  H   H42       1.0  0.02585062591356297  0.989458652496012  0.5695499496315437  1.0000
  H   H43       1.0  0.8131616717342285  0.9838796818309707  0.3300280326246965  1.0000
  H   H44       1.0  0.1868370912922757  0.0161197677281066  0.6699725041496338  1.0000
  H   H45       1.0  0.7983101257493246  0.101564533701513  0.4850076032588647  1.0000
  H   H46       1.0  0.20169114047921974  0.8984358720652779  0.514993488834641  1.0000
  H   H47       1.0  0.7848645870961377  0.1898257611245313  0.3983203133700643  1.0000
  H   H48       1.0  0.2151374179981077  0.8101765721649561  0.6016798434721837  1.0000
  H   H49       1.0  0.06767514065332142  0.22638643943971462  0.565264701400203  1.0000
  H   H50       1.0  0.9323247313177347  0.773615900308542  0.4347350937931439  1.0000
  H   H51       1.0  0.9635918718797285  0.3346172461075412  0.5566542413006987  1.0000
  H   H52       1.0  0.03641008889360365  0.6653821970479826  0.4433448540592196  1.0000
  H   H53       1.0  0.031525557334070725  0.3770334631015402  0.4146503497563999  1.0000
  H   H54       1.0  0.9684771012139991  0.6229650119683896  0.5853500553495082  1.0000
  H   H55       1.0  0.19818267753101548  0.40583803841884974  0.5107824194124363  1.0000
  H   H56       1.0  0.801817845955888  0.5941604463944402  0.4892156401568287  1.0000
  H   H57       1.0  0.20034712145020717  0.27661617994566984  0.355606405781039  1.0000
  H   H58       1.0  0.7996540998114341  0.7233813367820191  0.6443929635342232  1.0000
  H   H59       1.0  0.21789885495645936  0.19549396933967972  0.44678658157086926  1.0000
  H   H60       1.0  0.7821006039068197  0.8045045154183942  0.5532132810616945  1.0000
  C   C1        1.0  0.5311327963706631  0.4458358975973269  0.23820475914018863  1.0000
  C   C2        1.0  0.4688756556440339  0.5541693009754952  0.7618008506106551  1.0000
  C   C3        1.0  0.08870326945243083  0.9460263165100218  0.21437306244670407  1.0000
  C   C4        1.0  0.9112947945073699  0.0539741033243857  0.785624841989794  1.0000
  C   C5        1.0  0.837991837609195  0.3427551276768385  0.2051182006634775  1.0000
  C   C6        1.0  0.16200511805204348  0.6572424008735284  0.7948811066499106  1.0000
  C   C7        1.0  0.2651525361016738  0.5885001606550588  0.32081607691345243  1.0000
  C   C8        1.0  0.7348455310880624  0.41150025370502163  0.67918513400263  1.0000
  C   C9        1.0  0.3537268851497403  0.6491386367139357  0.42683394574360994  1.0000
  C   C10       1.0  0.6462736833040665  0.35086273713845634  0.5731658366038987  1.0000
  C   C11       1.0  0.4323539373608087  0.7937948073118408  0.4467586070286559  1.0000
  C   C12       1.0  0.5676451950985497  0.20620560600858792  0.5532414621200347  1.0000
  C   C13       1.0  0.5317843107229693  0.819325975612614  0.3844047907114217  1.0000
  C   C14       1.0  0.4682155618940699  0.18067636304077445  0.6155956657778392  1.0000
  C   C15       1.0  0.4404219275297337  0.7555355487322545  0.2793161470630779  1.0000
  C   C16       1.0  0.5595800782105088  0.2444667834623715  0.720684671075084  1.0000
  C   C17       1.0  0.09570971387061189  0.644333408220952  0.05886938223975595  1.0000
  C   C18       1.0  0.904291919206834  0.3556679656866565  0.9411285970444471  1.0000
  C   C19       1.0  0.911077980137975  0.05853701026633469  0.38457455714017647  1.0000
  C   C20       1.0  0.08892147872529688  0.9414614744917391  0.6154253054923943  1.0000
  C   C21       1.0  0.8618254124095442  0.1532032302743929  0.44537745279795626  1.0000
  C   C22       1.0  0.13817367508291048  0.8467942940069333  0.5546208935724978  1.0000
  C   C23       1.0  0.9988389779853291  0.264673203980152  0.5142788502249758  1.0000
  C   C24       1.0  0.0011608496648065785  0.7353262456341412  0.4857198834860484  1.0000
  C   C25       1.0  0.09544473676841397  0.3302936069033749  0.46070709286610895  1.0000
  C   C26       1.0  0.904557225296891  0.6697058340624125  0.5392933250856373  1.0000
  C   C27       1.0  0.1406033069391199  0.2323460547020773  0.39962900908062693  1.0000
  C   C28       1.0  0.8593968484069097  0.7676514641601316  0.6003708407061057  1.0000
  N   N1        1.0  0.3618542032966303  0.6177021937483929  0.2624513103315351  1.0000
  N   N2        1.0  0.6381433993585333  0.382291487531063  0.7375416322863515  1.0000
  N   N3        1.0  0.0072688687557586895  0.12485805160760319  0.3364742255495373  1.0000
  N   N4        1.0  0.9927341624551076  0.8751413817493372  0.66352901841033  1.0000
  Cl  Cl1       1.0  0.705644112642915  0.576486514081836  0.2845144186805301  1.0000
  Cl  Cl2       1.0  0.2943597017545727  0.4235177369317639  0.7154889515104019  1.0000
  Cl  Cl3       1.0  0.49458519857287797  0.3835858304472383  0.3336723977361304  1.0000
  Cl  Cl4       1.0  0.5054099510150608  0.6164097749046819  0.6663270027081581  1.0000
  Cl  Cl5       1.0  0.2846266371578139  0.027417075460810705  0.28163252728081295  1.0000
  Cl  Cl6       1.0  0.7153684726311342  0.972575632093076  0.7183704407525655  1.0000
  Cl  Cl7       1.0  0.016968864901556895  0.8164956699237108  0.2615357051094733  1.0000
  Cl  Cl8       1.0  0.9830371282320131  0.18351146257536044  0.7384704108045099  1.0000
  O   O1        1.0  0.2853391728517921  0.3631995468512344  0.920906014326967  1.0000
  O   O2        1.0  0.7146638988040479  0.6368027832088715  0.07909432333972428  1.0000
  O   O3        1.0  0.5690854511897996  0.13310181199253887  0.9623191776753973  1.0000
  O   O4        1.0  0.4309151609389374  0.8669024530886844  0.0376810048585199  1.0000
  O   O5        1.0  0.5758006389824574  0.3658572384664255  0.06779673541348795  1.0000
  O   O6        1.0  0.4242005855091193  0.6341402727869366  0.9322059403813585  1.0000
  O   O7        1.0  0.40707085434378604  0.1992944894387847  0.12450250320150504  1.0000
  O   O8        1.0  0.5929349524622796  0.8007010978525461  0.8754901086403352  1.0000
  O   O9        1.0  0.686538077703389  0.2765520455798338  0.20326659253586857  1.0000
  O   O10       1.0  0.3134492763195099  0.7234455164144438  0.7967284421738159  1.0000
  O   O11       1.0  0.42816067000524083  0.5682988354749058  0.10972691083593133  1.0000
  O   O12       1.0  0.5718320219935579  0.43169870161353424  0.8902743183633391  1.0000
  O   O13       1.0  0.23430205924373831  0.3895214561552648  0.1468110783613739  1.0000
  O   O14       1.0  0.7656997016285418  0.6104885969131644  0.8531847950024701  1.0000
  O   O15       1.0  0.15703587815903572  0.9910991527599792  0.05769672725358534  1.0000
  O   O16       1.0  0.8429614039061094  0.008896447228032404  0.9423023735436831  1.0000
  O   O17       1.0  0.9095639248399436  0.8096333191607032  0.030307879471898495  1.0000
  O   O18       1.0  0.0904305276192545  0.1903632531819426  0.9696908725223142  1.0000
  O   O19       1.0  0.16876086679855018  0.7830979129517249  0.09311582686871846  1.0000
  O   O20       1.0  0.8312354347628812  0.21690347491306744  0.9068825708850812  1.0000
  O   O21       1.0  0.0616137003449992  0.17077146128359294  0.18732524489131924  1.0000
  O   O22       1.0  0.938395074197679  0.8292318152960761  0.8126761905678921  1.0000
  O   O23       1.0  0.8183106200204764  0.986721518142446  0.17103118412012475  1.0000
  O   O24       1.0  0.18168982063849629  0.013271176549125102  0.828970704147743  1.0000
