data_image0
_chemical_formula_structural       Al2H14C26O10F2
_chemical_formula_sum              "Al2 H14 C26 O10 F2"
_cell_length_a       6.676358371608632
_cell_length_b       11.166101171928954
_cell_length_c       17.790041773829998
_cell_angle_alpha    85.2527816164063
_cell_angle_beta     78.57735429995867
_cell_angle_gamma    73.35719560021288

_space_group_name_H-M_alt    "P 1"
_space_group_IT_number       1

loop_
  _space_group_symop_operation_xyz
  'x, y, z'

loop_
  _atom_site_type_symbol
  _atom_site_label
  _atom_site_symmetry_multiplicity
  _atom_site_fract_x
  _atom_site_fract_y
  _atom_site_fract_z
  _atom_site_occupancy
  Al  Al1       1.0  0.4984145603588246  0.49991982686859154  0.5038103961213167  1.0000
  Al  Al2       1.0  0.9988287260556773  0.4992014509777504  0.5033331352894947  1.0000
  H   H1        1.0  0.273343101801764  0.3747189779337459  0.5715613589692695  1.0000
  H   H2        1.0  0.7148040132850896  0.6342499211181191  0.4450513367650189  1.0000
  H   H3        1.0  0.6837861297807633  0.5036871931152759  0.2724610717586771  1.0000
  H   H4        1.0  0.7557107775448061  0.5132068404197482  0.12879825094940142  1.0000
  H   H5        1.0  0.1619357931761912  0.4314170766900032  0.12892545407930814  1.0000
  H   H6        1.0  0.09017034154457094  0.4261803283757785  0.2725602150082054  1.0000
  H   H7        1.0  0.8579484507702093  0.5531117248351691  0.8762973165077028  1.0000
  H   H8        1.0  0.9203072666191616  0.5618832145578664  0.732629576409842  1.0000
  H   H9        1.0  0.31213825802147704  0.5007322588814487  0.7370876493415894  1.0000
  H   H10       1.0  0.24871280331361598  0.48865617922892557  0.8807156707369616  1.0000
  H   H11       1.0  0.419160209737612  0.13353000993382835  0.4706123730483966  1.0000
  H   H12       1.0  0.3334175267516244  0.13289675380170246  0.3819876768989162  1.0000
  H   H13       1.0  0.4654287002105803  0.8985123017486597  0.3811116082351092  1.0000
  H   H14       1.0  0.5476199055441455  0.8972706860833167  0.47104313588890545  1.0000
  C   C1        1.0  0.8494488338145983  0.27403882880705044  0.5110420401056788  1.0000
  C   C2        1.0  0.6677438984439731  0.5235078550653254  0.6415399497605281  1.0000
  C   C3        1.0  0.14197760464219314  0.7252997883597697  0.5040367074205252  1.0000
  C   C4        1.0  0.3305949039443021  0.474256841169847  0.3658674352284238  1.0000
  C   C5        1.0  0.3815582949084585  0.46637810900750765  0.2806495439225715  1.0000
  C   C6        1.0  0.5713486486678647  0.4880957327829804  0.2400853539460641  1.0000
  C   C7        1.0  0.6111107173376881  0.4930080208272754  0.16045403138053874  1.0000
  C   C8        1.0  0.4615440159577488  0.4753623218853347  0.11929279023819825  1.0000
  C   C9        1.0  0.2752673864495136  0.4478815810512984  0.16057138333883367  1.0000
  C   C10       1.0  0.23568923387315263  0.4443679753742842  0.2402236006958418  1.0000
  C   C11       1.0  0.4947821123474229  0.4885844895763609  0.038403445712631906  1.0000
  C   C12       1.0  0.5203809446116311  0.5040638451412958  0.9687567206131648  1.0000
  C   C13       1.0  0.550854494176889  0.517902209204216  0.8879019029379691  1.0000
  C   C14       1.0  0.7393329856573627  0.5411459828766353  0.8455513308365071  1.0000
  C   C15       1.0  0.7739499134878896  0.546341469507361  0.7659656169862076  1.0000
  C   C16       1.0  0.6212552639041605  0.5298405926968426  0.7267984259463562  1.0000
  C   C17       1.0  0.42994635039784873  0.5119185879291094  0.7684799290524184  1.0000
  C   C18       1.0  0.39485804670655955  0.5055366995564228  0.8480570277662738  1.0000
  C   C19       1.0  0.9217279461891152  0.13518019089274697  0.5142676066211537  1.0000
  C   C20       1.0  0.06874223355933415  0.8635585823600207  0.5112830549495513  1.0000
  C   C21       1.0  0.128741767966325  0.07009133748982778  0.4822060200191702  1.0000
  C   C22       1.0  0.8615247710742295  0.9281665357122859  0.5464670902541401  1.0000
  C   C23       1.0  0.1995339493492096  0.9400770972749085  0.4810912615574097  1.0000
  C   C24       1.0  0.7909132133045702  0.058987469936184284  0.5478919094119379  1.0000
  C   C25       1.0  0.3388216958053221  0.08701949266484378  0.43890069478484167  1.0000
  C   C26       1.0  0.4203402507781604  0.9391274542191538  0.4382931179715046  1.0000
  O   O1        1.0  0.6570017560445578  0.3263550687829735  0.505530710534835  1.0000
  O   O2        1.0  0.8539268771240885  0.5258238875256039  0.607977754125102  1.0000
  O   O3        1.0  0.005369041311126985  0.6705854143427812  0.49564114254656044  1.0000
  O   O4        1.0  0.47524540591820863  0.4879227113732368  0.39894300023036783  1.0000
  O   O5        1.0  0.3383773433610173  0.6739867817616767  0.504217697333168  1.0000
  O   O6        1.0  0.144283517203178  0.4710060684766473  0.3987802962331771  1.0000
  O   O7        1.0  0.9916456067473404  0.3286707204631013  0.5124080133799254  1.0000
  O   O8        1.0  0.5206320324544575  0.5114425997902073  0.6091178038573519  1.0000
  O   O9        1.0  0.25342181997742597  0.4500922067320372  0.5394898493427862  1.0000
  O   O10       1.0  0.7432583035762546  0.5503355299482422  0.46742761088185614  1.0000
  F   F1        1.0  0.7224134921519649  0.865142041668605  0.5828010659130101  1.0000
  F   F2        1.0  0.5901275796701311  0.11032881680588957  0.5856046866202433  1.0000
