data_image0
_chemical_formula_structural       Hg4H32C24S8N24
_chemical_formula_sum              "Hg4 H32 C24 S8 N24"
_cell_length_a       8.223555130001479
_cell_length_b       10.06315252301036
_cell_length_c       13.273370037015741
_cell_angle_alpha    90.00016363686223
_cell_angle_beta     89.99993343983331
_cell_angle_gamma    90.00001563519704

_space_group_name_H-M_alt    "P 1"
_space_group_IT_number       1

loop_
  _space_group_symop_operation_xyz
  'x, y, z'

loop_
  _atom_site_type_symbol
  _atom_site_label
  _atom_site_symmetry_multiplicity
  _atom_site_fract_x
  _atom_site_fract_y
  _atom_site_fract_z
  _atom_site_occupancy
  Hg  Hg1       1.0  0.7500000748627969  0.5724578152420177  0.500000723637882  1.0000
  Hg  Hg2       1.0  0.24999908869818202  0.9275453448527667  1.6042919529999967e-07  1.0000
  Hg  Hg3       1.0  0.2500009703041925  0.42754194010592517  0.5000007477285776  1.0000
  Hg  Hg4       1.0  0.7500004563890529  0.0724584895334317  5.603415829e-07  1.0000
  H   H1        1.0  0.634239690528709  0.3140163074085436  0.7013924451416002  1.0000
  H   H2        1.0  0.13424901035070747  0.18598200513192606  0.7986119574997302  1.0000
  H   H3        1.0  0.8657615879125585  0.3140175618062456  0.2986084424699554  1.0000
  H   H4        1.0  0.36575406467705557  0.18598488078700365  0.20138826146450126  1.0000
  H   H5        1.0  0.36575892259977383  0.6859814604903747  0.2986090262235876  1.0000
  H   H6        1.0  0.8657496027795516  0.8140137753139738  0.20138725369878327  1.0000
  H   H7        1.0  0.1342406732754284  0.6859851747121366  0.7013915221229468  1.0000
  H   H8        1.0  0.6342494125281064  0.8140148745612091  0.7986132099010772  1.0000
  H   H9        1.0  0.6641086999086168  0.1455115401281262  0.7432286505047401  1.0000
  H   H10       1.0  0.16411085851959228  0.3544847915418785  0.7567734703471769  1.0000
  H   H11       1.0  0.8358925216096437  0.14551263036238274  0.2567726255911892  1.0000
  H   H12       1.0  0.33588862537340697  0.3544888119277941  0.24322636013076956  1.0000
  H   H13       1.0  0.3358923452587419  0.8544862277696407  0.2567720674713953  1.0000
  H   H14       1.0  0.8358828905362544  0.645509995174855  0.24322348068750438  1.0000
  H   H15       1.0  0.1641121716172194  0.8544901061548414  0.7432265856126532  1.0000
  H   H16       1.0  0.6641148518315916  0.6455099496960344  0.7567751112337289  1.0000
  H   H17       1.0  0.5690416597980317  0.17757879175468355  0.624483442773865  1.0000
  H   H18       1.0  0.06903872216979319  0.32241751895992365  0.8755179935208159  1.0000
  H   H19       1.0  0.9309595725535901  0.17758035020843008  0.3755171493772806  1.0000
  H   H20       1.0  0.4309595348714694  0.3224211130355882  0.12448176751419025  1.0000
  H   H21       1.0  0.4309581693495375  0.8224189761443698  0.375518028590882  1.0000
  H   H22       1.0  0.9309550268853498  0.6775772677582237  0.12447971090204388  1.0000
  H   H23       1.0  0.06904147261601419  0.8224223863083961  0.6244820618278908  1.0000
  H   H24       1.0  0.5690427263151464  0.6775776485866912  0.8755189504625774  1.0000
  H   H25       1.0  0.8475951574112274  0.004434203981738  0.5873260497750434  1.0000
  H   H26       1.0  0.3475982891058109  0.4955681304862266  0.9126812119549255  1.0000
  H   H27       1.0  0.6524060164505984  0.004434847272470699  0.4126741674237805  1.0000
  H   H28       1.0  0.15240002642675424  0.4955695357376084  0.08731892404207997  1.0000
  H   H29       1.0  0.1524058877564656  0.9955655513647838  0.4126746682032376  1.0000
  H   H30       1.0  0.6523918118934446  0.5044306311276187  0.08731573908537629  1.0000
  H   H31       1.0  0.3475962447412683  0.9955659017886374  0.5873212768379331  1.0000
  H   H32       1.0  0.8476022347608989  0.5044312133320118  0.9126810405486692  1.0000
  C   C1        1.0  0.6615089232461103  0.21205020750993941  0.6778753130481404  1.0000
  C   C2        1.0  0.1615097215473611  0.28794910476145924  0.82212756307792  1.0000
  C   C3        1.0  0.8384923207501984  0.21205154447679314  0.32212535375195006  1.0000
  C   C4        1.0  0.3384909558885596  0.28795387328135996  0.1778721233147849  1.0000
  C   C5        1.0  0.33849090590216246  0.7879475603876926  0.32212540492842817  1.0000
  C   C6        1.0  0.8384876755638048  0.7120466756843057  0.1778716481210338  1.0000
  C   C7        1.0  0.16150872441923533  0.7879501983156557  0.6778738574521412  1.0000
  C   C8        1.0  0.6615113052982194  0.7120458820652972  0.8221285946630628  1.0000
  C   C9        1.0  0.9216300761560418  0.31862009859459306  0.6134953013497081  1.0000
  C   C10       1.0  0.4216331504969588  0.18138225218263668  0.8865073864495371  1.0000
  C   C11       1.0  0.5783712038411649  0.3186216207222472  0.38650484284364944  1.0000
  C   C12       1.0  0.07836749093889492  0.18138572715196935  0.1134928225552869  1.0000
  C   C13       1.0  0.0783697529925647  0.6813796567517939  0.38650541662901355  1.0000
  C   C14       1.0  0.5783678946705634  0.8186165094395079  0.11349333152767117  1.0000
  C   C15       1.0  0.421631057346481  0.6813791283473732  0.6134951217470997  1.0000
  C   C16       1.0  0.9216323382097115  0.8186140281944244  0.8865078954234419  1.0000
  C   C17       1.0  0.8987664710212827  0.1037987025930249  0.5898665637586403  1.0000
  C   C18       1.0  0.3987671418507405  0.39620264942027456  0.9101361405937848  1.0000
  C   C19       1.0  0.6012359524262936  0.10379833131079855  0.4101331152281559  1.0000
  C   C20       1.0  0.10123114011482669  0.39620504670531886  0.08986453361266197  1.0000
  C   C21       1.0  0.1012370061847534  0.8962020464781446  0.41013415421983973  1.0000
  C   C22       1.0  0.601229039241815  0.60380008709744  0.08986382400131987  1.0000
  C   C23       1.0  0.3987663087659071  0.8962044051990641  0.5898623290357106  1.0000
  C   C24       1.0  0.8987699050525038  0.6037966960913862  0.9101369377559504  1.0000
  S   S1        1.0  0.8879025624327638  0.4801600020326474  0.6517103501502955  1.0000
  S   S2        1.0  0.3879020053789333  0.019846316203682997  0.848290101908965  1.0000
  S   S3        1.0  0.6120987721337415  0.4801603939291039  0.3482901438627762  1.0000
  S   S4        1.0  0.1120997975075539  0.019847955108055294  0.15170975728108255  1.0000
  S   S5        1.0  0.11209726671584261  0.5198397533137464  0.3482903678284258  1.0000
  S   S6        1.0  0.6120990397883973  0.980155426593022  0.15171136945964744  1.0000
  S   S7        1.0  0.3879010570143322  0.5198403551430885  0.6517113275051968  1.0000
  S   S8        1.0  0.8879024636778182  0.980151800241444  0.8482924674731078  1.0000
  N   N1        1.0  0.8201046098686291  0.21163674401284277  0.6292199402080597  1.0000
  N   N2        1.0  0.32010653364086045  0.288367571834712  0.8707820677106068  1.0000
  N   N3        1.0  0.6798966339880295  0.2116382292898749  0.3707807256968181  1.0000
  N   N4        1.0  0.17989414393484543  0.28836715351543757  0.12921837297086816  1.0000
  N   N5        1.0  0.179895219279274  0.7883630113349722  0.3707815311588333  1.0000
  N   N6        1.0  0.6798884314335111  0.711632183506886  0.1292163901053627  1.0000
  N   N7        1.0  0.32010319516197666  0.7883615260536772  0.6292184855055608  1.0000
  N   N8        1.0  0.8201081172510669  0.7116316081082629  0.8707830983940779  1.0000
  N   N9        1.0  0.0552529927550367  0.27313516369964214  0.5672450657986516  1.0000
  N   N10       1.0  0.5552541564181299  0.22687008749855408  0.9327578872636407  1.0000
  N   N11       1.0  0.4447488956941541  0.2731349533382995  0.4327553418962323  1.0000
  N   N12       1.0  0.9447458765659176  0.22687048783933508  0.0672420582407298  1.0000
  N   N13       1.0  0.9447468363937332  0.7268655853711292  0.4327556521811501  1.0000
  N   N14       1.0  0.44474445671259827  0.7731326490194231  0.06724207733057597  1.0000
  N   N15       1.0  0.5552521494751089  0.726865795729772  0.5672438693067858  1.0000
  N   N16       1.0  0.055256384620335594  0.7731302612331205  0.9327594131263622  1.0000
  N   N17       1.0  0.041155674999522794  0.13872993614079115  0.5519865547069145  1.0000
  N   N18       1.0  0.5411592876636604  0.3612753119505355  0.9480164085610382  1.0000
  N   N19       1.0  0.4588449520267233  0.13872978636024408  0.4480143153169037  1.0000
  N   N20       1.0  0.958842006741925  0.361275657927102  0.051984581390747985  1.0000
  N   N21       1.0  0.9588441541492543  0.8612708129299802  0.44801416327288723  1.0000
  N   N22       1.0  0.4588393254672312  0.6387284182918262  0.051983556034258485  1.0000
  N   N23       1.0  0.5411512290668982  0.8612709627058662  0.5519841424996981  1.0000
  N   N24       1.0  0.04116147046357809  0.6387260848698728  0.9480168899769834  1.0000
