data_image0
_chemical_formula_structural       Ag2H26C26S2N8O8
_chemical_formula_sum              "Ag2 H26 C26 S2 N8 O8"
_cell_length_a       7.834512060953505
_cell_length_b       9.589371500019613
_cell_length_c       10.672187277832847
_cell_angle_alpha    90.62358443836037
_cell_angle_beta     70.21666889542519
_cell_angle_gamma    76.89941678993773

_space_group_name_H-M_alt    "P 1"
_space_group_IT_number       1

loop_
  _space_group_symop_operation_xyz
  'x, y, z'

loop_
  _atom_site_type_symbol
  _atom_site_label
  _atom_site_symmetry_multiplicity
  _atom_site_fract_x
  _atom_site_fract_y
  _atom_site_fract_z
  _atom_site_occupancy
  Ag  Ag1       1.0  0.6903413674964226  0.9455808543890288  0.5842201164295702  1.0000
  Ag  Ag2       1.0  0.3096576976571442  0.05441900383674892  0.41577996982278614  1.0000
  H   H1        1.0  0.18475370649897374  0.12929161840520462  0.9401002387138746  1.0000
  H   H2        1.0  0.8152467175782476  0.870708253351048  0.05990044226244614  1.0000
  H   H3        1.0  0.3966199025242433  0.9664473541258829  0.8189432038150528  1.0000
  H   H4        1.0  0.6033785157199106  0.0335503443522711  0.18105703529334247  1.0000
  H   H5        1.0  0.6105109097312608  0.2783678309400629  0.7429733799965702  1.0000
  H   H6        1.0  0.3894895143459679  0.7216320408161895  0.25702730097975035  1.0000
  H   H7        1.0  0.4968381429142211  0.3229374631113942  0.6226709649048203  1.0000
  H   H8        1.0  0.5031602260193181  0.677064556077298  0.3773311809675093  1.0000
  H   H9        1.0  0.6791422767673155  0.4066314355587793  0.627408402118256  1.0000
  H   H10       1.0  0.32085950096882954  0.5933684448126969  0.3725919378487034  1.0000
  H   H11       1.0  0.9706935295635472  0.4484225605514996  0.7033824822934207  1.0000
  H   H12       1.0  0.029309248456762256  0.5515784040013971  0.2966176107408387  1.0000
  H   H13       1.0  0.0549684415316705  0.01840893763946381  0.286896707790568  1.0000
  H   H14       1.0  0.9450299221371308  0.9815930766339638  0.7131045023484291  1.0000
  H   H15       1.0  0.9335525693387013  0.30868093944498304  0.007366413861497301  1.0000
  H   H16       1.0  0.06644784947378918  0.6913189273960118  0.9926333313814979  1.0000
  H   H17       1.0  0.6709337308448725  0.4647270400339283  0.19255018621570494  1.0000
  H   H18       1.0  0.3290663293281354  0.5352738974580123  0.8074487173706187  1.0000
  H   H19       1.0  0.6008435266238621  0.4017741343073241  0.42631220524990704  1.0000
  H   H20       1.0  0.399156180174387  0.5982278787508194  0.5736867924130776  1.0000
  H   H21       1.0  0.4974250171317536  0.686166059624178  0.03875791241151213  1.0000
  H   H22       1.0  0.502574396131827  0.31383271812013913  0.9612411440308505  1.0000
  H   H23       1.0  0.7636865547444958  0.46894874215920623  0.9456776301158171  1.0000
  H   H24       1.0  0.23631757693473082  0.5310522310089142  0.05432212190907393  1.0000
  H   H25       1.0  0.8935408863419809  0.6468958771180626  0.5660410220620163  1.0000
  H   H26       1.0  0.10645817354685513  0.3531039761924503  0.4339581284570073  1.0000
  C   C1        1.0  0.6284004980972496  0.3083286037424245  0.6413825768489473  1.0000
  C   C2        1.0  0.37159921923046824  0.691673419146227  0.3586182922806884  1.0000
  C   C3        1.0  0.8255354850023978  0.20728977972920867  0.37087541660724804  1.0000
  C   C4        1.0  0.17446286813693485  0.7927122247137038  0.6291239220651049  1.0000
  C   C5        1.0  0.9707975128799403  0.11615517698318463  0.2668815229698893  1.0000
  C   C6        1.0  0.02920255782253634  0.8838457703392706  0.7331192520830851  1.0000
  C   C7        1.0  0.011385229881653901  0.15383304428844724  0.1355347188497191  1.0000
  C   C8        1.0  0.988613835271913  0.8461668139373304  0.8644653674026371  1.0000
  C   C9        1.0  0.900846885859913  0.2804146450638498  0.10993189775221891  1.0000
  C   C10       1.0  0.09915453850147324  0.7195863108738295  0.8900685362914017  1.0000
  C   C11       1.0  0.7546861725737558  0.3670368937218812  0.21386867603558107  1.0000
  C   C12       1.0  0.24531424097399682  0.6329629682038561  0.7861301334740814  1.0000
  C   C13       1.0  0.7151862012180741  0.33224792259903085  0.3459125559847607  1.0000
  C   C14       1.0  0.28481251582547884  0.6677530161082005  0.6540885600775823  1.0000
  C   C15       1.0  0.28217380208202064  0.9465987906993977  0.0218561583503671  1.0000
  C   C16       1.0  0.7178242575226434  0.053399978429695204  0.9781432391013567  1.0000
  C   C17       1.0  0.5580352704445986  0.7811376720626203  0.8518862911776494  1.0000
  C   C18       1.0  0.44196378944423753  0.2188621812478999  0.1481128593413814  1.0000
  C   C19       1.0  0.5894288997009269  0.6726129437733946  0.935132401024333  1.0000
  C   C20       1.0  0.4105701654526399  0.32738691445237583  0.06486768522801611  1.0000
  C   C21       1.0  0.737464794464401  0.5530773429991527  0.8820467778631951  1.0000
  C   C22       1.0  0.2625346240639175  0.4469214396604216  0.11795321431250018  1.0000
  C   C23       1.0  0.8514968875968236  0.540059138893476  0.7473986788226341  1.0000
  C   C24       1.0  0.14850553704873448  0.459942901225624  0.2526015082882793  1.0000
  C   C25       1.0  0.8103382888893339  0.6504664793000006  0.6716600969069261  1.0000
  C   C26       1.0  0.18966077626424038  0.3495333789257701  0.3283399893454302  1.0000
  S   S1        1.0  0.8051562791266421  0.16043747920610235  0.5348089978442018  1.0000
  S   S2        1.0  0.1948427860269249  0.8395623790196682  0.4651910884081545  1.0000
  N   N1        1.0  0.16048926574233488  0.07606038743858083  0.025580207367191625  1.0000
  N   N2        1.0  0.8395111583348867  0.9239394843176714  0.9744204736091289  1.0000
  N   N3        1.0  0.4160758359418111  0.9054205667028657  0.8942924604131547  1.0000
  N   N4        1.0  0.5839222236628601  0.09457820242622723  0.10570693703857618  1.0000
  N   N5        1.0  0.6687159293950415  0.7692332505653213  0.7214311459166964  1.0000
  N   N6        1.0  0.3312821302096296  0.23076551856377145  0.2785682515350345  1.0000
  N   N7        1.0  0.7520489176993054  0.8079972915964292  0.3003632197090056  1.0000
  N   N8        1.0  0.24795114773842641  0.19200365081076853  0.6996366196106507  1.0000
  O   O1        1.0  0.27435879769635113  0.8757120852713318  0.11933366934940182  1.0000
  O   O2        1.0  0.7256406260967055  0.12428670230350046  0.8806672585596188  1.0000
  O   O3        1.0  0.7768446309300785  0.7448845306848997  0.39878964733857447  1.0000
  O   O4        1.0  0.22315579841187372  0.2551153459866172  0.6012119693710716  1.0000
  O   O5        1.0  0.6721416403668882  0.9422945513628563  0.3172405727750771  1.0000
  O   O6        1.0  0.3278587837103331  0.05770532039339571  0.6827601082012434  1.0000
  O   O7        1.0  0.8039144245640627  0.7392970985295407  0.18694683953854974  1.0000
  O   O8        1.0  0.19608734790734422  0.2607027769266779  0.8130525646950844  1.0000
