data_image0
_chemical_formula_structural       Al6H38C84O28
_chemical_formula_sum              "Al6 H38 C84 O28"
_cell_length_a       12.882893288894474
_cell_length_b       12.899243425509022
_cell_length_c       28.59774046833227
_cell_angle_alpha    89.99702668465162
_cell_angle_beta     89.92815716206276
_cell_angle_gamma    120.85979940249638

_space_group_name_H-M_alt    "P 1"
_space_group_IT_number       1

loop_
  _space_group_symop_operation_xyz
  'x, y, z'

loop_
  _atom_site_type_symbol
  _atom_site_label
  _atom_site_symmetry_multiplicity
  _atom_site_fract_x
  _atom_site_fract_y
  _atom_site_fract_z
  _atom_site_occupancy
  Al  Al1       1.0  0.47497915531527474  0.2293915352975661  0.5014829094364259  1.0000
  Al  Al2       1.0  0.7309855453653642  0.24344919161392664  0.5006316573939885  1.0000
  Al  Al3       1.0  0.7320039999945677  0.4767398927710004  0.5002937248540321  1.0000
  Al  Al4       1.0  0.2284241456991154  0.47525029376038214  0.999160770540094  1.0000
  Al  Al5       1.0  0.24371492249285592  0.7318213311825373  0.0006851928995744002  1.0000
  Al  Al6       1.0  0.476285543947462  0.731162468971199  0.00025018116444640006  1.0000
  H   H1        1.0  0.9656948669499528  0.6694758736826287  0.7751420098537453  1.0000
  H   H2        1.0  0.6951931127798971  0.13804030271964518  0.20726895973060522  1.0000
  H   H3        1.0  0.44997890262580137  0.3177844259378517  0.21100973268578832  1.0000
  H   H4        1.0  0.8617751206453831  0.5577488988829487  0.21622083704498615  1.0000
  H   H5        1.0  0.7898610519907977  0.45304389356299896  0.7307259680124716  1.0000
  H   H6        1.0  0.5580070672116905  0.349710690632918  0.734798775657403  1.0000
  H   H7        1.0  0.6652709092818441  0.2098958869224461  0.7380496992971859  1.0000
  H   H8        1.0  0.4530857796467841  0.7904053506935966  0.23098072995528446  1.0000
  H   H9        1.0  0.34842200294495035  0.5577194393519845  0.23532776124262972  1.0000
  H   H10       1.0  0.20876463644705012  0.6643079805573392  0.23730890799288326  1.0000
  H   H11       1.0  0.8594642210135743  0.31991345719574577  0.7890652634283982  1.0000
  H   H12       1.0  0.34616749378644573  0.3121507068290866  0.7809645569297674  1.0000
  H   H13       1.0  0.6984440801540971  0.5596441671090561  0.790494163143336  1.0000
  H   H14       1.0  0.452071625829916  0.13794987253052682  0.7910869729482644  1.0000
  H   H15       1.0  0.3174577233310032  0.8586424504184362  0.2885515004106197  1.0000
  H   H16       1.0  0.5598492524422412  0.6980818029008163  0.2902741296414178  1.0000
  H   H17       1.0  0.13787804381602334  0.4516981232700061  0.29042662297726457  1.0000
  H   H18       1.0  0.030516290372794765  0.3461743348886729  0.7202940433355138  1.0000
  H   H19       1.0  0.6717911595517522  0.7009771378618839  0.7205316475840038  1.0000
  H   H20       1.0  0.314513800792248  0.965814463067623  0.720911146046106  1.0000
  H   H21       1.0  0.34462943019142495  0.029546068688937107  0.21959812861252465  1.0000
  H   H22       1.0  0.6990514137451241  0.6696736211874139  0.21972048007553727  1.0000
  H   H23       1.0  0.697128078200336  0.035745288580045595  0.7863699592158541  1.0000
  H   H24       1.0  0.9648568227277178  0.3133630490795126  0.220608575116664  1.0000
  H   H25       1.0  0.2065638691079527  0.5624383004992523  0.7645845207256557  1.0000
  H   H26       1.0  0.459534764288023  0.6629495796739917  0.7666908933687111  1.0000
  H   H27       1.0  0.3462051206085734  0.7917119427415572  0.7693859921368684  1.0000
  H   H28       1.0  0.5593533156737891  0.20622071674864634  0.264657941279701  1.0000
  H   H29       1.0  0.6611435966449193  0.45779243300101774  0.26601666743294333  1.0000
  H   H30       1.0  0.7910411860181978  0.3449895094128195  0.2694567236617048  1.0000
  H   H31       1.0  0.667941263904453  0.9669075060400021  0.27616676228664977  1.0000
  H   H32       1.0  0.3108762269862524  0.34619788847655303  0.2815874908409626  1.0000
  H   H33       1.0  0.0348249170648031  0.6960358067784397  0.2860539186668802  1.0000
  H   H34       1.0  0.1370026556991704  0.6958455881872609  0.7064532584660841  1.0000
  H   H35       1.0  0.3194736081016031  0.45327063665359185  0.7109384210881375  1.0000
  H   H36       1.0  0.559530602366621  0.8634510981504274  0.7162483499057759  1.0000
  H   H37       1.0  0.2777881185431425  0.13987256803089557  0.4729813532108339  1.0000
  H   H38       1.0  0.11043371495375708  0.27828022862155416  0.027284043934031405  1.0000
  C   C1        1.0  0.5614241012725428  0.4400924014402465  0.5671843886112811  1.0000
  C   C2        1.0  0.4917329564161931  0.9781356304859656  0.20048857140321275  1.0000
  C   C3        1.0  0.49583336271374634  0.5199426354939761  0.2033702640924133  1.0000
  C   C4        1.0  0.019351804447708943  0.5161183349194262  0.20575232161853313  1.0000
  C   C5        1.0  0.920664582248655  0.4030032955518835  0.7701140710391315  1.0000
  C   C6        1.0  0.6146707707329354  0.5360726478140734  0.7722265129602875  1.0000
  C   C7        1.0  0.4759429947700298  0.07729368252372383  0.7738880315382134  1.0000
  C   C8        1.0  0.4009981063664299  0.9203197465637274  0.26992086636739293  1.0000
  C   C9        1.0  0.5354838342525241  0.6140110105829565  0.272083279425047  1.0000
  C   C10       1.0  0.07684955390209325  0.4752729194911893  0.2733727766881771  1.0000
  C   C11       1.0  0.8825356972805947  0.47747936780388767  0.7389760451052683  1.0000
  C   C12       1.0  0.5615062460589114  0.10950916508010528  0.5683524079171606  1.0000
  C   C13       1.0  0.536262570913081  0.41952068546459026  0.7425320015411856  1.0000
  C   C14       1.0  0.5943008341373854  0.11679352165409541  0.7455126001020815  1.0000
  C   C15       1.0  0.4768093879115654  0.8828606138318805  0.23918227055614955  1.0000
  C   C16       1.0  0.4180985275487571  0.5356042110334939  0.24280009373869402  1.0000
  C   C17       1.0  0.11575760550645943  0.5932635951239006  0.24494769540930866  1.0000
  C   C18       1.0  0.04202092207435727  0.5380163033916786  0.8437504713398598  1.0000
  C   C19       1.0  0.4829268236155925  0.5267727636120868  0.8463425854077686  1.0000
  C   C20       1.0  0.47792214272819683  0.9553071652478593  0.8494990688179486  1.0000
  C   C21       1.0  0.5344980182501545  0.0421531574115264  0.3439523234704751  1.0000
  C   C22       1.0  0.5268343909423479  0.4827447186841667  0.3462280652275497  1.0000
  C   C23       1.0  0.8744256704811448  0.43413489770845365  0.564780801860465  1.0000
  C   C24       1.0  0.9554487264582433  0.47752084606734263  0.3492746165195087  1.0000
  C   C25       1.0  0.9528258644617863  0.47589246670217017  0.6519464600984934  1.0000
  C   C26       1.0  0.5335871561706185  0.4857998362804352  0.6549902785991224  1.0000
  C   C27       1.0  0.531600941867161  0.0440628636106624  0.6574996861087996  1.0000
  C   C28       1.0  0.4768981816032041  0.9529950511900084  0.15206184292537026  1.0000
  C   C29       1.0  0.4821287065776331  0.5313889938104026  0.15500291880383094  1.0000
  C   C30       1.0  0.04190532993736449  0.5301364786721479  0.15705483510210175  1.0000
  C   C31       1.0  0.5607395037750534  0.4402996089347794  0.43379279130063964  1.0000
  C   C32       1.0  0.5614446193830245  0.1097022692213088  0.4328206632070463  1.0000
  C   C33       1.0  0.8756246492675928  0.4326206200815151  0.43633585171618  1.0000
  C   C34       1.0  0.43605571640159735  0.5588985432790708  0.0671644926679562  1.0000
  C   C35       1.0  0.4406490312711639  0.561008348921675  0.9338445671475242  1.0000
  C   C36       1.0  0.10996115509193795  0.563392090244122  0.9324699638589209  1.0000
  C   C37       1.0  0.43224630752241217  0.8755408458124239  0.9364888762491363  1.0000
  C   C38       1.0  0.07574775138873223  0.6127500584463589  0.725383830548566  1.0000
  C   C39       1.0  0.40323942376819844  0.47694109193016493  0.7292242497477448  1.0000
  C   C40       1.0  0.5356405982076852  0.9241832540121565  0.7333668641156947  1.0000
  C   C41       1.0  0.611678199499586  0.07631169982411738  0.22590238958685663  1.0000
  C   C42       1.0  0.47439315276959343  0.4018229678421506  0.22922540281018666  1.0000
  C   C43       1.0  0.9228219581277132  0.5341361374422392  0.233227126011009  1.0000
  C   C44       1.0  0.9800098210490304  0.5976652979061613  0.7626151825673517  1.0000
  C   C45       1.0  0.10740602016161915  0.5620998323039003  0.06782877431557921  1.0000
  C   C46       1.0  0.418390699799545  0.39816769851681505  0.7670251247542839  1.0000
  C   C47       1.0  0.6124249369712301  0.020433314060412003  0.7713564214959379  1.0000
  C   C48       1.0  0.5961741574072332  0.9807536034555825  0.26320504889891794  1.0000
  C   C49       1.0  0.39676336977970544  0.4179659002672906  0.26733619644437573  1.0000
  C   C50       1.0  0.019521128614961514  0.6113417070531497  0.2710389139062812  1.0000
  C   C51       1.0  0.0647337732841323  0.5483508891402594  0.8854582686693961  1.0000
  C   C52       1.0  0.4691996248294145  0.5391749952486009  0.8877004931067634  1.0000
  C   C53       1.0  0.46145822089548716  0.9291318045388692  0.8909134167368081  1.0000
  C   C54       1.0  0.5450557926212055  0.06486282841420628  0.3856567544063766  1.0000
  C   C55       1.0  0.5393517313284305  0.4689235521769388  0.38755711374889773  1.0000
  C   C56       1.0  0.43608255582637384  0.8742648699010898  0.0649074606929574  1.0000
  C   C57       1.0  0.9294081046023519  0.4613476479258268  0.3907069379121496  1.0000
  C   C58       1.0  0.927378876689431  0.46121579062542406  0.6104618490795986  1.0000
  C   C59       1.0  0.5437110923678432  0.47129645717105006  0.6135006581683272  1.0000
  C   C60       1.0  0.5434448627802552  0.06591629187308709  0.6157158268387734  1.0000
  C   C61       1.0  0.4630683115641077  0.9273513748902998  0.11059285072811062  1.0000
  C   C62       1.0  0.46679238337918594  0.541133835951598  0.11357430310314952  1.0000
  C   C63       1.0  0.06339774970322047  0.5425143507906185  0.11522917758780692  1.0000
  C   C64       1.0  0.11382466881413938  0.5382128012765791  0.7565452986125083  1.0000
  C   C65       1.0  0.481605674098489  0.5934284612944012  0.7588932466731466  1.0000
  C   C66       1.0  0.41723633760429363  0.884659015031147  0.7616909032033448  1.0000
  C   C67       1.0  0.9779768770152798  0.4919259274387358  0.700357816099917  1.0000
  C   C68       1.0  0.5358103810640955  0.11370950270971035  0.25664869288836206  1.0000
  C   C69       1.0  0.5917156537080999  0.4801808764897828  0.2584865737548512  1.0000
  C   C70       1.0  0.8838836036082184  0.41608359101574177  0.2615920722819851  1.0000
  C   C71       1.0  0.01849475007549033  0.5237958514205587  0.7951593085191535  1.0000
  C   C72       1.0  0.4963574121367029  0.5145841724766242  0.7980086419803174  1.0000
  C   C73       1.0  0.49416730948585297  0.9807126726855414  0.8011083824301793  1.0000
  C   C74       1.0  0.520915532187871  0.018538511173517146  0.2953402819985556  1.0000
  C   C75       1.0  0.5140317354186834  0.49589992710025405  0.2979153411030567  1.0000
  C   C76       1.0  0.9803607673282216  0.4933874430975111  0.30081854393996826  1.0000
  C   C77       1.0  0.016351189983353817  0.4180060483635586  0.7329040642657818  1.0000
  C   C78       1.0  0.5215876428598633  0.4984779957168399  0.703402597449049  1.0000
  C   C79       1.0  0.5995231293144343  0.614855022742951  0.7343952147040156  1.0000
  C   C80       1.0  0.3992036563321261  0.9810540124354926  0.7359079062800051  1.0000
  C   C81       1.0  0.41643457418345514  0.015830442131992667  0.23261437638709034  1.0000
  C   C82       1.0  0.6131133860130333  0.5978668928113109  0.23392982517789562  1.0000
  C   C83       1.0  0.9801803061244453  0.3981189163379781  0.23556097988199556  1.0000
  C   C84       1.0  0.5175209926837921  0.020809632352772795  0.7061318040352944  1.0000
  O   O1        1.0  0.4828051855918147  0.12860391275363273  0.5510647633142085  1.0000
  O   O2        1.0  0.3320370084931739  0.48284437548694825  0.052265081460213005  1.0000
  O   O3        1.0  0.13148319409386042  0.6629476157278803  0.0488387503398613  1.0000
  O   O4        1.0  0.5108250738288971  0.8471792904379496  0.04757332766145341  1.0000
  O   O5        1.0  0.48418830608603947  0.13314879592408596  0.4485228541963339  1.0000
  O   O6        1.0  0.8490387110089513  0.33051839416728507  0.4537721109836711  1.0000
  O   O7        1.0  0.6622591267456315  0.51831726825759  0.4526900736524411  1.0000
  O   O8        1.0  0.13534487201334855  0.4866800169287373  0.9470057321045928  1.0000
  O   O9        1.0  0.3297436180354369  0.8489941225003008  0.9537711453050763  1.0000
  O   O10       1.0  0.5188859915403442  0.6626171394425597  0.9526940822004308  1.0000
  O   O11       1.0  0.4819533526946458  0.3405432727791932  0.45125384064223084  1.0000
  O   O12       1.0  0.8515095459656833  0.3345071936840966  0.5460234748792844  1.0000
  O   O13       1.0  0.6567659441640358  0.1263889371689118  0.4544927695855208  1.0000
  O   O14       1.0  0.8527951011431723  0.508850355462279  0.45505821504920624  1.0000
  O   O15       1.0  0.3408126690456541  0.4826385263666069  0.9513614184708531  1.0000
  O   O16       1.0  0.1249289697531139  0.6566299035408036  0.95526763200418  1.0000
  O   O17       1.0  0.5081504842329565  0.8527040366720229  0.9555288238567459  1.0000
  O   O18       1.0  0.6477449894213335  0.3174130996482702  0.5004760090824689  1.0000
  O   O19       1.0  0.3168339696143719  0.647823714392665  0.0004244761392940001  1.0000
  O   O20       1.0  0.6578737303416488  0.5196917112700632  0.5455181225474774  1.0000
  O   O21       1.0  0.12336884757034022  0.48242631139817144  0.049400610085740516  1.0000
  O   O22       1.0  0.3370467777464726  0.8525057418048761  0.04596876196869461  1.0000
  O   O23       1.0  0.5165977886432102  0.6544210094549213  0.04542716212165491  1.0000
  O   O24       1.0  0.4844787894501648  0.33665099297721207  0.5522049810260159  1.0000
  O   O25       1.0  0.6599307698610061  0.12981809468385563  0.5480633725241972  1.0000
  O   O26       1.0  0.8485899961669147  0.5094077706073891  0.5471711892434854  1.0000
  O   O27       1.0  0.3170072011120483  0.14677031120203313  0.5025576495942516  1.0000
  O   O28       1.0  0.14629639096337851  0.3173827333581869  0.9978997870269097  1.0000
