data_image0
_chemical_formula_structural       CuH42C32N6O8
_chemical_formula_sum              "Cu1 H42 C32 N6 O8"
_cell_length_a       6.75767332427371
_cell_length_b       10.84778871631982
_cell_length_c       11.380258641715587
_cell_angle_alpha    86.05083677976269
_cell_angle_beta     87.24713893925924
_cell_angle_gamma    78.87770730241553

_space_group_name_H-M_alt    "P 1"
_space_group_IT_number       1

loop_
  _space_group_symop_operation_xyz
  'x, y, z'

loop_
  _atom_site_type_symbol
  _atom_site_label
  _atom_site_symmetry_multiplicity
  _atom_site_fract_x
  _atom_site_fract_y
  _atom_site_fract_z
  _atom_site_occupancy
  Cu  Cu1       1.0  0.9999751660651272  1.7196411533900378e-05  0.9999843812720854  1.0000
  H   H1        1.0  0.9318775261367805  0.0876433794280089  0.5665020684568987  1.0000
  H   H2        1.0  0.06804252903849319  0.9122547811765928  0.43347319576376725  1.0000
  H   H3        1.0  0.09785648479699918  0.007207023030240103  0.7520743729920699  1.0000
  H   H4        1.0  0.902244313295668  0.9929645740790892  0.2479487141391346  1.0000
  H   H5        1.0  0.57736713165216  0.1394677318208579  0.9516619133196828  1.0000
  H   H6        1.0  0.42263719555320733  0.8605652650727792  0.04833886651464069  1.0000
  H   H7        1.0  0.39079426683744606  0.22820265924773508  0.7751394020827931  1.0000
  H   H8        1.0  0.6092381556388347  0.7718934129925117  0.22485106907922872  1.0000
  H   H9        1.0  0.680882110080006  0.3885936635734879  0.3522784563923551  1.0000
  H   H10       1.0  0.31926628463336476  0.6113526049431145  0.647670051398137  1.0000
  H   H11       1.0  0.5601449244453818  0.3947281588570135  0.21654919218948276  1.0000
  H   H12       1.0  0.4398460566584531  0.6052229054863433  0.7834531384586115  1.0000
  H   H13       1.0  0.7660837976065621  0.2707811894502896  0.24735452516937073  1.0000
  H   H14       1.0  0.23390465520777326  0.7291460558418095  0.752580079062561  1.0000
  H   H15       1.0  0.5733707399830195  0.1187604292136797  0.2030902373240124  1.0000
  H   H16       1.0  0.4266202871549963  0.881233941284805  0.7969091322153476  1.0000
  H   H17       1.0  0.34463093095210706  0.22654451815283494  0.1803181733266825  1.0000
  H   H18       1.0  0.6553644257142749  0.7734593553159216  0.8197015244683643  1.0000
  H   H19       1.0  0.3507426737526558  0.09612532372112527  0.2846389399574178  1.0000
  H   H20       1.0  0.6492645246957026  0.9038596655091878  0.715365925759443  1.0000
  H   H21       1.0  0.1779649895060444  0.15603106226857483  0.45705061773620065  1.0000
  H   H22       1.0  0.8220340425441959  0.8439661454761095  0.5429501087248739  1.0000
  H   H23       1.0  0.056147145123681214  0.2560517001877614  0.340771306281333  1.0000
  H   H24       1.0  0.943884313099538  0.7439558619920206  0.6592217243987903  1.0000
  H   H25       1.0  0.016906137066193566  0.30179874007666296  0.4885265834968565  1.0000
  H   H26       1.0  0.9831089068494732  0.6981994171722761  0.5114727860515061  1.0000
  H   H27       1.0  0.10867465187530455  0.5043068528987789  0.41921246300383797  1.0000
  H   H28       1.0  0.8913692220607244  0.49568385787523533  0.5808024885060022  1.0000
  H   H29       1.0  0.19517478067047722  0.4639192577229565  0.27553535472960533  1.0000
  H   H30       1.0  0.8048696179496345  0.5360648704910745  0.7244817906072641  1.0000
  H   H31       1.0  0.36123893128052487  0.5138898813725205  0.37099037369998916  1.0000
  H   H32       1.0  0.6388052314477973  0.4860998881737758  0.6290246346874968  1.0000
  H   H33       1.0  0.9895782726473358  0.6249836719678967  0.8620050557057511  1.0000
  H   H34       1.0  0.010430207533254115  0.37503609797050064  0.13798421875981862  1.0000
  H   H35       1.0  0.2938776214713669  0.6087143528195753  0.9780233120518674  1.0000
  H   H36       1.0  0.7061245039809805  0.3913064180306591  0.0219818751671212  1.0000
  H   H37       1.0  0.15516797188421808  0.5805974768175941  0.10922756207285293  1.0000
  H   H38       1.0  0.8448225834702255  0.41940817634542077  0.8907675335677325  1.0000
  H   H39       1.0  0.6521853710648955  0.6227023310419498  0.965200288231614  1.0000
  H   H40       1.0  0.3478118708208413  0.3773108086290336  0.03478182090730541  1.0000
  H   H41       1.0  0.7710421706126169  0.5891748939277548  0.1008608145138936  1.0000
  H   H42       1.0  0.22895388470877265  0.4108420248732969  0.8991245818732381  1.0000
  C   C1        1.0  0.6469877245121013  0.16749803269079422  0.6538539481038654  1.0000
  C   C2        1.0  0.35300679952867847  0.8324850288558849  0.3461425892084265  1.0000
  C   C3        1.0  0.8487307601347568  0.103445378788507  0.6496107722021592  1.0000
  C   C4        1.0  0.1512653577378343  0.8965084779922847  0.3503824476995235  1.0000
  C   C5        1.0  0.9422270409641343  0.0576402476301396  0.7535878161726901  1.0000
  C   C6        1.0  0.05781841436865419  0.9424181765770429  0.24640489179096656  1.0000
  C   C7        1.0  0.6520652184815176  0.1317112621368253  0.8648575995545259  1.0000
  C   C8        1.0  0.34793890799402044  0.868336808291403  0.13514479139422522  1.0000
  C   C9        1.0  0.5475675602574341  0.18175487619634373  0.7647377166871081  1.0000
  C   C10       1.0  0.45244626668119287  0.8182856768976449  0.2352666951415685  1.0000
  C   C11       1.0  0.5472038294596046  0.21493057209280403  0.5449306256766847  1.0000
  C   C12       1.0  0.45278421835431704  0.7850440972662157  0.45508774191189627  1.0000
  C   C13       1.0  0.48890362611667376  0.24804808907822462  0.34007364144311947  1.0000
  C   C14       1.0  0.5111224014810601  0.7519284693723947  0.6599383443447594  1.0000
  C   C15       1.0  0.634173973822094  0.33087181009864947  0.28715809833773426  1.0000
  C   C16       1.0  0.36587375299642827  0.6690782756832547  0.7128235024579297  1.0000
  C   C17       1.0  0.43523891543827625  0.1668232342383291  0.24731232818812296  1.0000
  C   C18       1.0  0.5647632462345555  0.8331636413302875  0.7526942960652223  1.0000
  C   C19       1.0  0.3066862174457086  0.3230187650261058  0.4107077313244504  1.0000
  C   C20       1.0  0.693332818387489  0.676975686339951  0.5893058481614092  1.0000
  C   C21       1.0  0.1284804672467175  0.2544806589816133  0.4250815298130918  1.0000
  C   C22       1.0  0.8715410710625663  0.7455156236690001  0.5749186789637619  1.0000
  C   C23       1.0  0.24056620890748795  0.45985084037581453  0.3672300926689617  1.0000
  C   C24       1.0  0.7594714437296517  0.5401408108784125  0.6327858338694341  1.0000
  C   C25       1.0  0.9400041460769303  0.7740965251770292  0.978729381922513  1.0000
  C   C26       1.0  0.05994032384488427  0.22592415395850204  0.021264997501553803  1.0000
  C   C27       1.0  0.9704044461127309  0.6343658909350508  0.9581973855064946  1.0000
  C   C28       1.0  0.029596013458068178  0.3656510488667379  0.04179228941675461  1.0000
  C   C29       1.0  0.1677369715087095  0.5657845880668688  0.013950350328599394  1.0000
  C   C30       1.0  0.8322607752815613  0.4342314261300615  0.9860438515290397  1.0000
  C   C31       1.0  0.7932700936231497  0.5747167271175044  0.005853104904140605  1.0000
  C   C32       1.0  0.20673367985914837  0.42529924516930623  0.994129520770919  1.0000
  N   N1        1.0  0.8454504765116581  0.0710321465423434  0.8594001041959276  1.0000
  N   N2        1.0  0.15458480830028515  0.9290592490733047  0.14059764256776933  1.0000
  N   N3        1.0  0.5960507501020799  0.16455553476250634  0.43876547982991815  1.0000
  N   N4        1.0  0.4038812319311518  0.8353992880922476  0.5612469040654205  1.0000
  N   N5        1.0  0.39276956099300253  0.3150856334613438  0.5321679983331222  1.0000
  N   N6        1.0  0.6072241598893625  0.6848946886418477  0.4678498364689716  1.0000
  O   O1        1.0  0.7202680018160097  0.0625147439753988  0.41927541572497523  1.0000
  O   O2        1.0  0.2795118530076549  0.9373601349344017  0.5807929315148784  1.0000
  O   O3        1.0  0.3143280387880054  0.38957178093434675  0.6113753733915461  1.0000
  O   O4        1.0  0.6856386272842981  0.6103756317410003  0.3886603474560603  1.0000
  O   O5        1.0  0.7977250886777796  0.82637087279263  0.04383108727778049  1.0000
  O   O6        1.0  0.2022496068355579  0.17361796896029352  0.9562015946957487  1.0000
  O   O7        1.0  0.07467888794838018  0.8325819685657337  0.9280647675358653  1.0000
  O   O8        1.0  0.9251780128748592  0.1674884007434443  0.07189332668723843  1.0000
