data_image0
_chemical_formula_structural       Cu4H20C20N4Cl8O4
_chemical_formula_sum              "Cu4 H20 C20 N4 Cl8 O4"
_cell_length_a       5.771131572043228
_cell_length_b       9.948776765884595
_cell_length_c       13.561631811349292
_cell_angle_alpha    89.99784969657537
_cell_angle_beta     90.00494386807954
_cell_angle_gamma    106.75678854221077

_space_group_name_H-M_alt    "P 1"
_space_group_IT_number       1

loop_
  _space_group_symop_operation_xyz
  'x, y, z'

loop_
  _atom_site_type_symbol
  _atom_site_label
  _atom_site_symmetry_multiplicity
  _atom_site_fract_x
  _atom_site_fract_y
  _atom_site_fract_z
  _atom_site_occupancy
  Cu  Cu1       1.0  0.726556007012711  0.39255883309535017  0.48662329127492415  1.0000
  Cu  Cu2       1.0  0.2734248624654327  0.10747290170086636  0.9866458135860728  1.0000
  Cu  Cu3       1.0  0.27344954332591  0.6074388945733135  0.5133788936226156  1.0000
  Cu  Cu4       1.0  0.7265759625601049  0.8925258289129092  0.013352684340624404  1.0000
  H   H1        1.0  0.14537178493733188  0.42476783871683915  0.7262863217623095  1.0000
  H   H2        1.0  0.8547041519839594  0.07521166595989107  0.22621138387955145  1.0000
  H   H3        1.0  0.8546141349752219  0.5752213519851279  0.2737173376450458  1.0000
  H   H4        1.0  0.14529592424722887  0.9247891483452902  0.7737826897590808  1.0000
  H   H5        1.0  0.06992321148040044  0.46515591289970354  0.9048882888211697  1.0000
  H   H6        1.0  0.9301526744701079  0.03491078335657959  0.4048341266603332  1.0000
  H   H7        1.0  0.9300661801083621  0.5348406250685116  0.09511389580070073  1.0000
  H   H8        1.0  0.06984143254895495  0.9650920678928612  0.5951606842173618  1.0000
  H   H9        1.0  0.7816139683392505  0.6080747849346081  0.94718099109317  1.0000
  H   H10       1.0  0.21843578046424733  0.8919908195369854  0.447207234882413  1.0000
  H   H11       1.0  0.21838908431848836  0.39193232695869534  0.05281898150916222  1.0000
  H   H12       1.0  0.7815570828007239  0.10801306569747027  0.5527934749539727  1.0000
  H   H13       1.0  0.5951019383961337  0.7077519973085201  0.8087349703552322  1.0000
  H   H14       1.0  0.4049442934757506  0.7922527170379821  0.3088104651941421  1.0000
  H   H15       1.0  0.4049175164559387  0.2922604871632544  0.19126352772180166  1.0000
  H   H16       1.0  0.5950503191106263  0.20774386762083447  0.6911924568957561  1.0000
  H   H17       1.0  0.7009398311152069  0.6618663547251912  0.6334731950008321  1.0000
  H   H18       1.0  0.2991311932862785  0.8380764036152398  0.13352150643522265  1.0000
  H   H19       1.0  0.2990726714438948  0.33813875134855204  0.3665267777992583  1.0000
  H   H20       1.0  0.7008614352573301  0.16191598262793144  0.8664799409268584  1.0000
  C   C1        1.0  0.026901207134571337  0.48575662538242886  0.7508777431025068  1.0000
  C   C2        1.0  0.9731487203459038  0.0142378092404343  0.2508367530284304  1.0000
  C   C3        1.0  0.9730894287881215  0.5142388785442336  0.24912444155582145  1.0000
  C   C4        1.0  0.02685334886859867  0.9857598873459208  0.7491602701859323  1.0000
  C   C5        1.0  0.9815558819673311  0.5104798732690978  0.8483040155049227  1.0000
  C   C6        1.0  0.018506532682842115  0.9895565591258446  0.34827763147604435  1.0000
  C   C7        1.0  0.01843748614016501  0.4895177454454043  0.1516974317997324  1.0000
  C   C8        1.0  0.9814885664300874  0.0104483913243527  0.6517186541399482  1.0000
  C   C9        1.0  0.8236035876006866  0.5894248545360198  0.8708453176255021  1.0000
  C   C10       1.0  0.17643541736265428  0.910610896333601  0.37085848010452355  1.0000
  C   C11       1.0  0.17639673287224875  0.41058014256943653  0.1291553923304889  1.0000
  C   C12       1.0  0.8235606827122054  0.08938883718994356  0.6291400177232876  1.0000
  C   C13       1.0  0.718327952444788  0.6450194402283952  0.7943570311703357  1.0000
  C   C14       1.0  0.28172390741161724  0.8549814450275405  0.29439762140135883  1.0000
  C   C15       1.0  0.2816820615189428  0.3549877339213907  0.20564367893123864  1.0000
  C   C16       1.0  0.7182682162894736  0.1450172077355916  0.7056030884924527  1.0000
  C   C17       1.0  0.7707668344613693  0.6206959299694076  0.6976022514633302  1.0000
  C   C18       1.0  0.22928096121484026  0.8792724532757602  0.19762554282719696  1.0000
  C   C19       1.0  0.22923821081729295  0.37930806424041197  0.30239698384276187  1.0000
  C   C20       1.0  0.7707173840109219  0.12072102929372619  0.8023736925000977  1.0000
  N   N1        1.0  0.9190242982696332  0.5407914772599866  0.6788523663915813  1.0000
  N   N2        1.0  0.0810312595102616  0.9591648260888732  0.17884233428123517  1.0000
  N   N3        1.0  0.08097777145223262  0.45920621927689353  0.32114981844353013  1.0000
  N   N4        1.0  0.9189700614897306  0.04083495413234319  0.8211561636402183  1.0000
  Cl  Cl1       1.0  0.6272955230793187  0.21074456036382114  0.3856501212679505  1.0000
  Cl  Cl2       1.0  0.3727286513989654  0.2892834039058272  0.8856654112280966  1.0000
  Cl  Cl3       1.0  0.3727018214019464  0.7892541391111078  0.6143491139707111  1.0000
  Cl  Cl4       1.0  0.6272771420942078  0.7107185066691244  0.11433234937089765  1.0000
  Cl  Cl5       1.0  0.39807570663992914  0.34902747177493154  0.5786843034225628  1.0000
  Cl  Cl6       1.0  0.6018891605426261  0.1509718950413443  0.07872722892916074  1.0000
  Cl  Cl7       1.0  0.6019236309696153  0.6509681099670386  0.42131935614060734  1.0000
  Cl  Cl8       1.0  0.39811166441043594  0.8490268355795008  0.9212705316231367  1.0000
  O   O1        1.0  0.9624814381487069  0.5162883274500274  0.5833045088169444  1.0000
  O   O2        1.0  0.03758845306067817  0.9836262066321166  0.08327823516567892  1.0000
  O   O3        1.0  0.037519639696732575  0.483707269864901  0.4166984134030472  1.0000
  O   O4        1.0  0.9624156088472233  0.016368372263677593  0.9167187881268364  1.0000
