data_image0
_chemical_formula_structural       Ag6H8C10N14
_chemical_formula_sum              "Ag6 H8 C10 N14"
_cell_length_a       8.200292630462515
_cell_length_b       8.44194073447998
_cell_length_c       8.767958797607472
_cell_angle_alpha    64.6473733092888
_cell_angle_beta     63.865614507426656
_cell_angle_gamma    62.94361676986548

_space_group_name_H-M_alt    "P 1"
_space_group_IT_number       1

loop_
  _space_group_symop_operation_xyz
  'x, y, z'

loop_
  _atom_site_type_symbol
  _atom_site_label
  _atom_site_symmetry_multiplicity
  _atom_site_fract_x
  _atom_site_fract_y
  _atom_site_fract_z
  _atom_site_occupancy
  Ag  Ag1       1.0  0.6580780691255727  0.39146168437828516  0.7486350621672176  1.0000
  Ag  Ag2       1.0  0.34192751841860053  0.6085378942137254  0.2513580905457432  1.0000
  Ag  Ag3       1.0  0.17229669962297572  0.7437881352697745  0.9604807156884122  1.0000
  Ag  Ag4       1.0  0.827703270598654  0.2562089844479943  0.03952401194145941  1.0000
  Ag  Ag5       1.0  0.7185482379809754  0.2068027018962795  0.4827526620454849  1.0000
  Ag  Ag6       1.0  0.2814469739591913  0.7931998138889752  0.5172460704123125  1.0000
  H   H1        1.0  0.7468591968000023  0.7831550525183247  0.9399211972824306  1.0000
  H   H2        1.0  0.25314428233325253  0.21684330796832546  0.060077998187381396  1.0000
  H   H3        1.0  0.8288672921981755  0.7677433632956154  0.48000446899369115  1.0000
  H   H4        1.0  0.1711321599622551  0.23225925620787546  0.519996903912727  1.0000
  H   H5        1.0  2.4987535873284433e-05  0.4607786533083527  0.34769246488680494  1.0000
  H   H6        1.0  0.9999695552122387  0.5392227027627357  0.6523139295828814  1.0000
  H   H7        1.0  0.3681787138424468  0.059325978480181625  0.8304344562095525  1.0000
  H   H8        1.0  0.6318155965965884  0.9406751632248387  0.16956528631064316  1.0000
  C   C1        1.0  0.8685337123390937  0.13877668154620443  0.7406225063798363  1.0000
  C   C2        1.0  0.13147206445921708  0.8612212598076779  0.25936329772633127  1.0000
  C   C3        1.0  0.7749207721414421  0.6837405848960004  0.0622608509809127  1.0000
  C   C4        1.0  0.22508084620972818  0.31625914007151584  0.9377374218911787  1.0000
  C   C5        1.0  0.7009053726281991  0.8022082422929346  0.5891993645717122  1.0000
  C   C6        1.0  0.2990945010954319  0.1977929543384818  0.4108013116773962  1.0000
  C   C7        1.0  0.9039347371841869  0.520753453934141  0.2689223622841298  1.0000
  C   C8        1.0  0.09606101247372578  0.4792477461620734  0.7310789994911033  1.0000
  C   C9        1.0  0.46748259186631436  0.9519860596811897  0.765465364660841  1.0000
  C   C10       1.0  0.5325145195741072  0.0480151273508724  0.23453539905293752  1.0000
  N   N1        1.0  0.6683402009562656  0.5760766181686777  0.18065656890544093  1.0000
  N   N2        1.0  0.3316586938298798  0.4239231329271577  0.8193429000895663  1.0000
  N   N3        1.0  0.9874563963709945  0.9911033953773299  0.7454669050609722  1.0000
  N   N4        1.0  0.0125464098283317  0.008900321984334904  0.2545245010523872  1.0000
  N   N5        1.0  0.5962542842593591  0.6908436926919707  0.7010842482535511  1.0000
  N   N6        1.0  0.4037465874634023  0.30915480110602545  0.29891946931392976  1.0000
  N   N7        1.0  0.4450456734554037  0.7884056600041306  0.8148223607794663  1.0000
  N   N8        1.0  0.5549537590484801  0.21159277540267138  0.1851797375329768  1.0000
  N   N9        1.0  0.62611722059664  0.9668623234399335  0.6249828221886845  1.0000
  N   N10       1.0  0.3738776084985033  0.033141650945069  0.3750177155846758  1.0000
  N   N11       1.0  0.7528834667338412  0.47010249837943263  0.31405052920762727  1.0000
  N   N12       1.0  0.24711546677048085  0.5298972884440759  0.6859500484456263  1.0000
  N   N13       1.0  0.923894587381831  0.6540291495658721  0.11238586704049416  1.0000
  N   N14       1.0  0.0761062069045693  0.3459692727767705  0.8876156332104801  1.0000
