data_image0
_chemical_formula_structural       Gd4H36C16O32
_chemical_formula_sum              "Gd4 H36 C16 O32"
_cell_length_a       6.813612158008232
_cell_length_b       10.774052220110372
_cell_length_c       11.152691439496696
_cell_angle_alpha    96.16576440677909
_cell_angle_beta     90.0001469515746
_cell_angle_gamma    89.999884123308

_space_group_name_H-M_alt    "P 1"
_space_group_IT_number       1

loop_
  _space_group_symop_operation_xyz
  'x, y, z'

loop_
  _atom_site_type_symbol
  _atom_site_label
  _atom_site_symmetry_multiplicity
  _atom_site_fract_x
  _atom_site_fract_y
  _atom_site_fract_z
  _atom_site_occupancy
  Gd  Gd1       1.0  0.024197109449929095  0.1533281279448602  0.09621179016023261  1.0000
  Gd  Gd2       1.0  0.524198697702289  0.8466711301082056  0.4037882473405574  1.0000
  Gd  Gd3       1.0  0.975800154117387  0.846670761484553  0.9037879977438904  1.0000
  Gd  Gd4       1.0  0.47580150116684194  0.15332963343970357  0.5962135215553275  1.0000
  H   H1        1.0  0.1740353912475214  0.37867484692350933  0.2621040116603766  1.0000
  H   H2        1.0  0.6740414004779396  0.6213223718949195  0.2378951583936129  1.0000
  H   H3        1.0  0.8259633399695119  0.6213231054450078  0.7378947857499867  1.0000
  H   H4        1.0  0.32596320134281603  0.37867652104083044  0.7621055265182689  1.0000
  H   H5        1.0  0.9841399940147113  0.4308987208675674  0.2019222410376713  1.0000
  H   H6        1.0  0.4841438042103263  0.5691018796598187  0.29807685412609436  1.0000
  H   H7        1.0  0.015858737201625703  0.569101102110636  0.798077640359878  1.0000
  H   H8        1.0  0.5158578623053457  0.43089887686633693  0.7019231207659402  1.0000
  H   H9        1.0  0.1015840529713188  0.023774059887316  0.320321733330573  1.0000
  H   H10       1.0  0.6015828176781141  0.9762250970370805  0.17967482799328144  1.0000
  H   H11       1.0  0.8984176135424704  0.976226693128382  0.6796773445590176  1.0000
  H   H12       1.0  0.3984159135382228  0.023774725941123592  0.820325053404268  1.0000
  H   H13       1.0  0.17562684902040354  0.16226007665362369  0.34791222457798904  1.0000
  H   H14       1.0  0.6756318085745789  0.8377399410232583  0.1520872282522205  1.0000
  H   H15       1.0  0.8243718821940504  0.8377397428141082  0.6520867598171094  1.0000
  H   H16       1.0  0.3243683902958381  0.1622598889750435  0.8479144471512967  1.0000
  H   H17       1.0  0.7995727270148194  0.47677798716796366  0.949253057865377  1.0000
  H   H18       1.0  0.2995741738268691  0.5232235396256896  0.5507483002530975  1.0000
  H   H19       1.0  0.2004274718549013  0.523223713440018  0.0507497015253264  1.0000
  H   H20       1.0  0.7004230897416407  0.4767772239238753  0.44925346864067006  1.0000
  H   H21       1.0  0.7416753863079961  0.3435865845387411  0.846961120317097  1.0000
  H   H22       1.0  0.24167830797033224  0.6564178010375201  0.6530386406049189  1.0000
  H   H23       1.0  0.2583233449031894  0.6564169726379065  0.1530391350499301  1.0000
  H   H24       1.0  0.758323358547223  0.34358295899910013  0.3469622312895737  1.0000
  H   H25       1.0  0.4955331517955486  0.2923190733857837  0.9670367550912502  1.0000
  H   H26       1.0  0.9955350879804284  0.70768221532866  0.532960401205429  1.0000
  H   H27       1.0  0.5044655794163333  0.7076826131811771  0.03296241628858349  1.0000
  H   H28       1.0  0.0044636432353187  0.2923166705894644  0.4670384896973019  1.0000
  H   H29       1.0  0.5338339244344964  0.3881109719068405  0.10615152732659541  1.0000
  H   H30       1.0  0.03383800188897369  0.6118901318677459  0.3938460200799128  1.0000
  H   H31       1.0  0.4661633391308371  0.611890721681867  0.8938494380570817  1.0000
  H   H32       1.0  0.9661621969757944  0.38810968759916886  0.6061529643162515  1.0000
  H   H33       1.0  0.1573588546189129  0.9094684979572419  0.14351070172413216  1.0000
  H   H34       1.0  0.657359713192271  0.090533410889762  0.3564898086905046  1.0000
  H   H35       1.0  0.8426442795414175  0.0905322480367019  0.8564865821616081  1.0000
  H   H36       1.0  0.34264342097370815  0.9094673456355763  0.6435101662025957  1.0000
  C   C1        1.0  0.5412987355867002  0.19141780364834204  0.11987144430304399  1.0000
  C   C2        1.0  0.04131240324354481  0.8085786029093921  0.3801202644215351  1.0000
  C   C3        1.0  0.458699995623391  0.8085810717383949  0.8801247555923268  1.0000
  C   C4        1.0  0.9586966015288354  0.19141841941419094  0.6198793365063436  1.0000
  C   C5        1.0  0.04696318607602021  0.35910685403560894  0.8939607442098421  1.0000
  C   C6        1.0  0.5469656424458619  0.640894023485302  0.606040155361022  1.0000
  C   C7        1.0  0.9530370127925138  0.6408929724522209  0.1060400341912242  1.0000
  C   C8        1.0  0.45303308877553417  0.3591048729642097  0.393961426549069  1.0000
  C   C9        1.0  0.8316468679862723  0.3767176629703357  0.9264433912170489  1.0000
  C   C10       1.0  0.3316480926230695  0.6232856842962278  0.5735555092302462  1.0000
  C   C11       1.0  0.1683518632312584  0.6232840341280124  0.07355847117013778  1.0000
  C   C12       1.0  0.6683462356398595  0.3767131981139117  0.4264424846668575  1.0000
  C   C13       1.0  0.5816323789979378  0.30249525014655626  0.0506386134462673  1.0000
  C   C14       1.0  0.0816393532608259  0.6975048697966387  0.4493598065478466  1.0000
  C   C15       1.0  0.41836194927063985  0.6975036427949701  0.9493620714581894  1.0000
  C   C16       1.0  0.9183637809096155  0.30249402313993556  0.5506408783629767  1.0000
  O   O1        1.0  0.04690894568073391  0.352088086743592  0.2214582950632789  1.0000
  O   O2        1.0  0.5469150415425473  0.6479102227296494  0.2785443727775316  1.0000
  O   O3        1.0  0.9530927208375176  0.6479108026833486  0.7785414928440274  1.0000
  O   O4        1.0  0.4530895602806808  0.3520896107766305  0.7214581996316198  1.0000
  O   O5        1.0  0.1458815801805642  0.2776189747762813  0.9420370865250688  1.0000
  O   O6        1.0  0.6458865102170889  0.7223799313458342  0.5579655630186053  1.0000
  O   O7        1.0  0.8541142157440759  0.7223771210260423  0.0579642149057946  1.0000
  O   O8        1.0  0.35411075336350706  0.27761617498705254  0.44203842942067684  1.0000
  O   O9        1.0  0.7865368466781462  0.3076802611474534  0.0247391155059375  1.0000
  O   O10       1.0  0.28654101120171305  0.6923224218333103  0.475258087073847  1.0000
  O   O11       1.0  0.21346188453878767  0.6923204988908153  0.9752617563864375  1.0000
  O   O12       1.0  0.7134606553152452  0.3076774011432377  0.524741794325827  1.0000
  O   O13       1.0  0.3655418186268733  0.16192707023450478  0.1348015954026849  1.0000
  O   O14       1.0  0.8655476746348255  0.8380736356740358  0.3651901523520564  1.0000
  O   O15       1.0  0.6344569125813349  0.8380718016417671  0.8651937074902349  1.0000
  O   O16       1.0  0.13445545952421872  0.1619280438695299  0.6348072250260586  1.0000
  O   O17       1.0  0.1145496811788433  0.42751405307517837  0.8177090843076442  1.0000
  O   O18       1.0  0.6145497409471972  0.572485807817209  0.6822900254361102  1.0000
  O   O19       1.0  0.8854505176884047  0.5724867069622732  0.18229178758578973  1.0000
  O   O20       1.0  0.3854504579126115  0.4275121305086316  0.3177051839655007  1.0000
  O   O21       1.0  0.0671880399542459  0.1115387271077068  0.3104562693165036  1.0000
  O   O22       1.0  0.5671900606402502  0.8884623461534745  0.18954312029476483  1.0000
  O   O23       1.0  0.9328106912633771  0.8884601623208823  0.6895435185886782  1.0000
  O   O24       1.0  0.4328072029243941  0.11154121804492688  0.8104589290761055  1.0000
  O   O25       1.0  0.08370757013531  0.9468117234978235  0.08198324509228877  1.0000
  O   O26       1.0  0.5837102742546775  0.053188401133354477  0.41801697190258125  1.0000
  O   O27       1.0  0.9162896934301231  0.05318716242113199  0.9180156458093762  1.0000
  O   O28       1.0  0.4162913922628774  0.9468123589032656  0.5819838999919114  1.0000
  O   O29       1.0  0.6883105085893604  0.1344351194918687  0.1607477103062038  1.0000
  O   O30       1.0  0.18830474340617087  0.8655667264433191  0.33924566881348284  1.0000
  O   O31       1.0  0.3116911579231427  0.8655665670734435  0.8392514610757543  1.0000
  O   O32       1.0  0.811693987807587  0.1344349636341065  0.6607543995688019  1.0000
