data_image0
_chemical_formula_structural       Al4H48C40Cl4O20
_chemical_formula_sum              "Al4 H48 C40 Cl4 O20"
_cell_length_a       6.619545188977356
_cell_length_b       14.45617694763703
_cell_length_c       15.238459242583634
_cell_angle_alpha    89.9174041484897
_cell_angle_beta     90.8308703192326
_cell_angle_gamma    89.052126070791

_space_group_name_H-M_alt    "P 1"
_space_group_IT_number       1

loop_
  _space_group_symop_operation_xyz
  'x, y, z'

loop_
  _atom_site_type_symbol
  _atom_site_label
  _atom_site_symmetry_multiplicity
  _atom_site_fract_x
  _atom_site_fract_y
  _atom_site_fract_z
  _atom_site_occupancy
  Al  Al1       1.0  0.991208522292368  0.7484800075493823  0.5011250060082233  1.0000
  Al  Al2       1.0  0.5046940230522878  0.24974104573386308  0.9987450792981676  1.0000
  Al  Al3       1.0  0.49146021549022134  0.7511522430195755  0.4988316352929375  1.0000
  Al  Al4       1.0  0.0042129077999320036  0.2521564038009245  0.9989398558767492  1.0000
  H   H1        1.0  0.26564987759946496  0.6634461794732617  0.20344646961908106  1.0000
  H   H2        1.0  0.580552311792367  0.41972938223432266  0.795937392063138  1.0000
  H   H3        1.0  0.8228875753758302  0.8439943697651061  0.7982553353144725  1.0000
  H   H4        1.0  0.7115104508481737  0.16254802784243336  0.2924666880901796  1.0000
  H   H5        1.0  0.29360097365986343  0.5490245528457365  0.09762681989145963  1.0000
  H   H6        1.0  0.5643262430811332  0.5120860463893707  0.6704796606783816  1.0000
  H   H7        1.0  0.7750891266477069  0.9523886189999046  0.9092608178249294  1.0000
  H   H8        1.0  0.6932982562677169  0.049672062647935895  0.4000159360389475  1.0000
  H   H9        1.0  0.0373261821362334  0.5214518315899923  0.11529897213964801  1.0000
  H   H10       1.0  0.5545170416171956  0.6081515860409966  0.7408097937152079  1.0000
  H   H11       1.0  0.5302147257497012  0.9828302024973894  0.869701932949198  1.0000
  H   H12       1.0  0.9490300270294371  0.017790740430577  0.3811108960979794  1.0000
  H   H13       1.0  0.950176714912317  0.5104840311184304  0.3463960909945244  1.0000
  H   H14       1.0  0.1368265472902763  0.5436258048331838  0.9042930280469932  1.0000
  H   H15       1.0  0.44094931418562316  0.9869503493015019  0.6721266986162249  1.0000
  H   H16       1.0  0.0488977536753836  0.007783728376189502  0.157105465795766  1.0000
  H   H17       1.0  0.9503757671524583  0.4031638366325438  0.2318168796198279  1.0000
  H   H18       1.0  0.21512438280229418  0.6578334315141349  0.8022682908860403  1.0000
  H   H19       1.0  0.47460053050598827  0.11543029609255478  0.7647298131100231  1.0000
  H   H20       1.0  0.03807886667096481  0.897479061603221  0.2695216928424458  1.0000
  H   H21       1.0  0.5164114745480717  0.5023911599493401  0.3605415042434076  1.0000
  H   H22       1.0  0.0553680024120027  0.359772876904465  0.7352211016947905  1.0000
  H   H23       1.0  0.9975624314642815  0.0092154282565531  0.6355103066155934  1.0000
  H   H24       1.0  0.48394195169870363  0.0031365223317152  0.13200256056335044  1.0000
  H   H25       1.0  0.5557764095282637  0.5823899964253911  0.27626139534990574  1.0000
  H   H26       1.0  0.31151564840546814  0.34798642020188447  0.7049359120311749  1.0000
  H   H27       1.0  0.07296266048780349  0.9193797982131287  0.7074125955274512  1.0000
  H   H28       1.0  0.4334835463986408  0.08501868538974831  0.21408357791829505  1.0000
  H   H29       1.0  0.5710133777515267  0.46032631761779197  0.1766556289610719  1.0000
  H   H30       1.0  0.23151020540369427  0.4562198200137145  0.5944107872314248  1.0000
  H   H31       1.0  0.07862197681302521  0.020117017211859396  0.8270786522793756  1.0000
  H   H32       1.0  0.41408535642330707  0.9658039858471809  0.3160865471332315  1.0000
  H   H33       1.0  0.5134359737780586  0.38076963354877347  0.2596604221087233  1.0000
  H   H34       1.0  0.0024421439245685033  0.49025360502928084  0.6440889696620999  1.0000
  H   H35       1.0  0.040830470342065404  0.11178878403870128  0.7527685730955583  1.0000
  H   H36       1.0  0.47730354347105935  0.8838647115926079  0.23562133110220881  1.0000
  H   H37       1.0  0.1597202244308633  0.45370382165828727  0.396929591415912  1.0000
  H   H38       1.0  0.9568789482859188  0.4929160056472099  0.8343972727238056  1.0000
  H   H39       1.0  0.6162648901482298  0.039486470082742586  0.6025524526010245  1.0000
  H   H40       1.0  0.8478437079602801  0.9534577797187892  0.1013599399197673  1.0000
  H   H41       1.0  0.1432414257141517  0.3411458887500133  0.2876718402501197  1.0000
  H   H42       1.0  0.9882295966481964  0.626515654599096  0.7473432570751514  1.0000
  H   H43       1.0  0.6825112486690018  0.1560168772263708  0.7048216266589904  1.0000
  H   H44       1.0  0.8476900396344507  0.8401900732760125  0.21015505554038336  1.0000
  H   H45       1.0  0.7424037914957397  0.6395472594248871  0.4579964805423843  1.0000
  H   H46       1.0  0.7452239722123584  0.37331757363562446  0.9804355914646977  1.0000
  H   H47       1.0  0.2377508772364436  0.8643539426962974  0.5344039622776224  1.0000
  H   H48       1.0  0.25401022439319837  0.1391292718919104  0.0413410358477364  1.0000
  C   C1        1.0  0.7330980004324346  0.8635083699777509  0.3820435248785188  1.0000
  C   C2        1.0  0.7673668136369471  0.1366353486056866  0.8839799678800305  1.0000
  C   C3        1.0  0.254979963832632  0.637079283190751  0.6182528087077159  1.0000
  C   C4        1.0  0.24686887322858556  0.36390490230603223  0.11504251923077653  1.0000
  C   C5        1.0  0.7439435183081218  0.8624499121729414  0.6181803858805922  1.0000
  C   C6        1.0  0.7534293601482814  0.13864763903531951  0.11666929477041782  1.0000
  C   C7        1.0  0.23899779067605217  0.6373975672129076  0.38123127274313623  1.0000
  C   C8        1.0  0.2583292361418614  0.3633735082464042  0.8832601936136372  1.0000
  C   C9        1.0  0.17142806805203756  0.604188534541727  0.2193489369733328  1.0000
  C   C10       1.0  0.4736967885403871  0.4777687873884204  0.8028553318336054  1.0000
  C   C11       1.0  0.7025933642422119  0.8942689202999714  0.7812780435618266  1.0000
  C   C12       1.0  0.8118005141524308  0.1035188298816792  0.2779912073358447  1.0000
  C   C13       1.0  0.1851017154764278  0.5286657236990209  0.14783910031921013  1.0000
  C   C14       1.0  0.4773034437848622  0.5440113204788092  0.7237709600007423  1.0000
  C   C15       1.0  0.6876445859557877  0.9722956374706226  0.8500750327188699  1.0000
  C   C16       1.0  0.8006099876372874  0.02779421879643  0.3492682571537601  1.0000
  C   C17       1.0  0.1029913089283596  0.4832945715073577  0.3345067273667439  1.0000
  C   C18       1.0  0.11076038941322253  0.5198185100087684  0.8368123064241573  1.0000
  C   C19       1.0  0.5940862313429636  0.014829639827134098  0.6699889044852869  1.0000
  C   C20       1.0  0.8953036313623884  0.9820535700353473  0.1651344719125518  1.0000
  C   C21       1.0  0.4579529498272167  0.5258211717845569  0.2962776610780865  1.0000
  C   C22       1.0  0.1952099863576606  0.39830964005056296  0.7257269827790864  1.0000
  C   C23       1.0  0.9627444246570394  0.9762246681666655  0.6985084155063745  1.0000
  C   C24       1.0  0.5348410621961435  0.027294638543516197  0.19692204805143382  1.0000
  C   C25       1.0  0.24052236668750027  0.5638068768272009  0.309368152916818  1.0000
  C   C26       1.0  0.2600481318077499  0.44054445290088046  0.8153729026406111  1.0000
  C   C27       1.0  0.7477976859568473  0.9361052680144581  0.6900456098197267  1.0000
  C   C28       1.0  0.7525465631151461  0.0634204255070259  0.1873200090247096  1.0000
  C   C29       1.0  0.2513012316971555  0.43485826117169074  0.18875275775196343  1.0000
  C   C30       1.0  0.26043916766538194  0.5660056708283391  0.691947271301089  1.0000
  C   C31       1.0  0.7659893820830774  0.0638161049702575  0.8118509114361744  1.0000
  C   C32       1.0  0.7346408647876856  0.9350637510550612  0.3084988289566297  1.0000
  C   C33       1.0  0.10169596411479628  0.409632517202411  0.2612046247846891  1.0000
  C   C34       1.0  0.1357245150162996  0.6000592094477072  0.7709176295558748  1.0000
  C   C35       1.0  0.6202999222916219  0.09456160825459393  0.7367103938741408  1.0000
  C   C36       1.0  0.8892382435736081  0.9073786914972929  0.23790358629609196  1.0000
  C   C37       1.0  0.46323659375861587  0.44622810403627977  0.22886479805863763  1.0000
  C   C38       1.0  0.16359929123967026  0.47615748200329483  0.6572260051286777  1.0000
  C   C39       1.0  0.9770589439120059  0.04615583721797378  0.7745841229875482  1.0000
  C   C40       1.0  0.5255670682954161  0.9491323278046978  0.265570752935389  1.0000
  Cl  Cl1       1.0  0.9164104538485844  0.6524216223785189  0.21953468893855904  1.0000
  Cl  Cl2       1.0  0.5621547651577359  0.5342978088286969  0.9031922959411178  1.0000
  Cl  Cl3       1.0  0.47449482048225633  0.8265696267093219  0.7831529248800424  1.0000
  Cl  Cl4       1.0  0.062371136485765505  0.15294502780043467  0.2791620162349844  1.0000
  O   O1        1.0  0.5742935914643185  0.8423579102566024  0.5837733873333519  1.0000
  O   O2        1.0  0.9179377136524638  0.1549365663429327  0.07800154897778103  1.0000
  O   O3        1.0  0.0687158573606581  0.6647167797737766  0.4095076524572861  1.0000
  O   O4        1.0  0.422930353608578  0.3187830634639681  0.897146445497427  1.0000
  O   O5        1.0  0.9036457323225235  0.8409896497497795  0.41619891318859464  1.0000
  O   O6        1.0  0.6017474941593051  0.15132192954866497  0.9235973026506059  1.0000
  O   O7        1.0  0.4227873087886138  0.6662194766371385  0.5906947625009664  1.0000
  O   O8        1.0  0.07625649991624071  0.32882027289493015  0.0966301970411081  1.0000
  O   O9        1.0  0.9126268500886142  0.8268859629035887  0.5963470653025951  1.0000
  O   O10       1.0  0.5853681547028629  0.17956158571474384  0.10026596910522301  1.0000
  O   O11       1.0  0.4088068228864686  0.6653222892249457  0.409721490874496  1.0000
  O   O12       1.0  0.09147908678449575  0.34699033660628936  0.9199091895745539  1.0000
  O   O13       1.0  0.08082467903292212  0.6593698980545996  0.5878375880595003  1.0000
  O   O14       1.0  0.41093055571018783  0.3477074498648562  0.0750194378948734  1.0000
  O   O15       1.0  0.5623441093561183  0.8340893436663349  0.4056331414104904  1.0000
  O   O16       1.0  0.9336371281006139  0.17626759583666998  0.9002164419481817  1.0000
  O   O17       1.0  0.742336114120107  0.6924900625067635  0.4970358620576789  1.0000
  O   O18       1.0  0.751073597362172  0.30833041610617334  0.9965339765331436  1.0000
  O   O19       1.0  0.23835573211952976  0.8067900220575409  0.5019038796201869  1.0000
  O   O20       1.0  0.2559071425266808  0.19234042425654246  0.0025316126524118003  1.0000
