data_image0
_chemical_formula_structural       Zn4H53C89N25O18
_chemical_formula_sum              "Zn4 H53 C89 N25 O18"
_cell_length_a       18.736258925563565
_cell_length_b       18.915939154928555
_cell_length_c       20.465813991709233
_cell_angle_alpha    105.76635559865976
_cell_angle_beta     107.3554592695577
_cell_angle_gamma    111.77875671191097

_space_group_name_H-M_alt    "P 1"
_space_group_IT_number       1

loop_
  _space_group_symop_operation_xyz
  'x, y, z'

loop_
  _atom_site_type_symbol
  _atom_site_label
  _atom_site_symmetry_multiplicity
  _atom_site_fract_x
  _atom_site_fract_y
  _atom_site_fract_z
  _atom_site_occupancy
  Zn  Zn1       1.0  0.8942207404696062  0.8909600012131589  0.5025050369635196  1.0000
  Zn  Zn2       1.0  0.10774845184312198  0.1010019393834654  0.49831651623093626  1.0000
  Zn  Zn3       1.0  0.10708904953806099  0.9997958701297165  0.6104351001603376  1.0000
  Zn  Zn4       1.0  0.8984994595668352  0.007327638896597711  0.3922741663333723  1.0000
  H   H1        1.0  0.8379032381512842  0.8062499829648715  0.6149808808065416  1.0000
  H   H2        1.0  0.8556433662317459  0.13713464960630964  0.4859443680548309  1.0000
  H   H3        1.0  0.0758993807855362  0.25006714819832615  0.5969264886456642  1.0000
  H   H4        1.0  0.8671399457295763  0.003957379859890762  0.6277617369894699  1.0000
  H   H5        1.0  0.8974788182055846  0.16510791641519515  0.34618461083715607  1.0000
  H   H6        1.0  0.11339993707178309  0.9120392422104897  0.7289636817345837  1.0000
  H   H7        1.0  0.6789156415270197  0.7169634082378876  0.3820110228122715  1.0000
  H   H8        1.0  0.3095246992150252  0.17977933559807005  0.5322678003545604  1.0000
  H   H9        1.0  0.16526461588152588  0.903792594121121  0.509448641397121  1.0000
  H   H10       1.0  0.8751013948103221  0.8563868031636163  0.25278577230939453  1.0000
  H   H11       1.0  0.1524215109247677  0.9844886397640452  0.38062671944402393  1.0000
  H   H12       1.0  0.8924916576840048  0.726391394169049  0.3962862645115309  1.0000
  H   H13       1.0  0.3148051619792581  0.04923688521730438  0.6764235828795649  1.0000
  H   H14       1.0  0.45750956628314293  0.22144291810315753  0.5651963980385019  1.0000
  H   H15       1.0  0.4449106437287043  0.0747782778804762  0.6940298082883984  1.0000
  H   H16       1.0  0.7954274010757629  0.06302572528637274  0.6822641476735711  1.0000
  H   H17       1.0  0.8019165455473497  0.2028275018714964  0.5480683972550294  1.0000
  H   H18       1.0  0.5833838789910358  0.2779573658874239  0.5410947693022692  1.0000
  H   H19       1.0  0.9289339633112519  0.634403538229563  0.32305937607399937  1.0000
  H   H20       1.0  0.26832151768893203  0.5660751262118495  0.5186179743705779  1.0000
  H   H21       1.0  0.18133547314911166  0.4142795627791145  0.4845991349989376  1.0000
  H   H22       1.0  0.9207209258384026  0.2715687291997638  0.3067364363286202  1.0000
  H   H23       1.0  0.8542161240830308  0.3445236097656163  0.24847497395371215  1.0000
  H   H24       1.0  0.8573522042212359  0.4780577766653522  0.25475244793928203  1.0000
  H   H25       1.0  0.5354677297171052  0.79880784729189  0.21238447749819042  1.0000
  H   H26       1.0  0.33999182766686425  0.5899183905596742  0.9842405739804718  1.0000
  H   H27       1.0  0.43696776285481326  0.49570777217876133  0.1492061648386312  1.0000
  H   H28       1.0  0.1528295743224533  0.38436017413188495  0.943769602535305  1.0000
  H   H29       1.0  0.5808981923525635  0.6036378348747176  0.2525749283067852  1.0000
  H   H30       1.0  0.3006664224140608  0.456244817749365  0.04615363553503476  1.0000
  H   H31       1.0  0.39314154603778206  0.691106145928529  0.1077707272509372  1.0000
  H   H32       1.0  0.30925406033404107  0.516140593926572  0.853191415156452  1.0000
  H   H33       1.0  0.052821807378123295  0.7579783135154657  0.737943619308254  1.0000
  H   H34       1.0  0.13781633173493196  0.9637615934997398  0.24948943313680877  1.0000
  H   H35       1.0  0.9998374242568175  0.8582341764874214  0.9855962018183747  1.0000
  H   H36       1.0  0.8709015226408353  0.7867147826690085  0.8648236704091302  1.0000
  H   H37       1.0  0.8704538927978831  0.8359531943467147  0.7640532015404986  1.0000
  H   H38       1.0  0.9733072689746791  0.6784405312067887  0.932994178995095  1.0000
  H   H39       1.0  0.22679460994656608  0.3189055786286302  0.4568347357277601  1.0000
  H   H40       1.0  0.22142486175913934  0.3475804651062048  0.5446398920420066  1.0000
  H   H41       1.0  0.227075029768919  0.25494876692496865  0.5064215704638926  1.0000
  H   H42       1.0  0.22697115571107668  0.7723574439935916  0.5838480636273572  1.0000
  H   H43       1.0  0.24142374339032102  0.8395856015476182  0.5379408856661954  1.0000
  H   H44       1.0  0.16065207874062543  0.8186027240315  0.5700029117125638  1.0000
  H   H45       1.0  0.2499279171944906  0.33916842991435203  0.691637445209345  1.0000
  H   H46       1.0  0.1927099807998118  0.3922135855118397  0.6687357605769151  1.0000
  H   H47       1.0  0.3013070567140233  0.4511973829154173  0.7387593503869994  1.0000
  H   H48       1.0  0.10442672390969679  0.6955995633282727  0.8102019268540132  1.0000
  H   H49       1.0  0.1161659032950482  0.7339632950048697  0.9044821835910567  1.0000
  H   H50       1.0  0.030685282875658998  0.6325811404056194  0.8358599867399619  1.0000
  H   H51       1.0  0.16801700668212757  0.8995091399032944  0.0820927760033855  1.0000
  H   H52       1.0  0.1285420136590218  0.9710816702329839  0.08712541247343364  1.0000
  H   H53       1.0  0.20635059678020437  0.9840937934930668  0.1714388939717751  1.0000
  C   C1        1.0  0.9070259623197642  0.8387668670185915  0.6346780730365609  1.0000
  C   C2        1.0  0.1038878425495398  0.24167809087963119  0.4496623904596362  1.0000
  C   C3        1.0  0.1196025695620619  0.15917199692987785  0.7060495433486622  1.0000
  C   C4        1.0  0.8628680961007049  0.09743673240980405  0.514129002061118  1.0000
  C   C5        1.0  0.08844321938086348  0.2131156505314991  0.6264555331068634  1.0000
  C   C6        1.0  0.8681942026190371  0.029102398871863378  0.5860532096856446  1.0000
  C   C7        1.0  0.9629012033071122  0.1816549633732407  0.38088633349632783  1.0000
  C   C8        1.0  0.0474037479713942  0.8908613616396011  0.6913495496877928  1.0000
  C   C9        1.0  0.9713727641414351  0.8400271657580872  0.6924968656757073  1.0000
  C   C10       1.0  0.040252899480776705  0.2565086508861896  0.4077621865872558  1.0000
  C   C11       1.0  0.11568218987036971  0.23202119561903334  0.7038412115503334  1.0000
  C   C12       1.0  0.8462756388310523  0.09013356144426143  0.5754294472027439  1.0000
  C   C13       1.0  0.7019936225533954  0.7649146940970579  0.36247071290147664  1.0000
  C   C14       1.0  0.29724565901280187  0.14426187478818514  0.5651357222615303  1.0000
  C   C15       1.0  0.09598745073521542  0.8704233276448363  0.4870665614129522  1.0000
  C   C16       1.0  0.9420399191658504  0.8952233032535517  0.29458567327613844  1.0000
  C   C17       1.0  0.08391191989549178  0.9622397299164973  0.35897254434642184  1.0000
  C   C18       1.0  0.9567405909714709  0.7806510743785678  0.42861260613237573  1.0000
  C   C19       1.0  0.7208065522180219  0.8480147355905031  0.30527058445741057  1.0000
  C   C20       1.0  0.29989030229442903  0.077496628124905  0.6383232864202171  1.0000
  C   C21       1.0  0.6575383192985385  0.7708807624437384  0.2974206817707241  1.0000
  C   C22       1.0  0.35227427189719407  0.12605860357400187  0.6126651272606978  1.0000
  C   C23       1.0  0.036634786697369706  0.7839708912450192  0.4423661044514091  1.0000
  C   C24       1.0  0.015652916794195403  0.8968678054853569  0.2890930325145575  1.0000
  C   C25       1.0  0.48491258734816267  0.19211530469242177  0.596514284947915  1.0000
  C   C26       1.0  0.43993599568970854  0.14503015590510418  0.6272393401307355  1.0000
  C   C27       1.0  0.4789069019384584  0.1108931132745567  0.6694890113178926  1.0000
  C   C28       1.0  0.5579061258790929  0.1170478666229968  0.6768039816793917  1.0000
  C   C29       1.0  0.6008067771545529  0.1596620822486443  0.640462646455191  1.0000
  C   C30       1.0  0.564079971642485  0.1996815055926432  0.6022130994016947  1.0000
  C   C31       1.0  0.5989775957572547  0.08107405461153414  0.717683239675722  1.0000
  C   C32       1.0  0.6718306264163945  0.08168350120751465  0.7164585808956475  1.0000
  C   C33       1.0  0.7094360676950374  0.11444784962095159  0.6723990726133025  1.0000
  C   C34       1.0  0.6750981601454383  0.15836484104151077  0.6378051802563718  1.0000
  C   C35       1.0  0.7142087135851583  0.1958019553663703  0.5965544672688168  1.0000
  C   C36       1.0  0.6799422677521818  0.24291936192151542  0.565937419763543  1.0000
  C   C37       1.0  0.6078329900310778  0.24371540239133796  0.5676258678152166  1.0000
  C   C38       1.0  0.7718327365607537  0.09891988954979056  0.6576444653010896  1.0000
  C   C39       1.0  0.8002432631283654  0.12458494181446159  0.6077038969345239  1.0000
  C   C40       1.0  0.7753638535012753  0.177570881214926  0.5822649856782789  1.0000
  C   C41       1.0  0.9850177640096903  0.6353653095942563  0.3605328163360826  1.0000
  C   C42       1.0  0.05139327185108301  0.7117505765698056  0.42270843396561025  1.0000
  C   C43       1.0  0.1268237631365992  0.7147807373144417  0.46963085775998076  1.0000
  C   C44       1.0  0.13438291641667627  0.6410496424616242  0.45057801969009864  1.0000
  C   C45       1.0  0.0609771513589124  0.5614236988890011  0.3954069258068387  1.0000
  C   C46       1.0  0.9859580079475238  0.5593219014485342  0.3482788363286815  1.0000
  C   C47       1.0  0.21039644847053296  0.6375273435973196  0.48928973363371847  1.0000
  C   C48       1.0  0.2087899966683153  0.5640042993760731  0.48702368425096415  1.0000
  C   C49       1.0  0.13144885362443404  0.48528821980338693  0.44104374606929053  1.0000
  C   C50       1.0  0.059039209942064005  0.48441253801909323  0.39118407232879093  1.0000
  C   C51       1.0  0.9829518116830797  0.40518932329479884  0.34059904149901127  1.0000
  C   C52       1.0  0.9112090966572027  0.40505036017049184  0.28935478897979294  1.0000
  C   C53       1.0  0.9129861942173109  0.47890134948063684  0.29291703837753863  1.0000
  C   C54       1.0  0.1255556008310705  0.41016684151012583  0.44364629620124424  1.0000
  C   C55       1.0  0.049266784616428104  0.3326590649227299  0.39792138965773927  1.0000
  C   C56       1.0  0.9798853570480971  0.3314015688488181  0.34492202764452157  1.0000
  C   C57       1.0  0.5701582049761099  0.7093246011537246  0.2387479008521041  1.0000
  C   C58       1.0  0.5148057580496966  0.7324733639573109  0.19802093049880648  1.0000
  C   C59       1.0  0.43455922324325513  0.6716561825444886  0.1389700451327301  1.0000
  C   C60       1.0  0.4059929200255609  0.5851208058993648  0.11837898275427253  1.0000
  C   C61       1.0  0.4582766230605627  0.5623484736314592  0.1633933107086918  1.0000
  C   C62       1.0  0.5392477310439148  0.6231571299679146  0.22173606904850376  1.0000
  C   C63       1.0  0.1717630147520168  0.38689841725444307  0.8987124763125108  1.0000
  C   C64       1.0  0.12568183398705196  0.31647412630778854  0.829313854522212  1.0000
  C   C65       1.0  0.21284627061719869  0.3877267622221083  0.7770729748062664  1.0000
  C   C66       1.0  0.2567187519954643  0.4593504426762038  0.8462600620234966  1.0000
  C   C67       1.0  0.24172741396900216  0.4590160254816098  0.9094695605726102  1.0000
  C   C68       1.0  0.33021431171289345  0.5193293653956843  0.04834589389622586  1.0000
  C   C69       1.0  0.30406149212664246  0.5289575022032266  0.9837588039648181  1.0000
  C   C70       1.0  0.1476440125403187  0.3118934949052131  0.7684728828515048  1.0000
  C   C71       1.0  0.9636188473815464  0.8023927171217478  0.7454717624801573  1.0000
  C   C72       1.0  0.012883986445267198  0.764327208265364  0.7661339865092529  1.0000
  C   C73       1.0  0.013390914726628001  0.7355738461784327  0.8222587722737134  1.0000
  C   C74       1.0  0.9642635563833865  0.7474117384483205  0.8605585267573517  1.0000
  C   C75       1.0  0.9108819926860008  0.7806762547682595  0.8367000130529263  1.0000
  C   C76       1.0  0.9098981969456544  0.8073886908977528  0.7797191847566154  1.0000
  C   C77       1.0  0.9434385247491405  0.7580188368799268  0.08515600443210046  1.0000
  C   C78       1.0  0.9513341059485256  0.7789121305283047  0.15897480326039232  1.0000
  C   C79       1.0  0.0842594764841138  0.9037787454586165  0.20356462711832532  1.0000
  C   C80       1.0  0.0792000923544975  0.8819622822522603  0.13112198003543096  1.0000
  C   C81       1.0  0.004572803538025001  0.8097839200300498  0.06880970789212174  1.0000
  C   C82       1.0  0.9753069525907635  0.7362023593001512  0.9306619087140079  1.0000
  C   C83       1.0  0.9918564181479751  0.800490187265396  0.9920650814513364  1.0000
  C   C84       1.0  0.018919790824739394  0.8565285236987066  0.21910519392653785  1.0000
  C   C85       1.0  0.19951126903835362  0.29376067766115443  0.49143558436708196  1.0000
  C   C86       1.0  0.19266442165501016  0.7904137816102902  0.5438066348772139  1.0000
  C   C87       1.0  0.24072742962618318  0.3926728414649716  0.7158216498129873  1.0000
  C   C88       1.0  0.06912201429481972  0.6975147753583569  0.8442533114819001  1.0000
  C   C89       1.0  0.14952680529820836  0.9371619779822139  0.11761223625489246  1.0000
  N   N1        1.0  0.9421564333778532  0.8846537587706533  0.6012967548800459  1.0000
  N   N2        1.0  0.0652387696832548  0.16408369811710338  0.44690760603539564  1.0000
  N   N3        1.0  0.09522299798403819  0.1032305057459624  0.636158730166585  1.0000
  N   N4        1.0  0.8904079859409748  0.044065675872815374  0.49000624654553354  1.0000
  N   N5        1.0  0.0770722311376844  0.13590227706295369  0.5873386327801029  1.0000
  N   N6        1.0  0.8936364432094733  0.001589723396492031  0.5340341784257133  1.0000
  N   N7        1.0  0.9782772543426576  0.1268720131772055  0.40451219140444283  1.0000
  N   N8        1.0  0.029536298277257293  0.9174323234136919  0.63696006200513  1.0000
  N   N9        1.0  0.7830559825806347  0.8319466517337942  0.4034991885787422  1.0000
  N   N10       1.0  0.218853934774387  0.10915489765124418  0.5628454270422336  1.0000
  N   N11       1.0  0.0549038812427298  0.9139600260881267  0.5006579516345013  1.0000
  N   N12       1.0  0.9654537436727607  0.9555516082144919  0.3616950552349181  1.0000
  N   N13       1.0  0.052431388202308  0.9964037822092209  0.4014950563308447  1.0000
  N   N14       1.0  0.9688998574693457  0.858321671791046  0.464156142791225  1.0000
  N   N15       1.0  0.7945364413736371  0.8820675357264635  0.3682216244156962  1.0000
  N   N16       1.0  0.2208938089292971  0.06765091194749567  0.608382255931545  1.0000
  N   N17       1.0  0.7223925349813455  0.8936990382038772  0.26048516574300606  1.0000
  N   N18       1.0  0.5626304342967998  0.042721226875165975  0.762068023736596  1.0000
  N   N19       1.0  0.7118449527573673  0.04246694961513236  0.7574634375689724  1.0000
  N   N20       1.0  0.720600066228229  0.2923610532070241  0.5300750979875203  1.0000
  N   N21       1.0  0.29691023814371675  0.7114689733745508  0.5250664697343552  1.0000
  N   N22       1.0  0.15649134772150572  0.14313542364575232  0.7685093831176104  1.0000
  N   N23       1.0  0.0500590143083883  0.24471739554767413  0.8215685401941926  1.0000
  N   N24       1.0  0.8854892133744628  0.7216973339303294  0.17298301088342077  1.0000
  N   N25       1.0  0.8673041993986531  0.6800729280915193  0.021220751723603944  1.0000
  O   O1        1.0  0.6613748057534253  0.8649503861039349  0.19827720969081522  1.0000
  O   O2        1.0  0.7894938221813347  0.965583038003153  0.28694642887421656  1.0000
  O   O3        1.0  0.48478051242830833  0.9912108013278242  0.7302233570210532  1.0000
  O   O4        1.0  0.6127983603002748  0.0653386671601837  0.828322351005859  1.0000
  O   O5        1.0  0.6701480669699862  0.9650552781959829  0.733924722675681  1.0000
  O   O6        1.0  0.7848815696101568  0.09027139470319422  0.8099147590121022  1.0000
  O   O7        1.0  0.7982802119975007  0.3174678633705171  0.5488215872635394  1.0000
  O   O8        1.0  0.6752513023898601  0.3073924996545471  0.4839022432929739  1.0000
  O   O9        1.0  0.3095329962255348  0.7590082782274621  0.49316847951753573  1.0000
  O   O10       1.0  0.3528114944714602  0.7197707148188641  0.5824347037938509  1.0000
  O   O11       1.0  0.17128572648380205  0.1885686485945967  0.8327740084880588  1.0000
  O   O12       1.0  0.17469295119790468  0.08474757825960916  0.7550186585583987  1.0000
  O   O13       1.0  0.045803358999258095  0.24304352389024333  0.8803180924292633  1.0000
  O   O14       1.0  0.9941943894731864  0.19153136633227769  0.7563232048355175  1.0000
  O   O15       1.0  0.8090310143466226  0.6931477984602524  0.12939614383663664  1.0000
  O   O16       1.0  0.9111972953550449  0.7060367424734438  0.22759884086874385  1.0000
  O   O17       1.0  0.8637770697317037  0.6124831083129861  0.017978166951543577  1.0000
  O   O18       1.0  0.8152876868425379  0.6889918129002622  0.9754884971273583  1.0000
