data_image0
_chemical_formula_structural       Zn4Mo2H18C18N14O12
_chemical_formula_sum              "Zn4 Mo2 H18 C18 N14 O12"
_cell_length_a       6.924065108897909
_cell_length_b       6.876556943836656
_cell_length_c       15.518454027327493
_cell_angle_alpha    84.19512765408969
_cell_angle_beta     80.1298751837919
_cell_angle_gamma    71.28996830008741

_space_group_name_H-M_alt    "P 1"
_space_group_IT_number       1

loop_
  _space_group_symop_operation_xyz
  'x, y, z'

loop_
  _atom_site_type_symbol
  _atom_site_label
  _atom_site_symmetry_multiplicity
  _atom_site_fract_x
  _atom_site_fract_y
  _atom_site_fract_z
  _atom_site_occupancy
  Zn  Zn1       1.0  0.4171215326506115  0.20047821694924284  0.4357354339470093  1.0000
  Zn  Zn2       1.0  0.58287787884057  0.7995221041017404  0.5642655293963801  1.0000
  Zn  Zn3       1.0  0.1591762670484798  0.14584178557265662  0.6252046893659866  1.0000
  Zn  Zn4       1.0  0.8408226696764627  0.8541600742607688  0.37479559758077846  1.0000
  Mo  Mo1       1.0  0.1453230226372638  0.6569918755079985  0.5512996040831555  1.0000
  Mo  Mo2       1.0  0.8546763985172203  0.34300844710971035  0.44870071407263623  1.0000
  H   H1        1.0  0.8061025830829109  0.042360397516624515  0.6807250045390278  1.0000
  H   H2        1.0  0.19389878605956307  0.9576383953731382  0.3192752370182177  1.0000
  H   H3        1.0  0.7561475333489511  0.2875573267981295  0.6427396906783116  1.0000
  H   H4        1.0  0.24385335136398098  0.7124430033073496  0.3572605196699143  1.0000
  H   H5        1.0  0.19211147138546636  0.5860594198040161  0.8986094789215997  1.0000
  H   H6        1.0  0.8078865055371693  0.41394089845938004  0.1013896566665622  1.0000
  H   H7        1.0  0.12222676437949076  0.8237880432608409  0.7952473357522223  1.0000
  H   H8        1.0  0.877772182008748  0.1762138181393098  0.20475230600694522  1.0000
  H   H9        1.0  0.29481636463999183  0.037529902326042516  0.044541329525792206  1.0000
  H   H10       1.0  0.7051835409440342  0.9624688830759568  0.9554590198390187  1.0000
  H   H11       1.0  0.3068837457114597  0.8030023081487343  0.17606950361584955  1.0000
  H   H12       1.0  0.6931147156407177  0.1969964728989454  0.823929663181332  1.0000
  H   H13       1.0  0.2109912054486145  0.35248680361256396  0.028097863483658603  1.0000
  H   H14       1.0  0.7890067618107182  0.6475135130840998  0.9719019172921013  1.0000
  H   H15       1.0  0.31917787439282097  0.34662486296146977  0.7768021873851724  1.0000
  H   H16       1.0  0.6808244642152557  0.6533754730650543  0.22319856034308574  1.0000
  H   H17       1.0  0.5142935332679244  0.2127842855428383  0.5885020132027989  1.0000
  H   H18       1.0  0.48570588788656  0.7872160370748704  0.4114983049529998  1.0000
  C   C1        1.0  0.24133812445108282  0.828046888143952  0.9633677898928071  1.0000
  C   C2        1.0  0.7586642238202896  0.17195344944929758  0.03663231264785343  1.0000
  C   C3        1.0  0.21639204187023608  0.6355129531576439  0.9591658356036279  1.0000
  C   C4        1.0  0.7836069135747792  0.36448429224104467  0.04083271721498253  1.0000
  C   C5        1.0  0.26059704298499026  0.560627425709342  0.11201880172242802  1.0000
  C   C6        1.0  0.739399964472035  0.43937134941729294  0.8879798276947215  1.0000
  C   C7        1.0  0.2766305002214438  0.4181585896747465  0.18888844420758494  1.0000
  C   C8        1.0  0.7233689305963366  0.5818417345096877  0.8111112287606093  1.0000
  C   C9        1.0  0.1852108854894254  0.9408515097784617  0.8090421084428031  1.0000
  C   C10       1.0  0.814790503586174  0.059151903812939104  0.190957286492214  1.0000
  C   C11       1.0  0.27487113010511155  0.888260775778356  0.04130743211774761  1.0000
  C   C12       1.0  0.7251292888983515  0.1117364771081029  0.9586910128932973  1.0000
  C   C13       1.0  0.28366888359572323  0.7549561225752727  0.11504509048790375  1.0000
  C   C14       1.0  0.7163305375587541  0.245044200042436  0.884955227667888  1.0000
  C   C15       1.0  0.22644713434960545  0.5031690558169758  0.033037748123113914  1.0000
  C   C16       1.0  0.7735488752584415  0.49683278904090866  0.9669627544387894  1.0000
  C   C17       1.0  0.28043649642864205  0.20895952514288754  0.8026986658737627  1.0000
  C   C18       1.0  0.7195658421794348  0.7910408108836365  0.1973020818545024  1.0000
  N   N1        1.0  0.3736881445054721  0.4254961010817411  0.2566051696466758  1.0000
  N   N2        1.0  0.62631177074185  0.5745026858869836  0.7433945345305376  1.0000
  N   N3        1.0  0.2132835971809186  0.09489269537157702  0.7543519616619108  1.0000
  N   N4        1.0  0.7867168031024715  0.9051091719496187  0.24564821747729582  1.0000
  N   N5        1.0  0.3513543837185153  0.267983225427493  0.3103377292725754  1.0000
  N   N6        1.0  0.6486460165648749  0.7320186418937029  0.6896624498666242  1.0000
  N   N7        1.0  0.23655906588531633  0.9612295907964425  0.8870893771539913  1.0000
  N   N8        1.0  0.7634428070132913  0.038767668011061615  0.11290960523708551  1.0000
  N   N9        1.0  0.19798548000660787  0.25889370587214705  0.20091449324349506  1.0000
  N   N10       1.0  0.8020129620189637  0.7411050720420818  0.7990859639288814  1.0000
  N   N11       1.0  0.2963915514665203  0.13314953897523912  0.8839843610662117  1.0000
  N   N12       1.0  0.7036103021054954  0.8668477166988141  0.11601591170006031  1.0000
  N   N13       1.0  0.2469967065296146  0.16818929767567434  0.2774534528918338  1.0000
  N   N14       1.0  0.7530041685200217  0.8318110308630794  0.72254740264399  1.0000
  O   O1        1.0  0.11000915745531606  0.4657617360250441  0.6306947796950484  1.0000
  O   O2        1.0  0.8899917272576087  0.5342385940804348  0.3693054306531779  1.0000
  O   O3        1.0  0.3160487615284707  0.5348584664191236  0.4593556318596087  1.0000
  O   O4        1.0  0.6839506596260135  0.46514185619858495  0.5406446862961829  1.0000
  O   O5        1.0  0.4534212512292369  0.12308260237764303  0.5655789328306542  1.0000
  O   O6        1.0  0.5465781795885505  0.8769177218067908  0.4344207401375401  1.0000
  O   O7        1.0  0.25529064615130176  0.8217909350525404  0.5967273784687279  1.0000
  O   O8        1.0  0.7447087750031826  0.17820938756516824  0.40327293968706374  1.0000
  O   O9        1.0  0.0982405462524127  0.20480459018095595  0.48350232073062227  1.0000
  O   O10       1.0  0.9017588749020716  0.7951957324367529  0.5164979974251693  1.0000
  O   O11       1.0  0.8588220996454936  0.1647391582673734  0.6634691682161462  1.0000
  O   O12       1.0  0.1411787850674385  0.8352611718381057  0.33653104213208007  1.0000
