data_image0
_chemical_formula_structural       Ag2H22C22S2N4O6
_chemical_formula_sum              "Ag2 H22 C22 S2 N4 O6"
_cell_length_a       7.085925229583705
_cell_length_b       8.198859905348767
_cell_length_c       11.254857239746066
_cell_angle_alpha    81.41192130587226
_cell_angle_beta     73.80067833807811
_cell_angle_gamma    66.79232855715853

_space_group_name_H-M_alt    "P 1"
_space_group_IT_number       1

loop_
  _space_group_symop_operation_xyz
  'x, y, z'

loop_
  _atom_site_type_symbol
  _atom_site_label
  _atom_site_symmetry_multiplicity
  _atom_site_fract_x
  _atom_site_fract_y
  _atom_site_fract_z
  _atom_site_occupancy
  Ag  Ag1       1.0  0.4712090847388381  0.3799766850101989  0.6266158092062639  1.0000
  Ag  Ag2       1.0  0.5287888243913983  0.6200302007941404  0.373390088307211  1.0000
  H   H1        1.0  0.9507080441917638  0.08479007115681719  0.8907310515595693  1.0000
  H   H2        1.0  0.04929035856380898  0.9152024295977055  0.10926900830288838  1.0000
  H   H3        1.0  0.01975098577891294  0.27956645951356757  0.009016207595252007  1.0000
  H   H4        1.0  0.9802397549931856  0.7204233640307294  0.9909872001213029  1.0000
  H   H5        1.0  0.6761825474028104  0.08563679897480367  0.8078901920948097  1.0000
  H   H6        1.0  0.3238062448207942  0.9143742240458789  0.1921124400317282  1.0000
  H   H7        1.0  0.6060957426007436  0.8955053709790233  0.6917555935217763  1.0000
  H   H8        1.0  0.3939053958212568  0.10450438588755158  0.3082414795463322  1.0000
  H   H9        1.0  0.5624075229094103  0.30272693625808234  0.9590304243046646  1.0000
  H   H10       1.0  0.4375765459340002  0.6972814505876315  0.04097326894982697  1.0000
  H   H11       1.0  0.3561758790784921  0.28517812694546757  0.08556982043015178  1.0000
  H   H12       1.0  0.6438108153716299  0.7148277007729574  0.9144301078050032  1.0000
  H   H13       1.0  0.30092757007013665  0.4596501458772264  0.9696263822822214  1.0000
  H   H14       1.0  0.6990585499454698  0.5403569333529246  0.030376192783137374  1.0000
  H   H15       1.0  0.9998098496259756  0.5713750824395517  0.7611255683444681  1.0000
  H   H16       1.0  0.00019331567503401832  0.42862663402922846  0.23887458046641538  1.0000
  H   H17       1.0  0.6441687436626112  0.556958731662803  0.7661967985545459  1.0000
  H   H18       1.0  0.35584085890101147  0.4430349804205845  0.23380388657795237  1.0000
  H   H19       1.0  0.9470464369678596  0.1701550446571645  0.5037813323590823  1.0000
  H   H20       1.0  0.0529573295395309  0.8298521275416347  0.4962128663577302  1.0000
  H   H21       1.0  0.3002443812570874  0.18043617046758695  0.5024081782315547  1.0000
  H   H22       1.0  0.6997652262638856  0.8195574905348121  0.4975942882370389  1.0000
  C   C1        1.0  0.2731591609419083  0.977829368418682  0.7841074877263523  1.0000
  C   C2        1.0  0.7268398504560736  0.0221685114443915  0.21588929404618543  1.0000
  C   C3        1.0  0.10853073114081722  0.08777695020748409  0.8725148801339486  1.0000
  C   C4        1.0  0.8914668084768493  0.9122209346784441  0.12748215433360596  1.0000
  C   C5        1.0  0.14823136648386986  0.19794805068928406  0.9377239724786575  1.0000
  C   C6        1.0  0.8517609020909519  0.8020551567751538  0.06227346668320166  1.0000
  C   C7        1.0  0.35160542668910466  0.20182371908404653  0.9151667199576748  1.0000
  C   C8        1.0  0.6483853824987874  0.7981793657007968  0.08483542523944008  1.0000
  C   C9        1.0  0.5143643668849265  0.09168020921813277  0.8252918850313546  1.0000
  C   C10       1.0  0.4856270559027326  0.9083282035942726  0.1747087634119353  1.0000
  C   C11       1.0  0.47636847514164055  0.979942834218377  0.7604632938940552  1.0000
  C   C12       1.0  0.5236311572921437  0.020060297050782994  0.23953466312879357  1.0000
  C   C13       1.0  0.39499588277341513  0.3190833414318064  0.985964299924845  1.0000
  C   C14       1.0  0.6049908166340643  0.6809224352056376  0.014037409646398649  1.0000
  C   C15       1.0  0.9862194791267951  0.4810348605397507  0.7049743185260409  1.0000
  C   C16       1.0  0.01378512870398653  0.5189601692049164  0.2950279901856375  1.0000
  C   C17       1.0  0.7923798333064767  0.47385892762362397  0.7074657286008659  1.0000
  C   C18       1.0  0.20762655186517526  0.5261387738822092  0.2925351337048453  1.0000
  C   C19       1.0  0.9583079304486689  0.2582124029817408  0.562691116718568  1.0000
  C   C20       1.0  0.04169961846407943  0.7417826422576964  0.4373097959350146  1.0000
  C   C21       1.0  0.15260430518606682  0.265091495148546  0.5605512815684932  1.0000
  C   C22       1.0  0.8474047204643542  0.7349034939870546  0.43945115972616816  1.0000
  S   S1        1.0  0.22903068082491282  0.825706253480952  0.7070872594921482  1.0000
  S   S2        1.0  0.7709751051254514  0.17429295494152086  0.29290734296329646  1.0000
  N   N1        1.0  0.165563575404363  0.3796122287747109  0.6288845231464251  1.0000
  N   N2        1.0  0.8344413211298162  0.6203786683502767  0.37112345779036804  1.0000
  N   N3        1.0  0.7782870866284101  0.36571935212035095  0.6340689030432713  1.0000
  N   N4        1.0  0.22172251593520548  0.6342743599630366  0.36593178208922694  1.0000
  O   O1        1.0  0.2820038803397154  0.6577190956049036  0.7833684001070934  1.0000
  O   O2        1.0  0.7180042281354844  0.3422748513657581  0.21662452170799176  1.0000
  O   O3        1.0  0.00548569901684465  0.9016958027424307  0.7031218797911549  1.0000
  O   O4        1.0  0.9945235999713163  0.09830219520357988  0.2968677891079422  1.0000
  O   O5        1.0  0.37628066903008783  0.8094021825347111  0.5834252650457756  1.0000
  O   O6        1.0  0.6237310164349453  0.19059687809387063  0.4165727799698188  1.0000
