data_image0
_chemical_formula_structural       Cu4H24C20N8Cl4
_chemical_formula_sum              "Cu4 H24 C20 N8 Cl4"
_cell_length_a       3.8591368175428187
_cell_length_b       12.249453753417125
_cell_length_c       12.793682096347826
_cell_angle_alpha    90.00028714685378
_cell_angle_beta     89.99918307927669
_cell_angle_gamma    97.54301111860833

_space_group_name_H-M_alt    "P 1"
_space_group_IT_number       1

loop_
  _space_group_symop_operation_xyz
  'x, y, z'

loop_
  _atom_site_type_symbol
  _atom_site_label
  _atom_site_symmetry_multiplicity
  _atom_site_fract_x
  _atom_site_fract_y
  _atom_site_fract_z
  _atom_site_occupancy
  Cu  Cu1       1.0  0.5617505388572964  0.8330343546601925  0.6976981908979597  1.0000
  Cu  Cu2       1.0  0.5617469871100553  0.33304106412531104  0.8023025930356836  1.0000
  Cu  Cu3       1.0  0.4382517559913239  0.16695530530634528  0.302304124826037  1.0000
  Cu  Cu4       1.0  0.4382629234196785  0.6669552085034102  0.1976958145080445  1.0000
  H   H1        1.0  0.27224008217282863  0.9183773218546706  0.5055909003994401  1.0000
  H   H2        1.0  0.27224023206412085  0.4183765670863906  0.9944138537561783  1.0000
  H   H3        1.0  0.7277520869624396  0.08162708247765241  0.49441219701550654  1.0000
  H   H4        1.0  0.7277660002610276  0.5816237969476958  0.0055884619837272  1.0000
  H   H5        1.0  0.2639232814754848  0.8691461774657016  0.3170125704484832  1.0000
  H   H6        1.0  0.2639371674313369  0.3691426524936647  0.1829890328057715  1.0000
  H   H7        1.0  0.7360812632337712  0.13085664396245283  0.6829897453006097  1.0000
  H   H8        1.0  0.7360883207023291  0.6308536967858843  0.8170085930690263  1.0000
  H   H9        1.0  0.7382076463596403  0.5910472030836545  0.3858519351487217  1.0000
  H   H10       1.0  0.7381970524134617  0.09104575941157121  0.1141440322034768  1.0000
  H   H11       1.0  0.2617909268895033  0.40896052035443375  0.6141488173526639  1.0000
  H   H12       1.0  0.26179680451767967  0.9089561875125939  0.8858512488442329  1.0000
  H   H13       1.0  0.8740832404229123  0.5487308065676261  0.5651869410829704  1.0000
  H   H14       1.0  0.8740919333631681  0.048731509127605904  0.9348088709385819  1.0000
  H   H15       1.0  0.12591031353542806  0.4512703169737763  0.43481224814253494  1.0000
  H   H16       1.0  0.12589642813851756  0.9512695888574143  0.0651871917547453  1.0000
  H   H17       1.0  0.5551381330805895  0.5851850854944943  0.6543496834656537  1.0000
  H   H18       1.0  0.5551448309609555  0.08518297069395692  0.8456484392023284  1.0000
  H   H19       1.0  0.4448534303610502  0.4148176720525711  0.3456502874036289  1.0000
  H   H20       1.0  0.4448429246851262  0.914816480518489  0.1543515316675794  1.0000
  H   H21       1.0  0.9704357083254466  0.6662024665460677  0.64754015042341  1.0000
  H   H22       1.0  0.9704407079088638  0.16620365709148643  0.8524565651604589  1.0000
  H   H23       1.0  0.029563038107546926  0.3337986825503095  0.3524613836984756  1.0000
  H   H24       1.0  0.029546744926392476  0.8337949707255135  0.1475402791650069  1.0000
  C   C1        1.0  0.3773906849351292  0.844937706372285  0.47871865147784826  1.0000
  C   C2        1.0  0.37739475265995287  0.3449359788060138  0.0212831384060337  1.0000
  C   C3        1.0  0.6226011813533248  0.1550658745674127  0.5212828826642664  1.0000
  C   C4        1.0  0.622601397490719  0.655065157516397  0.9787191773571707  1.0000
  C   C5        1.0  0.37297372444366766  0.8168462615160904  0.3737058267354954  1.0000
  C   C6        1.0  0.3729847258724844  0.3168416830877163  0.1262950727256253  1.0000
  C   C7        1.0  0.6270314259952128  0.18315820669450028  0.6262980522876588  1.0000
  C   C8        1.0  0.6270364783449693  0.6831571108133331  0.8737041164354906  1.0000
  C   C9        1.0  0.629838701671119  0.6633959403619585  0.4141092471163361  1.0000
  C   C10       1.0  0.6298365920549216  0.16339278630273676  0.08588751219868841  1.0000
  C   C11       1.0  0.3701624678603466  0.33661179585008955  0.5858907237437236  1.0000
  C   C12       1.0  0.3701670441318896  0.8366075649461066  0.9141093320961035  1.0000
  C   C13       1.0  0.6315555194142987  0.6897620834595415  0.5197817743290258  1.0000
  C   C14       1.0  0.6315545057017359  0.18975633714731543  0.9802157152507291  1.0000
  C   C15       1.0  0.3684481167545144  0.3102382677907158  0.4802158516015709  1.0000
  C   C16       1.0  0.36844640446779664  0.810236603598867  0.019784255576276197  1.0000
  C   C17       1.0  0.765423099015024  0.6183650343443079  0.6004242552414922  1.0000
  C   C18       1.0  0.7654299097922247  0.11836312684626193  0.8995723376731278  1.0000
  C   C19       1.0  0.2345733540364492  0.38163692536650734  0.3995772788871363  1.0000
  C   C20       1.0  0.2345601393073622  0.8816355137461045  0.10042450664681718  1.0000
  N   N1        1.0  0.5060809076369069  0.7828626307687759  0.5528157464068144  1.0000
  N   N2        1.0  0.5060843142395798  0.2828576014656008  0.9471873923802717  1.0000
  N   N3        1.0  0.49392073805120157  0.2171393544843241  0.44718109789594257  1.0000
  N   N4        1.0  0.49392010069871634  0.7171378222366659  0.0528188315313187  1.0000
  N   N5        1.0  0.4996393652649758  0.7252926345995263  0.3397886071673923  1.0000
  N   N6        1.0  0.4996436122132266  0.22528815297120988  0.16021133484602504  1.0000
  N   N7        1.0  0.5003611984468748  0.2747134548371335  0.6602137085976381  1.0000
  N   N8        1.0  0.5003643079077945  0.7747097536547114  0.8397831645266436  1.0000
  Cl  Cl1       1.0  0.07727993197690347  0.9572459615917168  0.7001077284800061  1.0000
  Cl  Cl2       1.0  0.0772882609246679  0.457249432687064  0.7998956907565075  1.0000
  Cl  Cl3       1.0  0.9227073910694017  0.0427452685008092  0.2998938056437552  1.0000
  Cl  Cl4       1.0  0.9226985860549844  0.5427475483573545  0.20010506174553908  1.0000
