data_image0
_chemical_formula_structural       Hg6H24C12Cl12O8
_chemical_formula_sum              "Hg6 H24 C12 Cl12 O8"
_cell_length_a       7.679786214224764
_cell_length_b       9.463525752160626
_cell_length_c       12.026017933780535
_cell_angle_alpha    100.13116320462854
_cell_angle_beta     89.81193323316339
_cell_angle_gamma    96.93565628316425

_space_group_name_H-M_alt    "P 1"
_space_group_IT_number       1

loop_
  _space_group_symop_operation_xyz
  'x, y, z'

loop_
  _atom_site_type_symbol
  _atom_site_label
  _atom_site_symmetry_multiplicity
  _atom_site_fract_x
  _atom_site_fract_y
  _atom_site_fract_z
  _atom_site_occupancy
  Hg  Hg1       1.0  0.142212798655514  0.8206221551041893  0.8925626108148278  1.0000
  Hg  Hg2       1.0  0.8577879421305781  0.17936621120205842  0.1074531020526877  1.0000
  Hg  Hg3       1.0  0.0788078256525679  0.48174141967774625  0.6539980907519478  1.0000
  Hg  Hg4       1.0  0.9211879490834035  0.5182481926805239  0.3460128139868033  1.0000
  Hg  Hg5       1.0  0.956328271986095  0.8396002840863801  0.21502989009652396  1.0000
  Hg  Hg6       1.0  0.04370047795487861  0.16040088533185332  0.7849895193626253  1.0000
  H   H1        1.0  0.6313698865340028  0.9414891712561582  0.6520878289930961  1.0000
  H   H2        1.0  0.3685859660377703  0.05847420438949771  0.3478582276780243  1.0000
  H   H3        1.0  0.627530387685539  0.8978432588549625  0.7891252774078267  1.0000
  H   H4        1.0  0.37247865252795975  0.1021437826775511  0.21082038151869398  1.0000
  H   H5        1.0  0.534429935019773  0.6914390400428161  0.6124779448819239  1.0000
  H   H6        1.0  0.4654894649399282  0.308525974696451  0.38749324332361107  1.0000
  H   H7        1.0  0.33404087505913077  0.7696895298080193  0.6154691628481997  1.0000
  H   H8        1.0  0.6658873362293818  0.230301349724094  0.38454679131901054  1.0000
  H   H9        1.0  0.611812602043365  0.5865389045447599  0.7490874520716417  1.0000
  H   H10       1.0  0.3881961888202596  0.4134741387909884  0.25089964868132597  1.0000
  H   H11       1.0  0.5565988333450846  0.6852912816818987  0.8819626270443378  1.0000
  H   H12       1.0  0.44342182671387326  0.31473134959895094  0.11802930480352102  1.0000
  H   H13       1.0  0.3017131302626552  0.49513054232043885  0.8950914614940827  1.0000
  H   H14       1.0  0.6983142521903218  0.5048869111690593  0.10492879555499711  1.0000
  H   H15       1.0  0.5126998885600429  0.43348742497220644  0.8954497909765422  1.0000
  H   H16       1.0  0.48734237842520406  0.5665325879602392  0.10455425647204919  1.0000
  H   H17       1.0  0.5681894876196265  0.3607285528188556  0.6419873231257752  1.0000
  H   H18       1.0  0.4318287969639982  0.6392882126486583  0.3580203332022123  1.0000
  H   H19       1.0  0.5862642197245123  0.26753627138405284  0.7572650251566984  1.0000
  H   H20       1.0  0.41374948661510297  0.7324668463723256  0.24272637547032616  1.0000
  H   H21       1.0  0.5354241171624138  0.10947727710552614  0.5691187076573597  1.0000
  H   H22       1.0  0.46456511935972605  0.8905279590971491  0.4308787927016695  1.0000
  H   H23       1.0  0.3255196901730173  0.170769327422903  0.5560900340043418  1.0000
  H   H24       1.0  0.6744765964838564  0.8292563637975975  0.4439131335564426  1.0000
  C   C1        1.0  0.5439305723811358  0.9020679853903604  0.7158928905408786  1.0000
  C   C2        1.0  0.4560631520319163  0.09790631666586341  0.2840832086541383  1.0000
  C   C3        1.0  0.4462399515550287  0.7554860515987016  0.6670151146473415  1.0000
  C   C4        1.0  0.5537116889885213  0.24450322817847345  0.3329765194617309  1.0000
  C   C5        1.0  0.5026386132417145  0.609275865310771  0.806410694730175  1.0000
  C   C6        1.0  0.4973722704744219  0.39074323998144694  0.1935923173951224  1.0000
  C   C7        1.0  0.4170046881228089  0.47286565489396526  0.8437704692447381  1.0000
  C   C8        1.0  0.583048225088298  0.5271476977306905  0.1562367302588825  1.0000
  C   C9        1.0  0.49445713372353584  0.290160875971182  0.6943305243203567  1.0000
  C   C10       1.0  0.5055686227972416  0.7098536894247901  0.3056768074844102  1.0000
  C   C11       1.0  0.4241789420576794  0.15200736982667706  0.6165040123749959  1.0000
  C   C12       1.0  0.5758177222161933  0.8480041594942593  0.383500296683401  1.0000
  Cl  Cl1       1.0  0.3075616573892291  0.8136054604252153  0.053354353390183545  1.0000
  Cl  Cl2       1.0  0.692424047024893  0.18636138390303358  0.9466563431547141  1.0000
  Cl  Cl3       1.0  0.9813774164770095  0.8298986964410204  0.7281724959249942  1.0000
  Cl  Cl4       1.0  0.018626667621362007  0.17009412207825392  0.271838920565635  1.0000
  Cl  Cl5       1.0  0.9512171234284778  0.49134713804243574  0.8340799592027253  1.0000
  Cl  Cl6       1.0  0.048787403900327285  0.5086488077553994  0.16593609965789108  1.0000
  Cl  Cl7       1.0  0.23066795877137025  0.46858094127940575  0.4819047995393291  1.0000
  Cl  Cl8       1.0  0.7693093391416072  0.5314153223807877  0.5181045993995282  1.0000
  Cl  Cl9       1.0  0.17911517188072412  0.1659827135456595  0.9614667996691324  1.0000
  Cl  Cl10      1.0  0.8209001556582151  0.8340068747428973  0.038541645673717546  1.0000
  Cl  Cl11      1.0  0.9187777051479102  0.1636181182063794  0.606865444798089  1.0000
  Cl  Cl12      1.0  0.0812225023810811  0.8363833520451108  0.393148131195808  1.0000
  O   O1        1.0  0.4338783038949926  0.0091901643767685  0.7618042887099532  1.0000
  O   O2        1.0  0.5661315108359375  0.990812995461063  0.23818627880267942  1.0000
  O   O3        1.0  0.3740157951385044  0.6729019673799713  0.7500182555661182  1.0000
  O   O4        1.0  0.6259609055597721  0.3270908662031502  0.24999726657556207  1.0000
  O   O5        1.0  0.35436098788500897  0.3591798574594236  0.7515330980688119  1.0000
  O   O6        1.0  0.6456671884138385  0.6408250045131041  0.24847107719220665  1.0000
  O   O7        1.0  0.3271941601872186  0.04226734646844932  0.668855480550931  1.0000
  O   O8        1.0  0.6728112226831653  0.9577582776182466  0.33114852678213674  1.0000
