data_image0
_chemical_formula_structural       Cd4P4H32C24N4O20
_chemical_formula_sum              "Cd4 P4 H32 C24 N4 O20"
_cell_length_a       5.264945513367231
_cell_length_b       11.932671114142275
_cell_length_c       14.59886517194458
_cell_angle_alpha    74.6574472388136
_cell_angle_beta     79.60587185789231
_cell_angle_gamma    77.23823843024867

_space_group_name_H-M_alt    "P 1"
_space_group_IT_number       1

loop_
  _space_group_symop_operation_xyz
  'x, y, z'

loop_
  _atom_site_type_symbol
  _atom_site_label
  _atom_site_symmetry_multiplicity
  _atom_site_fract_x
  _atom_site_fract_y
  _atom_site_fract_z
  _atom_site_occupancy
  Cd  Cd1       1.0  0.4363401553700618  0.8543279034583621  0.9818507622467645  1.0000
  Cd  Cd2       1.0  0.27287973171026203  0.6457826355254781  0.5180726235942641  1.0000
  Cd  Cd3       1.0  0.5636675767941101  0.14566851019628763  0.01815067929937438  1.0000
  Cd  Cd4       1.0  0.7271214908362966  0.3542164365045792  0.48192796697214374  1.0000
  P   P1        1.0  0.9402530177332701  0.03635841359051282  0.8629133965161981  1.0000
  P   P2        1.0  0.839923076518858  0.46360896450107  0.6370183272508567  1.0000
  P   P3        1.0  0.05975602561341745  0.9636398040147326  0.13708566696876548  1.0000
  P   P4        1.0  0.160079589703152  0.5363909889479573  0.3629822308463913  1.0000
  H   H1        1.0  0.6804944665510606  0.6999572823469578  0.145904068588102  1.0000
  H   H2        1.0  0.5266999669531672  0.8000613889618724  0.3540694474561404  1.0000
  H   H3        1.0  0.31950380016505203  0.3000461188887087  0.8541007940212989  1.0000
  H   H4        1.0  0.47330314778977867  0.19993853786307625  0.6459326108578904  1.0000
  H   H5        1.0  0.8745738432331648  0.7865751957147182  0.08545344992067058  1.0000
  H   H6        1.0  0.7468759324549271  0.7135108291826101  0.41459669331530324  1.0000
  H   H7        1.0  0.12542687103164277  0.21342557847579258  0.9145505122609378  1.0000
  H   H8        1.0  0.2531253755140172  0.2864890999954213  0.5854052394033429  1.0000
  H   H9        1.0  0.4163407923154739  0.8803619355937826  0.5281641975999276  1.0000
  H   H10       1.0  0.8249515146432389  0.6200409397051487  0.9715985541960915  1.0000
  H   H11       1.0  0.5836757518317911  0.11963001102869698  0.47184072417786627  1.0000
  H   H12       1.0  0.1750455604120021  0.37995730650718684  0.028398942810539965  1.0000
  H   H13       1.0  0.2746836269611423  0.04609122706297343  0.6135703197871009  1.0000
  H   H14       1.0  0.9350099243411598  0.45426111266758085  0.8862352095122216  1.0000
  H   H15       1.0  0.7253186378104818  0.9539069733305324  0.38642974153314186  1.0000
  H   H16       1.0  0.06498014153341819  0.5457370775734418  0.11376547285717456  1.0000
  H   H17       1.0  0.5886370568548005  0.8928353733114277  0.7465443436720134  1.0000
  H   H18       1.0  0.22820907490815767  0.6071301989230592  0.7534279515519555  1.0000
  H   H19       1.0  0.41135291885024833  0.10717089693919492  0.25344779181878596  1.0000
  H   H20       1.0  0.7717894821743769  0.39287156553581337  0.2465698516979841  1.0000
  H   H21       1.0  0.764565388745873  0.7321359716516724  0.6589313069056214  1.0000
  H   H22       1.0  0.15562230215200443  0.7680424921399407  0.8407976856007051  1.0000
  H   H23       1.0  0.23542914461958034  0.26786846096501904  0.3410650836492691  1.0000
  H   H24       1.0  0.8443802315770699  0.2319583838407128  0.15920052690452732  1.0000
  H   H25       1.0  0.9229475413751309  0.1555317794598423  0.701907224256608  1.0000
  H   H26       1.0  0.7810379096753202  0.34460139883992014  0.7980673658217865  1.0000
  H   H27       1.0  0.07706050681702709  0.8444655301023547  0.2980933719142909  1.0000
  H   H28       1.0  0.2189621852237739  0.6553976876787216  0.20193241183854124  1.0000
  H   H29       1.0  0.45236634728768665  0.06065026786257019  0.7932408785159166  1.0000
  H   H30       1.0  0.30684468671189097  0.43940618587186725  0.7067018998422225  1.0000
  H   H31       1.0  0.5476403810032552  0.9393496542562051  0.20676143098886246  1.0000
  H   H32       1.0  0.6931501587099833  0.5605946220019719  0.29330018533647706  1.0000
  C   C1        1.0  0.23649560495056246  0.8868689400422058  0.5784059434335658  1.0000
  C   C2        1.0  0.7019435594774422  0.6134714911429242  0.921357316311855  1.0000
  C   C3        1.0  0.763503810821995  0.11313013434094192  0.42159452153746446  1.0000
  C   C4        1.0  0.298049803917138  0.38652579848438523  0.07864446262352931  1.0000
  C   C5        1.0  0.15648630011245535  0.9777293198026773  0.6259508633676913  1.0000
  C   C6        1.0  0.7606578896250729  0.5225400212141339  0.8738816824717471  1.0000
  C   C7        1.0  0.8435207999957304  0.022265302036878203  0.37405226892892063  1.0000
  C   C8        1.0  0.23933768199388078  0.4774590191156067  0.12612071883602022  1.0000
  C   C9        1.0  0.9216173916320689  0.9817782284754559  0.6887669146989166  1.0000
  C   C10       1.0  0.5926133446825547  0.5183991547142242  0.8111062828332576  1.0000
  C   C11       1.0  0.07837569805792557  0.018225322722280203  0.31122950832512686  1.0000
  C   C12       1.0  0.40738254296439913  0.48160078152306346  0.18889527309926982  1.0000
  C   C13       1.0  0.7755754128752348  0.8927866005625305  0.7000998308583204  1.0000
  C   C14       1.0  0.36870329827035475  0.6073160451412889  0.7997887970034937  1.0000
  C   C15       1.0  0.2244140161962209  0.10721873502097173  0.29989533753520436  1.0000
  C   C16       1.0  0.6312932214325857  0.3926856829110932  0.20021106817855372  1.0000
  C   C17       1.0  0.8702214145524185  0.8039399301037238  0.6507151754394156  1.0000
  C   C18       1.0  0.32498838639929817  0.6962418495557972  0.8490797219225497  1.0000
  C   C19       1.0  0.12976915088520277  0.19606097448401988  0.3492814705874847  1.0000
  C   C20       1.0  0.6750091755287145  0.3037590068600339  0.15091961401333254  1.0000
  C   C21       1.0  0.8331201360539571  0.07862091301899453  0.7417722491073628  1.0000
  C   C22       1.0  0.6540520029929271  0.42147616984033937  0.7582145770621265  1.0000
  C   C23       1.0  0.16688393549166872  0.9213772850214214  0.25822793780825026  1.0000
  C   C24       1.0  0.3459477288076232  0.5785238004503556  0.24178504253366367  1.0000
  N   N1        1.0  0.09733410387622896  0.8005094526553478  0.5908118844714136  1.0000
  N   N2        1.0  0.4887335118708907  0.6997972281568964  0.9089207411233884  1.0000
  N   N3        1.0  0.9026656749948717  0.19948873795574681  0.4091887385641541  1.0000
  N   N4        1.0  0.5112694320272696  0.3002009843721041  0.09107863288614475  1.0000
  O   O1        1.0  0.23337051157038538  0.9786684650983166  0.8524663896486399  1.0000
  O   O2        1.0  0.06512437184060374  0.5211922552564019  0.6473228693462116  1.0000
  O   O3        1.0  0.7666332439472473  0.021328837034559504  0.14753464264221344  1.0000
  O   O4        1.0  0.9348754924528817  0.47880679250266683  0.3526790958416014  1.0000
  O   O5        1.0  0.7494949182498519  0.7376867223031526  0.07886691042517663  1.0000
  O   O6        1.0  0.566201532619417  0.7623809617117914  0.421142366111276  1.0000
  O   O7        1.0  0.2505047537898765  0.2623149235239098  0.9211375810025896  1.0000
  O   O8        1.0  0.43380081757460004  0.23761809582968146  0.578859037361212  1.0000
  O   O9        1.0  0.8902505958631797  0.1538217992422162  0.8955657586512797  1.0000
  O   O10       1.0  0.939495345358751  0.34601749594939685  0.6044874094291683  1.0000
  O   O11       1.0  0.10975447083697545  0.8461773068412483  0.10443289557839106  1.0000
  O   O12       1.0  0.06050334421672696  0.6539833459778563  0.395512739412794  1.0000
  O   O13       1.0  0.7654438764101108  0.9531531748999171  0.9278669875428347  1.0000
  O   O14       1.0  0.646849001035662  0.5469172483697237  0.5720825465155172  1.0000
  O   O15       1.0  0.23455842671336313  0.046847662321162886  0.07213341248988309  1.0000
  O   O16       1.0  0.35315794914217247  0.453087129015799  0.4279169107344741  1.0000
  O   O17       1.0  0.5567019518434724  0.1204298814585911  0.7505579492941261  1.0000
  O   O18       1.0  0.42814078472527267  0.3797099548964482  0.7495027861681647  1.0000
  O   O19       1.0  0.44330111582892323  0.8795718250459574  0.24944310558013413  1.0000
  O   O20       1.0  0.5718536592462231  0.6202890999218768  0.2504988022335225  1.0000
