data_image0
_chemical_formula_structural       Zn4H24C28N16O20
_chemical_formula_sum              "Zn4 H24 C28 N16 O20"
_cell_length_a       7.032797210262843
_cell_length_b       8.2860193277412
_cell_length_c       15.996337216002676
_cell_angle_alpha    90.00001006154962
_cell_angle_beta     89.99993467251417
_cell_angle_gamma    105.78150411745087

_space_group_name_H-M_alt    "P 1"
_space_group_IT_number       1

loop_
  _space_group_symop_operation_xyz
  'x, y, z'

loop_
  _atom_site_type_symbol
  _atom_site_label
  _atom_site_symmetry_multiplicity
  _atom_site_fract_x
  _atom_site_fract_y
  _atom_site_fract_z
  _atom_site_occupancy
  Zn  Zn1       1.0  0.32928169032603455  0.20174445113254086  0.9191534685226586  1.0000
  Zn  Zn2       1.0  0.17071898498667076  0.7982546204445455  0.4191528230628734  1.0000
  Zn  Zn3       1.0  0.6707154036186579  0.7982522601053222  0.0808458770155909  1.0000
  Zn  Zn4       1.0  0.8292835940154574  0.20174583617307462  0.5808465224741822  1.0000
  H   H1        1.0  0.3558698956740827  0.9144782260427108  0.8498882629544156  1.0000
  H   H2        1.0  0.14413320341313351  0.08552336790615563  0.3498888159691519  1.0000
  H   H3        1.0  0.6441316715133496  0.085523490340158  0.15011108258295283  1.0000
  H   H4        1.0  0.8558675472365138  0.9144758402515406  0.6501105295683018  1.0000
  H   H5        1.0  0.5529649927303879  0.9785964805126425  0.9088392121025353  1.0000
  H   H6        1.0  0.9470404320751628  0.0214065158486108  0.4088396084213101  1.0000
  H   H7        1.0  0.44703799454146775  0.021405230217645507  0.0911595082913692  1.0000
  H   H8        1.0  0.05296356701054354  0.9785939351163437  0.5911597371153903  1.0000
  H   H9        1.0  0.7758477171476341  0.8430590637106548  0.8160772900045146  1.0000
  H   H10       1.0  0.7241514614268779  0.15694147355187485  0.3160790599747259  1.0000
  H   H11       1.0  0.22415344177259294  0.1569413985598018  0.18392080524667156  1.0000
  H   H12       1.0  0.27585234237853473  0.8430627454031382  0.6839227861346375  1.0000
  H   H13       1.0  0.5873062298136488  0.650261482918644  0.5800645491624862  1.0000
  H   H14       1.0  0.9126885096802794  0.34973663054102383  0.08006561769580142  1.0000
  H   H15       1.0  0.41269452083599845  0.3497377252390522  0.41993479637496733  1.0000
  H   H16       1.0  0.08731305750546169  0.6502650858416602  0.9199349781277846  1.0000
  H   H17       1.0  0.2783476227422241  0.319646281177981  0.6023928474729132  1.0000
  H   H18       1.0  0.2216506600216021  0.6803516381377505  0.10239279103117842  1.0000
  H   H19       1.0  0.7216525243599249  0.680355440857369  0.3976077483510281  1.0000
  H   H20       1.0  0.7783494870813997  0.3196500838976918  0.8976071796496541  1.0000
  H   H21       1.0  0.17644612573423762  0.1249742865993966  0.7269482526796907  1.0000
  H   H22       1.0  0.3235522287512039  0.87502485122495  0.2269469129738297  1.0000
  H   H23       1.0  0.8235536130981841  0.8750261813232784  0.2730529682874021  1.0000
  H   H24       1.0  0.6764473148076816  0.12497938468850119  0.7730518074210408  1.0000
  C   C1        1.0  0.3983335453364205  0.5203015283783328  0.0008194871788803  1.0000
  C   C2        1.0  0.10166460361138262  0.47969516585969535  0.5008183959284267  1.0000
  C   C3        1.0  0.6016623237973773  0.4796914205213342  0.9991829840750553  1.0000
  C   C4        1.0  0.8983363600260149  0.5203090644005498  0.49918407532475584  1.0000
  C   C5        1.0  0.06163152205409259  0.9966961335585867  0.0401811035508146  1.0000
  C   C6        1.0  0.43835150316685667  0.0032980977296120013  0.540178550862926  1.0000
  C   C7        1.0  0.9383562348504525  0.003298103369999701  0.9598188671327605  1.0000
  C   C8        1.0  0.5616303781314969  0.9966999298005846  0.4598176689636233  1.0000
  C   C9        1.0  0.6858960204658473  0.7379225986345689  0.7800921947480716  1.0000
  C   C10       1.0  0.8141036636102683  0.2620792030269712  0.2800933043760453  1.0000
  C   C11       1.0  0.3141037183682585  0.2620778692882908  0.21990777593280345  1.0000
  C   C12       1.0  0.1859019685476255  0.7379262643879586  0.7199085417329201  1.0000
  C   C13       1.0  0.4791720069294386  0.4791267200520579  0.7755174371300555  1.0000
  C   C14       1.0  0.020827032857873563  0.5208749121137617  0.2755174661407053  1.0000
  C   C15       1.0  0.5208281401727106  0.520875001983292  0.2244831586938858  1.0000
  C   C16       1.0  0.9791763626803416  0.4791280527288393  0.7244831296824829  1.0000
  C   C17       1.0  0.46956633456480285  0.4900660276904603  0.6871347070922766  1.0000
  C   C18       1.0  0.03043354757868136  0.5099331158617275  0.1871347303206505  1.0000
  C   C19       1.0  0.5304356408898272  0.5099369428048137  0.3128658887312596  1.0000
  C   C20       1.0  0.9695710550511479  0.490064821225218  0.8128658655020049  1.0000
  C   C21       1.0  0.5815435601969908  0.6337350440780514  0.6477306652409709  1.0000
  C   C22       1.0  0.9184556649834191  0.3662642871939427  0.1477311072687542  1.0000
  C   C23       1.0  0.4184586105345501  0.36626415842680154  0.3522699305823522  1.0000
  C   C24       1.0  0.08154631047036524  0.6337386833012388  0.8522701136978981  1.0000
  C   C25       1.0  0.28263968170686843  0.24741798092278341  0.7304421566691061  1.0000
  C   C26       1.0  0.21735866333713008  0.752581155902739  0.23044148381403323  1.0000
  C   C27       1.0  0.7173582287730723  0.7525812385399745  0.2695590642983916  1.0000
  C   C28       1.0  0.782643312119184  0.24742181459271254  0.7695578617232854  1.0000
  N   N1        1.0  0.6906108574138371  0.7570525878671149  0.6960323261258097  1.0000
  N   N2        1.0  0.809386817170882  0.24294673525042754  0.196033436356096  1.0000
  N   N3        1.0  0.3093898932358101  0.2429466202905814  0.30396701941164384  1.0000
  N   N4        1.0  0.19061475001401354  0.7570549811321712  0.8039677846105988  1.0000
  N   N5        1.0  0.5855079646162409  0.6036066475307535  0.823300229966506  1.0000
  N   N6        1.0  0.9144916027125518  0.39639514177986973  0.3233006767183895  1.0000
  N   N7        1.0  0.4144903541334343  0.39639382604467943  0.17670036585782614  1.0000
  N   N8        1.0  0.08551422472395129  0.6036065576448238  0.6766999191041306  1.0000
  N   N9        1.0  0.3427504086410167  0.3415587095972654  0.6613425774483871  1.0000
  N   N10       1.0  0.15724528294301618  0.6584404582856891  0.1613419259361493  1.0000
  N   N11       1.0  0.6572489219242  0.6584405042130044  0.3386573932325305  1.0000
  N   N12       1.0  0.842755680698609  0.34156377197501103  0.838657419601482  1.0000
  N   N13       1.0  0.36230221602038876  0.323905557748958  0.800791995094265  1.0000
  N   N14       1.0  0.1376981755594997  0.6760960615395746  0.3007913549287764  1.0000
  N   N15       1.0  0.6376965109981754  0.6760961699390579  0.1992086007300244  1.0000
  N   N16       1.0  0.8623076518786875  0.32390563788530374  0.6992079906075261  1.0000
  O   O1        1.0  0.24882239230726103  0.41087756788613927  0.9748281183572303  1.0000
  O   O2        1.0  0.2511710144428605  0.5891127259466273  0.47482491317080633  1.0000
  O   O3        1.0  0.7511679917699465  0.5891116356338556  0.0251737277547903  1.0000
  O   O4        1.0  0.748819369640259  0.41087647757399287  0.5251725569394452  1.0000
  O   O5        1.0  0.3973966009788938  0.6651307389406398  0.0283376685921155  1.0000
  O   O6        1.0  0.10260145589882796  0.3348571573378223  0.528337188799114  1.0000
  O   O7        1.0  0.602597830357098  0.334853425518368  0.9716641775186616  1.0000
  O   O8        1.0  0.8973988687626361  0.6651320066134332  0.471665282453536  1.0000
  O   O9        1.0  0.2468968133006797  0.06168606417904952  0.0348923040383582  1.0000
  O   O10       1.0  0.25310978179807353  0.938319376496615  0.5348918043737285  1.0000
  O   O11       1.0  0.7531114460374797  0.938314369828092  0.9651057912110589  1.0000
  O   O12       1.0  0.7468956550862842  0.061689858909090796  0.4651075411630146  1.0000
  O   O13       1.0  0.9698744700130463  0.9285422099462011  0.1045831175122061  1.0000
  O   O14       1.0  0.5301305697943448  0.0714659011415151  0.60458890120087  1.0000
  O   O15       1.0  0.0301289255353083  0.0714607548974797  0.8954099765936617  1.0000
  O   O16       1.0  0.4698726481786508  0.928549621784562  0.3954141951953716  1.0000
  O   O17       1.0  0.45704073566468406  0.0165934948256208  0.8737167767218921  1.0000
  O   O18       1.0  0.042959867141050254  0.9834093577299401  0.373716211783794  1.0000
  O   O19       1.0  0.5429598197080522  0.9834094813224965  0.1262825688157818  1.0000
  O   O20       1.0  0.9570388598792051  0.016592369958253503  0.6262831337542778  1.0000
