data_image0
_chemical_formula_structural       Cd4H16C8N40O8
_chemical_formula_sum              "Cd4 H16 C8 N40 O8"
_cell_length_a       10.113435127592313
_cell_length_b       10.113655126791372
_cell_length_c       11.255185767866237
_cell_angle_alpha    116.70362051728476
_cell_angle_beta     116.70228177159682
_cell_angle_gamma    89.99682255024405

_space_group_name_H-M_alt    "P 1"
_space_group_IT_number       1

loop_
  _space_group_symop_operation_xyz
  'x, y, z'

loop_
  _atom_site_type_symbol
  _atom_site_label
  _atom_site_symmetry_multiplicity
  _atom_site_fract_x
  _atom_site_fract_y
  _atom_site_fract_z
  _atom_site_occupancy
  Cd  Cd1       1.0  0.38565991269011596  0.13572400631858983  0.7714518684953121  1.0000
  Cd  Cd2       1.0  0.13573843562809176  0.38577064546792184  0.2714708147013526  1.0000
  Cd  Cd3       1.0  0.6143371492162758  0.8642782701102621  0.2285468079464792  1.0000
  Cd  Cd4       1.0  0.8642664507604679  0.6142317333112076  0.7285372401366036  1.0000
  H   H1        1.0  0.09976226731259183  0.9100754061909629  0.5632922198037564  1.0000
  H   H2        1.0  0.4634338897979547  0.15279687619162272  0.5631092267557279  1.0000
  H   H3        1.0  0.9101518463683149  0.4635130145729536  0.06322395283081766  1.0000
  H   H4        1.0  0.1530881467043272  0.09979604750882491  0.06320061200836591  1.0000
  H   H5        1.0  0.9002477267181561  0.08992116431751641  0.436704893397497  1.0000
  H   H6        1.0  0.5365691727338487  0.8472030630095234  0.43688380119300524  1.0000
  H   H7        1.0  0.08986041374376447  0.5364881562006547  0.9367776735889211  1.0000
  H   H8        1.0  0.8469169351676131  0.9002028454855594  0.9368008004802563  1.0000
  H   H9        1.0  0.11981954347418623  0.9503270637656911  0.721915746410275  1.0000
  H   H10       1.0  0.6019848993002909  0.27126417525052915  0.7217045902746336  1.0000
  H   H11       1.0  0.9503571189882578  0.6021328689879013  0.2218158070420984  1.0000
  H   H12       1.0  0.2715176998195687  0.11983790525774651  0.22179497588775385  1.0000
  H   H13       1.0  0.8801788316987498  0.04967174149988552  0.27807762745306513  1.0000
  H   H14       1.0  0.39801243626696  0.7287346936956142  0.27829461442200193  1.0000
  H   H15       1.0  0.04964157013273513  0.397867109604917  0.778180825078323  1.0000
  H   H16       1.0  0.728484646826793  0.8801632807389626  0.7782080374768725  1.0000
  C   C1        1.0  0.11052594042455872  0.3853054426323298  0.5560081093890333  1.0000
  C   C2        1.0  0.4454922845543622  0.6707153345017078  0.5562204870126737  1.0000
  C   C3        1.0  0.3855718355999259  0.44545519366647585  0.056228779740088435  1.0000
  C   C4        1.0  0.6706665377576826  0.11065794970361513  0.05605279553005721  1.0000
  C   C5        1.0  0.8894839484693692  0.6147037850685424  0.4440020024915656  1.0000
  C   C6        1.0  0.554510564108476  0.3292962941074436  0.4438011041942715  1.0000
  C   C7        1.0  0.6144098803195419  0.5545434999423693  0.943754357140776  1.0000
  C   C8        1.0  0.3293305131780785  0.8893397752785577  0.9439458398860554  1.0000
  N   N1        1.0  0.2621246519196633  0.24660785064340732  0.5171301521803359  1.0000
  N   N2        1.0  0.25501972701124503  0.7705349441787208  0.5172463241136569  1.0000
  N   N3        1.0  0.24669189678120768  0.25503411564935163  0.01722379651857144  1.0000
  N   N4        1.0  0.7704888241881495  0.2621830637364867  0.017121695985721965  1.0000
  N   N5        1.0  0.7378690761815961  0.7533944014965431  0.48286629759985555  1.0000
  N   N6        1.0  0.7449848857164555  0.2294708420831172  0.4827612024694618  1.0000
  N   N7        1.0  0.7533009945730386  0.7449556408563256  0.9827744486707746  1.0000
  N   N8        1.0  0.22951564075832206  0.7378180340501076  0.9828732410144101  1.0000
  N   N9        1.0  0.2426594175930958  0.24666470047341  0.6271373601149223  1.0000
  N   N10       1.0  0.3844872806095483  0.8804921144533542  0.6273045074591795  1.0000
  N   N11       1.0  0.24686865834536323  0.38452108019164666  0.12732271119669752  1.0000
  N   N12       1.0  0.8804625524295205  0.2427104635961045  0.12711980817470453  1.0000
  N   N13       1.0  0.7573340051338563  0.7533318464681289  0.3728575830335502  1.0000
  N   N14       1.0  0.6155153518667619  0.11951475716625741  0.3726982198861394  1.0000
  N   N15       1.0  0.7531281360770095  0.6154709885308807  0.8726788992152948  1.0000
  N   N16       1.0  0.11954409922235246  0.7572906144946502  0.872873326739587  1.0000
  N   N17       1.0  0.14876429752219172  0.3321999426556347  0.6542963156102247  1.0000
  N   N18       1.0  0.505539634061492  0.8221075262445371  0.6544968532749494  1.0000
  N   N19       1.0  0.3324895306564741  0.5055510629746253  0.154539657616553  1.0000
  N   N20       1.0  0.8220918472144376  0.14882232047209962  0.15428057451849497  1.0000
  N   N21       1.0  0.8512310761395909  0.6677954895648669  0.34570073779948274  1.0000
  N   N22       1.0  0.4944611061130928  0.17790051882264638  0.3455091417622497  1.0000
  N   N23       1.0  0.6675005863834543  0.4944409473823514  0.8454566031467226  1.0000
  N   N24       1.0  0.17791399083013468  0.851179906536672  0.8457135825564779  1.0000
  N   N25       1.0  0.17949305712723881  0.33307782254468793  0.47079741389168117  1.0000
  N   N26       1.0  0.29130517055401134  0.6377357042789812  0.47091167571604603  1.0000
  N   N27       1.0  0.3331813855057035  0.291293776946425  0.9708983168930772  1.0000
  N   N28       1.0  0.6376825914005622  0.1795563787820599  0.9707916977327219  1.0000
  N   N29       1.0  0.8205001017110335  0.6669221416673142  0.5291978973274711  1.0000
  N   N30       1.0  0.7087036091304952  0.36226897692924365  0.5290988480190322  1.0000
  N   N31       1.0  0.6668017804909142  0.7087015825277164  0.02909206596662993  1.0000
  N   N32       1.0  0.36232442306029367  0.8204459215747096  0.029209177066263727  1.0000
  N   N33       1.0  0.01356444061323001  0.48116502857394755  0.5504861145385433  1.0000
  N   N34       1.0  0.5369346678449675  0.5693133774135364  0.5505542560305302  1.0000
  N   N35       1.0  0.4812920722387802  0.5369032308329765  0.0505915907274641  1.0000
  N   N36       1.0  0.569333457189437  0.013604877231173904  0.05049363951766853  1.0000
  N   N37       1.0  0.9864423466507971  0.5188316448864472  0.4495204242328797  1.0000
  N   N38       1.0  0.4630783472016376  0.430690267255372  0.4494655391351615  1.0000
  N   N39       1.0  0.5186888105290209  0.4630965921183758  0.9493907756630408  1.0000
  N   N40       1.0  0.43065889541682634  0.9863871623687434  0.9495053007873653  1.0000
  O   O1        1.0  0.11842605794878842  0.9969797339589591  0.6607901827856894  1.0000
  O   O2        1.0  0.5423138341415666  0.16345801656922285  0.6606224980202599  1.0000
  O   O3        1.0  0.997030234340933  0.5424283488475867  0.16069279149870408  1.0000
  O   O4        1.0  0.16371685978504757  0.11843773015418438  0.1606983860515143  1.0000
  O   O5        1.0  0.8815701207465524  0.003019081214702602  0.33920409683798175  1.0000
  O   O6        1.0  0.45768515915528973  0.8365431255630756  0.33937649603172587  1.0000
  O   O7        1.0  0.002975994630737907  0.4575705881315388  0.8393126497373659  1.0000
  O   O8        1.0  0.8362854368019371  0.8815588652448273  0.8393010009853513  1.0000
