data_image0
_chemical_formula_structural       Hg4H16C24Br4N4O8
_chemical_formula_sum              "Hg4 H16 C24 Br4 N4 O8"
_cell_length_a       7.409513768722956
_cell_length_b       8.017300114547409
_cell_length_c       14.840657728717538
_cell_angle_alpha    101.61345894412122
_cell_angle_beta     89.97531254200096
_cell_angle_gamma    117.52098997086335

_space_group_name_H-M_alt    "P 1"
_space_group_IT_number       1

loop_
  _space_group_symop_operation_xyz
  'x, y, z'

loop_
  _atom_site_type_symbol
  _atom_site_label
  _atom_site_symmetry_multiplicity
  _atom_site_fract_x
  _atom_site_fract_y
  _atom_site_fract_z
  _atom_site_occupancy
  Hg  Hg1       1.0  0.5291350758745209  0.4769119143734172  0.6725597961206518  1.0000
  Hg  Hg2       1.0  0.948138673793224  0.4773215543217262  0.17282523598423438  1.0000
  Hg  Hg3       1.0  0.4708903533538873  0.5231070621458612  0.3274371022922579  1.0000
  Hg  Hg4       1.0  0.051842309876711595  0.5226598199643604  0.8271769631129828  1.0000
  H   H1        1.0  0.15071204510650196  0.07709216524664703  0.6842307434030559  1.0000
  H   H2        1.0  0.9268915758547962  0.07725880375439688  0.18444533923457834  1.0000
  H   H3        1.0  0.8493155688570582  0.9229311766860491  0.31576124452201526  1.0000
  H   H4        1.0  0.07307409992355217  0.9227297506101806  0.8155643898994214  1.0000
  H   H5        1.0  0.5063334391578778  0.2537135081102305  0.47149181158675185  1.0000
  H   H6        1.0  0.7476824108884017  0.2540633636721381  0.9719677300839463  1.0000
  H   H7        1.0  0.49367250858553274  0.7463069843660504  0.528493800699593  1.0000
  H   H8        1.0  0.25228136827951175  0.7459078946227746  0.028034705381251995  1.0000
  H   H9        1.0  0.3093736021571587  0.9260669544245345  0.36471239425149793  1.0000
  H   H10       1.0  0.6175459961685162  0.9266593175102713  0.8649826568423791  1.0000
  H   H11       1.0  0.6906313194173775  0.07394339194480183  0.6352781661172954  1.0000
  H   H12       1.0  0.38244134390335927  0.07331047852085248  0.1350223104572095  1.0000
  H   H13       1.0  0.02083071864083056  0.6633568607011355  0.425760903076565  1.0000
  H   H14       1.0  0.6436846365793444  0.66386729553561  0.9258598261370421  1.0000
  H   H15       1.0  0.9791929173110389  0.33666932821753903  0.5742381368377137  1.0000
  H   H16       1.0  0.3563028756044346  0.3361082478953747  0.07415049037832941  1.0000
  C   C1        1.0  0.8856471890354953  0.7033233444387791  0.5947243800787518  1.0000
  C   C2        1.0  0.8177337311355756  0.703306744465408  0.09482011643869728  1.0000
  C   C3        1.0  0.11436888514843703  0.29669851677608966  0.40527351061253103  1.0000
  C   C4        1.0  0.18226669122049804  0.296691920590071  0.9051900476595662  1.0000
  C   C5        1.0  0.06629354996837118  0.8504533995599458  0.5591454172330614  1.0000
  C   C6        1.0  0.7844887810837304  0.8506239537815857  0.059347896457715904  1.0000
  C   C7        1.0  0.9337291023259553  0.1495627179635619  0.4408464500874416  1.0000
  C   C8        1.0  0.21550365233215976  0.14937762493563156  0.9406585461657855  1.0000
  C   C9        1.0  0.18296420990620282  0.036483941757119  0.6137195801694303  1.0000
  C   C10       1.0  0.853853755374935  0.03666745966011581  0.11396839755016688  1.0000
  C   C11       1.0  0.8170598910057549  0.9635350722064828  0.3862712580621873  1.0000
  C   C12       1.0  0.1461153296860118  0.9633225178437144  0.886044856951166  1.0000
  C   C13       1.0  0.3796286793178254  0.13519711912807253  0.4932019214728526  1.0000
  C   C14       1.0  0.75593924978061  0.1354766360174224  0.9935576855578958  1.0000
  C   C15       1.0  0.6203797647552776  0.8648175718129778  0.5067870951057927  1.0000
  C   C16       1.0  0.2440338726230848  0.8644917168286311  0.006447124483436507  1.0000
  C   C17       1.0  0.27010763050522957  0.952965556628875  0.4350633723658675  1.0000
  C   C18       1.0  0.6835556605468867  0.9533746980364697  0.9353249094757103  1.0000
  C   C19       1.0  0.7298970953400001  0.04703900083405439  0.5649285724961572  1.0000
  C   C20       1.0  0.3164249340261803  0.0465951025874674  0.0646793852370777  1.0000
  C   C21       1.0  0.11195068347976199  0.8082906044078656  0.4685063303122448  1.0000
  C   C22       1.0  0.6970570220291279  0.8086685332630524  0.9687046203881167  1.0000
  C   C23       1.0  0.8880630503893059  0.19172117304830752  0.5314864080547963  1.0000
  C   C24       1.0  0.30293493741481825  0.19131860016739924  0.0313009065576182  1.0000
  Br  Br1       1.0  0.6472637454432683  0.3212660699936761  0.7962927276638183  1.0000
  Br  Br2       1.0  0.6741915180209546  0.32170230606018185  0.2964569319083025  1.0000
  Br  Br3       1.0  0.352726355178092  0.6787038337775897  0.20369473167869498  1.0000
  Br  Br4       1.0  0.32581689799878427  0.6782934536348647  0.7035556069229115  1.0000
  N   N1        1.0  0.33591691044047417  0.17404620333570617  0.5805551145029213  1.0000
  N   N2        1.0  0.8384233344102798  0.1742764840907753  0.0808880741031786  1.0000
  N   N3        1.0  0.6641091083375911  0.8259901440534347  0.4194369570593821  1.0000
  N   N4        1.0  0.16154360370336462  0.825709194410102  0.9191193169515657  1.0000
  O   O1        1.0  0.8582434250668669  0.7471332245163539  0.6800624844189683  1.0000
  O   O2        1.0  0.888489256432045  0.7468555257498435  0.18020032430255378  1.0000
  O   O3        1.0  0.14179250596360046  0.25287706586053815  0.3199368261646781  1.0000
  O   O4        1.0  0.11152431934797137  0.25315325141144734  0.8198102772690845  1.0000
  O   O5        1.0  0.7656720487351194  0.548492431218726  0.5384096888964436  1.0000
  O   O6        1.0  0.7831280814643333  0.5486556446032722  0.0384249408186719  1.0000
  O   O7        1.0  0.23433570129668624  0.45154246909999074  0.46158289924896667  1.0000
  O   O8        1.0  0.21684889112952274  0.4513285185596415  0.961593737460376  1.0000
