data_image0
_chemical_formula_structural       Zn2H28C36N8O12
_chemical_formula_sum              "Zn2 H28 C36 N8 O12"
_cell_length_a       8.052713567495898
_cell_length_b       8.641686847810272
_cell_length_c       12.965811605496896
_cell_angle_alpha    91.88557583701194
_cell_angle_beta     93.28507873268846
_cell_angle_gamma    96.3461611504569

_space_group_name_H-M_alt    "P 1"
_space_group_IT_number       1

loop_
  _space_group_symop_operation_xyz
  'x, y, z'

loop_
  _atom_site_type_symbol
  _atom_site_label
  _atom_site_symmetry_multiplicity
  _atom_site_fract_x
  _atom_site_fract_y
  _atom_site_fract_z
  _atom_site_occupancy
  Zn  Zn1       1.0  0.8635061011467473  0.6082683689354766  0.24199646573882924  1.0000
  Zn  Zn2       1.0  0.13649410492237735  0.39172956639825435  0.7580025495737958  1.0000
  H   H1        1.0  0.4163861558765518  0.30335046601639704  0.2762325344470042  1.0000
  H   H2        1.0  0.5836159936000911  0.6966533125515115  0.7237681945258532  1.0000
  H   H3        1.0  0.6291339314352413  0.23185216569788747  0.4075625088103649  1.0000
  H   H4        1.0  0.3708666924650998  0.7681492717888503  0.5924373564565643  1.0000
  H   H5        1.0  0.09794555039454882  0.43402263316556144  0.5149092820664621  1.0000
  H   H6        1.0  0.9020575863811118  0.5659788322234364  0.4850929778904743  1.0000
  H   H7        1.0  0.619772551467975  0.21359708212172285  0.8266697326091832  1.0000
  H   H8        1.0  0.38022779925850614  0.7864020249612766  0.1733300804645524  1.0000
  H   H9        1.0  0.6309521513566169  0.419081615508162  0.8337246626547029  1.0000
  H   H10       1.0  0.3690494598427351  0.580917508799665  0.16627673359629822  1.0000
  H   H11       1.0  0.7466667258331514  0.9486202365492745  0.3109531981274928  1.0000
  H   H12       1.0  0.25332750753845806  0.051379988895817505  0.6890433551436532  1.0000
  H   H13       1.0  0.9196737198393735  0.9338130676850298  0.39917760033646493  1.0000
  H   H14       1.0  0.08032011184187841  0.06618366870183932  0.6008196463094181  1.0000
  H   H15       1.0  0.06346958819116112  0.5991969796308612  0.03984225601520561  1.0000
  H   H16       1.0  0.9365307625353197  0.4008021274521313  0.9601575570585371  1.0000
  H   H17       1.0  0.36208631136301517  0.9711215286279116  0.8979023336993495  1.0000
  H   H18       1.0  0.6379152998363438  0.028877595679908604  0.10209906255165181  1.0000
  H   H19       1.0  0.30045517628293794  0.16435986824869536  0.03191660104975821  1.0000
  H   H20       1.0  0.6995490601673852  0.8356404295210781  0.9680849009942849  1.0000
  H   H21       1.0  0.6904242452565085  0.24757693348755075  0.6328547711117238  1.0000
  H   H22       1.0  0.30957901196522647  0.7524256840085288  0.3671459716127644  1.0000
  H   H23       1.0  0.09709579958983741  0.18428851235736943  0.20782862302400673  1.0000
  H   H24       1.0  0.9029033068046247  0.8157105905955859  0.7921711502015116  1.0000
  H   H25       1.0  0.3678574480304918  0.3917435783668354  0.8984480460523019  1.0000
  H   H26       1.0  0.6321415217770437  0.6082543593842474  0.10155170107662312  1.0000
  H   H27       1.0  0.8287953956860223  0.20688177801667962  0.30279364825126015  1.0000
  H   H28       1.0  0.1712024502355618  0.7931173077114481  0.6972045417969995  1.0000
  C   C1        1.0  0.12957240456503882  0.42986220120348423  0.30614340991775896  1.0000
  C   C2        1.0  0.8704272481771371  0.5701415625569484  0.6938564676941328  1.0000
  C   C3        1.0  0.24594934738399132  0.3739192607179476  0.3875300512733589  1.0000
  C   C4        1.0  0.7540528343743631  0.626084544039536  0.6124737643575743  1.0000
  C   C5        1.0  0.39291200780606067  0.31309313774701053  0.3579831481330232  1.0000
  C   C6        1.0  0.6070926384050496  0.6869106556283741  0.6420184322007999  1.0000
  C   C7        1.0  0.5128016196902081  0.2721421257397267  0.4307206640374944  1.0000
  C   C8        1.0  0.48720039319950104  0.727860487626309  0.5692800388387695  1.0000
  C   C9        1.0  0.47875241167090377  0.2912573970935668  0.5343544730039653  1.0000
  C   C10       1.0  0.5212494565614493  0.7087440445232078  0.465645432111188  1.0000
  C   C11       1.0  0.3285408271159795  0.34499740848900734  0.5646911867383723  1.0000
  C   C12       1.0  0.671460920670306  0.6550028810206856  0.43531023560922233  1.0000
  C   C13       1.0  0.21104998141905182  0.3884521546643215  0.4914924009499373  1.0000
  C   C14       1.0  0.7889506828334235  0.6115493155593869  0.5085113226395849  1.0000
  C   C15       1.0  0.4783913038342719  0.31028011059373745  0.7067828382023934  1.0000
  C   C16       1.0  0.5216105643980811  0.6897213310230442  0.29321706691276017  1.0000
  C   C17       1.0  0.5443197887346969  0.3113402455264521  0.8175166876549798  1.0000
  C   C18       1.0  0.45568224029587157  0.6886623809343747  0.18248555855032586  1.0000
  C   C19       1.0  0.24279770987870825  0.6681497632842693  0.8724821164647738  1.0000
  C   C20       1.0  0.7572004172871731  0.33185165939499234  0.12751689744119693  1.0000
  C   C21       1.0  0.8781969950369233  0.9956494086771318  0.3309539743998117  1.0000
  C   C22       1.0  0.12179807290591071  0.004347325292393098  0.6690425404297783  1.0000
  C   C23       1.0  0.9783352654715146  0.9561822552619644  0.2411042535648349  1.0000
  C   C24       1.0  0.021661472704991504  0.0438179915379919  0.7588939227317938  1.0000
  C   C25       1.0  0.14256145586383445  0.9885536789657582  0.11032483062003001  1.0000
  C   C26       1.0  0.8574366955133287  0.011447763355683102  0.8896764982794921  1.0000
  C   C27       1.0  0.0770337619754642  0.8298974271159666  0.1132211313697837  1.0000
  C   C28       1.0  0.9229652078320713  0.17010051063511614  0.8867786157591412  1.0000
  C   C29       1.0  0.1135337444948092  0.7211527649572602  0.038483711519717204  1.0000
  C   C30       1.0  0.8864679710097649  0.2788474983628647  0.9615146241698017  1.0000
  C   C31       1.0  0.215284619536817  0.7756917617943203  0.9604126148405572  1.0000
  C   C32       1.0  0.7847157069783749  0.2243073256464997  0.039584883239626806  1.0000
  C   C33       1.0  0.2821595833633452  0.9341415761315447  0.9594737097803476  1.0000
  C   C34       1.0  0.7178417385212938  0.06585520467775301  0.040526090948432604  1.0000
  C   C35       1.0  0.2483935203696178  0.042955070052322214  0.0344263239362306  1.0000
  C   C36       1.0  0.7516067099107886  0.9570428849235882  0.9655750063699531  1.0000
  N   N1        1.0  0.3316714656283112  0.3527448302299021  0.6726263305952644  1.0000
  N   N2        1.0  0.668327769282655  0.6472554313775306  0.3273726970623302  1.0000
  N   N3        1.0  0.5689043480820645  0.26964051406913814  0.6262230707602683  1.0000
  N   N4        1.0  0.4310973754929392  0.7303597557983751  0.3737760365937747  1.0000
  N   N5        1.0  0.976383877013646  0.8134068565165652  0.19706295571505453  1.0000
  N   N6        1.0  0.0236139769783676  0.1865922357589582  0.8029360059977152  1.0000
  N   N7        1.0  0.07795457019742  0.0634496629689707  0.19212515842992423  1.0000
  N   N8        1.0  0.92204342845195  0.9365506010558139  0.8078746010439632  1.0000
  O   O1        1.0  0.4180381865277952  0.2932372036630326  0.8885598339578424  1.0000
  O   O2        1.0  0.5819623007856195  0.7067630686218395  0.11144000521249352  1.0000
  O   O3        1.0  0.1278533122831007  0.37876131529015566  0.21393181620747737  1.0000
  O   O4        1.0  0.8721509160967928  0.6212389759322222  0.7860689141720485  1.0000
  O   O5        1.0  0.038088555973949716  0.5347912941266062  0.33700570879838665  1.0000
  O   O6        1.0  0.9619108397352251  0.46521015232487883  0.6629956599493597  1.0000
  O   O7        1.0  0.289731472748791  0.7206238946647973  0.7883240094354067  1.0000
  O   O8        1.0  0.7102650003242773  0.2793740282788165  0.2116748863325526  1.0000
  O   O9        1.0  0.21040739066602757  0.5191144688568913  0.8869066871088195  1.0000
  O   O10       1.0  0.7895932090230319  0.48088694898765993  0.11309086316455112  1.0000
  O   O11       1.0  0.8935179565167318  0.15617053863521593  0.3576758369936215  1.0000
  O   O12       1.0  0.10648003406221562  0.843829718842173  0.6423231508157486  1.0000
