data_image0
_chemical_formula_structural       Cd4H24C24N8O24
_chemical_formula_sum              "Cd4 H24 C24 N8 O24"
_cell_length_a       7.811627337814577
_cell_length_b       7.861736524805367
_cell_length_c       14.472289460007355
_cell_angle_alpha    89.99989860425704
_cell_angle_beta     89.9999776454008
_cell_angle_gamma    107.4410345356494

_space_group_name_H-M_alt    "P 1"
_space_group_IT_number       1

loop_
  _space_group_symop_operation_xyz
  'x, y, z'

loop_
  _atom_site_type_symbol
  _atom_site_label
  _atom_site_symmetry_multiplicity
  _atom_site_fract_x
  _atom_site_fract_y
  _atom_site_fract_z
  _atom_site_occupancy
  Cd  Cd1       1.0  0.2813612221736291  0.9478480780612202  0.6593789470913265  1.0000
  Cd  Cd2       1.0  0.7186365124254974  0.5521493200628738  0.15937872551270976  1.0000
  Cd  Cd3       1.0  0.7186375462788915  0.052151080880321395  0.3406218851203136  1.0000
  Cd  Cd4       1.0  0.28136225602830206  0.44784983888131064  0.8406207247475734  1.0000
  H   H1        1.0  0.651344263560567  0.4130197726566961  0.6278886381143565  1.0000
  H   H2        1.0  0.3486500046691248  0.0869793190464989  0.1278884628582517  1.0000
  H   H3        1.0  0.3486523568808478  0.5869807324327424  0.37211012116983977  1.0000
  H   H4        1.0  0.6513483023132591  0.9130225128622625  0.8721130603278342  1.0000
  H   H5        1.0  0.9087576375229103  0.6326824070351832  0.7124998586318372  1.0000
  H   H6        1.0  0.09123999834631753  0.8673147881480219  0.21250016106257164  1.0000
  H   H7        1.0  0.09124113093024985  0.36731675190767976  0.28750028260412824  1.0000
  H   H8        1.0  0.9087574919206813  0.13268437723329637  0.7875006711492034  1.0000
  H   H9        1.0  0.4008629793694069  0.6654892700335323  0.5711007081083892  1.0000
  H   H10       1.0  0.599138292388467  0.8345111189917205  0.07110093256383723  1.0000
  H   H11       1.0  0.599138345454804  0.3345098760297773  0.4288994331273059  1.0000
  H   H12       1.0  0.4008612927807249  0.16549070647990757  0.9288992086707637  1.0000
  H   H13       1.0  0.5610171695786619  0.849778007041827  0.5710397966614595  1.0000
  H   H14       1.0  0.4389853804790321  0.6502223757785828  0.07103885034021573  1.0000
  H   H15       1.0  0.4389832854167536  0.1502224787229949  0.42896172652503856  1.0000
  H   H16       1.0  0.5610150745176696  0.34977810998888254  0.9289612908949325  1.0000
  H   H17       1.0  0.6582698711405539  0.10730421070866916  0.7025238306274134  1.0000
  H   H18       1.0  0.3417310576596434  0.3926958969288491  0.20252336378503344  1.0000
  H   H19       1.0  0.3417305838561475  0.892696275058796  0.2974763106077347  1.0000
  H   H20       1.0  0.6582685275095483  0.6073059285427788  0.7974767774495676  1.0000
  H   H21       1.0  0.5384223992009538  0.17494637285431477  0.7808431401424231  1.0000
  H   H22       1.0  0.4615771058510632  0.3250534420165963  0.2808427123254589  1.0000
  H   H23       1.0  0.4615767776102189  0.825054119352927  0.21915700109286015  1.0000
  H   H24       1.0  0.5384229407882657  0.6749457104878046  0.7191567379346966  1.0000
  C   C1        1.0  0.009325214627907022  0.7653318001040503  0.4985862600591774  1.0000
  C   C2        1.0  0.9906752626136209  0.734666955780085  0.9985872241635364  1.0000
  C   C3        1.0  0.9906752403694411  0.23466868566473656  0.5014131902002887  1.0000
  C   C4        1.0  0.00932734039610489  0.2653321838434479  0.0014129170720238002  1.0000
  C   C5        1.0  0.8622445411437594  0.6492549100711854  0.4524193749700913  1.0000
  C   C6        1.0  0.1377534655321  0.8507440350668317  0.9524197205789591  1.0000
  C   C7        1.0  0.13775509713755693  0.3507429091688363  0.5475800752907463  1.0000
  C   C8        1.0  0.8622461196364524  0.14925779040347456  0.047581111631316717  1.0000
  C   C9        1.0  0.753545178020353  0.5152646210338999  0.5906947393817816  1.0000
  C   C10       1.0  0.2464509445771483  0.9847357188921038  0.09069627775889441  1.0000
  C   C11       1.0  0.24645185077972084  0.48473721732123914  0.4093033289260576  1.0000
  C   C12       1.0  0.753548640590118  0.015266106575566603  0.9093059364027313  1.0000
  C   C13       1.0  0.8949757159314656  0.6359140282701147  0.6378433916009599  1.0000
  C   C14       1.0  0.10502246704943724  0.8640847853878383  0.1378450761109775  1.0000
  C   C15       1.0  0.10502346088163955  0.3640864639410849  0.36215467670729135  1.0000
  C   C16       1.0  0.8949783963039905  0.13591703364136976  0.8621564470748382  1.0000
  C   C17       1.0  0.162059746089156  0.8947255504031588  0.4469357497661407  1.0000
  C   C18       1.0  0.8379382707777268  0.6052734156826814  0.946936870821304  1.0000
  C   C19       1.0  0.8379419870930676  0.1052749289245298  0.5530643914688725  1.0000
  C   C20       1.0  0.16206438534091214  0.3947217177026515  0.05306603431887421  1.0000
  C   C21       1.0  0.8235733894566196  0.6584286421104366  0.35070982808615264  1.0000
  C   C22       1.0  0.17642306660008697  0.8415733710021555  0.8507094831809711  1.0000
  C   C23       1.0  0.17643146779101923  0.3415611389072735  0.6492882402266249  1.0000
  C   C24       1.0  0.8235717079627206  0.15843782596012088  0.1492899670739831  1.0000
  N   N1        1.0  0.021929757948534186  0.7569437228918757  0.5909289431039966  1.0000
  N   N2        1.0  0.9780685122266418  0.7430552699953095  0.09093055554575362  1.0000
  N   N3        1.0  0.9780677323197507  0.24305544249207858  0.4090705071564288  1.0000
  N   N4        1.0  0.021931942768773596  0.25694521576951956  0.9090709676407444  1.0000
  N   N5        1.0  0.7382162281310725  0.5210438516009289  0.4987811537760437  1.0000
  N   N6        1.0  0.261782970562777  0.9789549099785688  0.9987820407283439  1.0000
  N   N7        1.0  0.2617838185088956  0.4789553009047934  0.5012176055084296  1.0000
  N   N8        1.0  0.7382174844332852  0.021045575787574898  0.0012187914824793003  1.0000
  O   O1        1.0  0.284072097720518  0.004313725677725699  0.4946473429095804  1.0000
  O   O2        1.0  0.7159282881451998  0.49568526594924106  0.9946467340281587  1.0000
  O   O3        1.0  0.7159275405595051  0.9956840935596599  0.5053534893026139  1.0000
  O   O4        1.0  0.28407809631155345  0.504317860591854  0.005351334278053302  1.0000
  O   O5        1.0  0.4658804006504765  0.7686076645113217  0.6110860321239784  1.0000
  O   O6        1.0  0.5341207967920453  0.7313925717575456  0.1110856784670347  1.0000
  O   O7        1.0  0.5341209241737273  0.231391481551988  0.3889141091117168  1.0000
  O   O8        1.0  0.4658783800197738  0.2686079204510178  0.8889137717925735  1.0000
  O   O9        1.0  0.15860796629711166  0.8817210492825255  0.36021692702042435  1.0000
  O   O10       1.0  0.841391898287746  0.6182795749245711  0.8602173438883514  1.0000
  O   O11       1.0  0.8413924887008689  0.11827943648758317  0.639781832263367  1.0000
  O   O12       1.0  0.1586123912687327  0.381720891530172  0.13977934246800325  1.0000
  O   O13       1.0  0.5421763348848215  0.08074729968647176  0.7364300323083128  1.0000
  O   O14       1.0  0.45782493925544526  0.4192540116810263  0.2364302059700378  1.0000
  O   O15       1.0  0.45782452846989935  0.9192545193453796  0.263570108926146  1.0000
  O   O16       1.0  0.5421763855687586  0.5807451343822831  0.7635699352656574  1.0000
  O   O17       1.0  0.8672033810405537  0.5503336210324574  0.2976996032503081  1.0000
  O   O18       1.0  0.1327965997371976  0.9496672420109957  0.7977005460702314  1.0000
  O   O19       1.0  0.13279742920140328  0.4496722042296779  0.7023019199335963  1.0000
  O   O20       1.0  0.8672035000103901  0.050327904253883594  0.20230235907021676  1.0000
  O   O21       1.0  0.7326370617548789  0.7595247058306355  0.3268911668794062  1.0000
  O   O22       1.0  0.2673607698682617  0.7404733856057959  0.8268902083251108  1.0000
  O   O23       1.0  0.2673590972170458  0.24047847222734475  0.6731075924035608  1.0000
  O   O24       1.0  0.7326418862548679  0.2595217477887742  0.17310785998533623  1.0000
