data_image0
_chemical_formula_structural       Hg4H32C40S8N8Cl8
_chemical_formula_sum              "Hg4 H32 C40 S8 N8 Cl8"
_cell_length_a       8.940295459417776
_cell_length_b       11.527393768771084
_cell_length_c       13.123574174000012
_cell_angle_alpha    90.00000231771436
_cell_angle_beta     89.99999523839894
_cell_angle_gamma    103.28051777438905

_space_group_name_H-M_alt    "P 1"
_space_group_IT_number       1

loop_
  _space_group_symop_operation_xyz
  'x, y, z'

loop_
  _atom_site_type_symbol
  _atom_site_label
  _atom_site_symmetry_multiplicity
  _atom_site_fract_x
  _atom_site_fract_y
  _atom_site_fract_z
  _atom_site_occupancy
  Hg  Hg1       1.0  0.9746280070056769  0.8701233854402021  0.12398221853919719  1.0000
  Hg  Hg2       1.0  0.5253710733935789  0.629876879067453  0.6239816869376681  1.0000
  Hg  Hg3       1.0  0.025370338274491592  0.1298759080429335  0.8760182148793447  1.0000
  Hg  Hg4       1.0  0.47462753966259186  0.3701233057463398  0.37601798449334467  1.0000
  H   H1        1.0  0.5149398436411587  0.0041396174825366  0.35948132329523463  1.0000
  H   H2        1.0  0.9850614383311009  0.49586149804316904  0.8594815407005214  1.0000
  H   H3        1.0  0.48506073690948165  0.9958596699930311  0.6405183481357141  1.0000
  H   H4        1.0  0.014938560136194205  0.5041395750975255  0.1405188927180063  1.0000
  H   H5        1.0  0.6959097822578001  0.12867944964276032  0.481640876834426  1.0000
  H   H6        1.0  0.8040901002751609  0.3713207807103701  0.9816411000408536  1.0000
  H   H7        1.0  0.3040896806576184  0.8713198408365842  0.5183587945965442  1.0000
  H   H8        1.0  0.1959107480513893  0.6286793980958764  0.018359333377638596  1.0000
  H   H9        1.0  0.9801306157509442  0.1339752697720016  0.46820245666056337  1.0000
  H   H10       1.0  0.5198692683252161  0.3660249602341282  0.9682026957061323  1.0000
  H   H11       1.0  0.019867997305219383  0.8660249150417914  0.5317972147704495  1.0000
  H   H12       1.0  0.4801315800013767  0.6339752185721041  0.0317969757248235  1.0000
  H   H13       1.0  0.0677836392702318  0.016986228577756904  0.3295626573612438  1.0000
  H   H14       1.0  0.4322153616367713  0.48301298100819406  0.8295621153045261  1.0000
  H   H15       1.0  0.9322149737858892  0.9830139562360499  0.6704377760573123  1.0000
  H   H16       1.0  0.5677832514193496  0.5169872038056127  0.170438318114023  1.0000
  H   H17       1.0  0.8982228674373612  0.7257630560967739  0.3328353829620809  1.0000
  H   H18       1.0  0.6017781564727827  0.7742363164655118  0.8328356141437893  1.0000
  H   H19       1.0  0.10177798088923139  0.27423712270945805  0.667164288468868  1.0000
  H   H20       1.0  0.3982218419945482  0.22576475667517576  0.1671640572872022  1.0000
  H   H21       1.0  0.9807310550802552  0.5975927410022381  0.4641136397002228  1.0000
  H   H22       1.0  0.5192691038953683  0.9024075292842753  0.9641138800659944  1.0000
  H   H23       1.0  0.019269793246337482  0.4024074378040012  0.5358860317307261  1.0000
  H   H24       1.0  0.4807306267959675  0.09759265252575489  0.0358865533525332  1.0000
  H   H25       1.0  0.26098831591086485  0.5889786410168016  0.4705707422534502  1.0000
  H   H26       1.0  0.23901094323348807  0.9110206125961114  0.9705702085455954  1.0000
  H   H27       1.0  0.739012264639726  0.4110206464587734  0.5294296911650349  1.0000
  H   H28       1.0  0.7609874020466306  0.0889786808870312  0.0294309868604969  1.0000
  H   H29       1.0  0.44618521320393256  0.7170815554005543  0.35161915040008296  1.0000
  H   H30       1.0  0.05381490945941889  0.7829168008064258  0.8516186226056703  1.0000
  H   H31       1.0  0.5538128643003191  0.2829168467518954  0.6483805210309156  1.0000
  H   H32       1.0  0.9461867887263935  0.2170824836653651  0.1483818108127863  1.0000
  C   C1        1.0  0.6975305314010711  0.9429832548669667  0.2825114493604275  1.0000
  C   C2        1.0  0.8024721514750369  0.5570178960534805  0.7825131855206635  1.0000
  C   C3        1.0  0.3024705847015666  0.057017815269922806  0.7174866980954562  1.0000
  C   C4        1.0  0.1975278469923012  0.4429831770872071  0.21748648591032796  1.0000
  C   C5        1.0  0.6374617334030219  0.007194764129494001  0.3559525555974759  1.0000
  C   C6        1.0  0.8625381635632507  0.49280546297821115  0.8559535417909669  1.0000
  C   C7        1.0  0.3625371474291867  0.9928063120149491  0.6440455918584647  1.0000
  C   C8        1.0  0.13746295253930188  0.5071956071586997  0.144046129639996  1.0000
  C   C9        1.0  0.7395639939554499  0.07710152225072871  0.4238067823983371  1.0000
  C   C10       1.0  0.7604381304892909  0.42289870060149337  0.9238070098898348  1.0000
  C   C11       1.0  0.2604368543711004  0.9228986565555176  0.5761936510201551  1.0000
  C   C12       1.0  0.23956298561326153  0.5771023695354175  0.0761926615411284  1.0000
  C   C13       1.0  0.8964392828187042  0.080550507394193  0.41671343602718736  1.0000
  C   C14       1.0  0.6035594895349945  0.4194497242861956  0.9167129102550292  1.0000
  C   C15       1.0  0.10355821260224467  0.9194496804233765  0.583286235403861  1.0000
  C   C16       1.0  0.39644024115638377  0.5805504575238204  0.0832867611759482  1.0000
  C   C17       1.0  0.9461242246881411  0.014688918123333398  0.3403287545088459  1.0000
  C   C18       1.0  0.5538767917075303  0.485311305577163  0.8403289958543709  1.0000
  C   C19       1.0  0.053876623638451894  0.985311260682906  0.65967091692211  1.0000
  C   C20       1.0  0.4461229389838053  0.5146888762328673  0.1596714375641497  1.0000
  C   C21       1.0  0.01880403577803245  0.722900077267788  0.3406183484382908  1.0000
  C   C22       1.0  0.48119662370046257  0.7771000613164961  0.8406185583269306  1.0000
  C   C23       1.0  0.9811970803245198  0.2771009928691228  0.6593813229926653  1.0000
  C   C24       1.0  0.518803642542828  0.2229019031548631  0.1593811131040681  1.0000
  C   C25       1.0  0.06555985761433904  0.6503452800130917  0.4129058177884559  1.0000
  C   C26       1.0  0.4344405257871457  0.8496539691070594  0.9129052708912369  1.0000
  C   C27       1.0  0.9344398730769541  0.34965490179694575  0.587095377617608  1.0000
  C   C28       1.0  0.5655603225394046  0.1503462096991868  0.0870951625272554  1.0000
  C   C29       1.0  0.22075758738389334  0.6470486289230948  0.41655801963351274  1.0000
  C   C30       1.0  0.2792439132334081  0.8529506172875827  0.9165574816039666  1.0000
  C   C31       1.0  0.7792443785779141  0.3529515468793605  0.5834416517974076  1.0000
  C   C32       1.0  0.7207558174579275  0.14704956452244033  0.0834429518145541  1.0000
  C   C33       1.0  0.32461262201366037  0.7180835784885887  0.35027576981245545  1.0000
  C   C34       1.0  0.17538750080391455  0.7819147776837171  0.8502759971150269  1.0000
  C   C35       1.0  0.6753840700794668  0.2819139353369593  0.6497231396310283  1.0000
  C   C36       1.0  0.8246158505690246  0.2180862864456473  0.1497244363034085  1.0000
  C   C37       1.0  0.26683053223084136  0.7890792685306355  0.2811436911484719  1.0000
  C   C38       1.0  0.2331707161607355  0.7109190828528044  0.7811431506951649  1.0000
  C   C39       1.0  0.7331711659549639  0.2109200159411628  0.7188567422699847  1.0000
  C   C40       1.0  0.7668292823065597  0.28908199028789744  0.2188572827233628  1.0000
  S   S1        1.0  0.3792345842440311  0.8886564776586282  0.19202391303156924  1.0000
  S   S2        1.0  0.12076582452230157  0.6113427657580743  0.6920233753957631  1.0000
  S   S3        1.0  0.6207659963066092  0.11134280981693931  0.8079757583993724  1.0000
  S   S4        1.0  0.8792339061690341  0.3886574160519487  0.3079770580227574  1.0000
  S   S5        1.0  0.5868937757991973  0.8458633525833221  0.19095255193926866  1.0000
  S   S6        1.0  0.9131061467687258  0.6541360193191608  0.6909535233073215  1.0000
  S   S7        1.0  0.4131054193403116  0.15413504656533664  0.8090463575041582  1.0000
  S   S8        1.0  0.08689358392265228  0.3458641624908553  0.3090461481236629  1.0000
  N   N1        1.0  0.8483352060334042  0.9471907413962198  0.27429950546520837  1.0000
  N   N2        1.0  0.6516663601505498  0.5528104123159566  0.7743004879926118  1.0000
  N   N3        1.0  0.1516645246580239  0.05280944041378889  0.7256994039782325  1.0000
  N   N4        1.0  0.34833363831674546  0.4471906608247453  0.2256999454259159  1.0000
  N   N5        1.0  0.11756787481354544  0.7910843363720802  0.2756726248554243  1.0000
  N   N6        1.0  0.3824333742062506  0.7089140148700963  0.7756728379022846  1.0000
  N   N7        1.0  0.8824318558777904  0.20891584543795014  0.724327808563096  1.0000
  N   N8        1.0  0.6175685917555142  0.2910861609323661  0.2243275955161792  1.0000
  Cl  Cl1       1.0  0.13923836801512826  0.0654448245458923  0.0999369490564064  1.0000
  Cl  Cl2       1.0  0.36076065926076956  0.4345543791108356  0.5999371713030399  1.0000
  Cl  Cl3       1.0  0.8607610949002475  0.9345544659334591  0.900063484362107  1.0000
  Cl  Cl4       1.0  0.6392388036546065  0.565444911368516  0.4000632621154736  1.0000
  Cl  Cl5       1.0  0.8440536309902099  0.6729208483086639  0.0791270602085774  1.0000
  Cl  Cl6       1.0  0.6559465721951271  0.8270794120370015  0.579127290204184  1.0000
  Cl  Cl7       1.0  0.15594583192517317  0.3270784421706878  0.9208733732099432  1.0000
  Cl  Cl8       1.0  0.34405315849620877  0.1729207697730217  0.4208731432143438  1.0000
