data_image0
_chemical_formula_structural       Tl2H14C16O6
_chemical_formula_sum              "Tl2 H14 C16 O6"
_cell_length_a       4.094973817453811
_cell_length_b       7.549787744075267
_cell_length_c       13.817072557179273
_cell_angle_alpha    92.48264244898375
_cell_angle_beta     86.15683296235781
_cell_angle_gamma    105.09980397131524

_space_group_name_H-M_alt    "P 1"
_space_group_IT_number       1

loop_
  _space_group_symop_operation_xyz
  'x, y, z'

loop_
  _atom_site_type_symbol
  _atom_site_label
  _atom_site_symmetry_multiplicity
  _atom_site_fract_x
  _atom_site_fract_y
  _atom_site_fract_z
  _atom_site_occupancy
  Tl  Tl1       1.0  0.04487256104507529  0.7711876162653583  0.9131813395008589  1.0000
  Tl  Tl2       1.0  0.9551182709472812  0.22880455630416208  0.08682005347030496  1.0000
  H   H1        1.0  0.8082782037150765  0.7655066824963158  0.48046420943539636  1.0000
  H   H2        1.0  0.1917223901784695  0.23449943867807121  0.5195348034313054  1.0000
  H   H3        1.0  0.6801175483427782  0.0506885426627264  0.42914397405100135  1.0000
  H   H4        1.0  0.3198950002536379  0.9493163274854695  0.5708527413792408  1.0000
  H   H5        1.0  0.47027640371992874  0.0608918431186183  0.26377738774426956  1.0000
  H   H6        1.0  0.5297313802741072  0.9391184893986162  0.7362203071267995  1.0000
  H   H7        1.0  0.5303225351900381  0.5392241784814047  0.12237941248502435  1.0000
  H   H8        1.0  0.46970325822333325  0.4607832354605036  0.8776187819456494  1.0000
  H   H9        1.0  0.8104532982560432  0.4488488809698056  0.45179188048939506  1.0000
  H   H10       1.0  0.18951925431242242  0.5511504004596048  0.5482084628118569  1.0000
  H   H11       1.0  0.9825648614758647  0.41290616412481285  0.3328166487360986  1.0000
  H   H12       1.0  0.017427664501674767  0.587095364406018  0.6671880234505206  1.0000
  H   H13       1.0  0.5445845871620776  0.3285477703539073  0.36108285498717396  1.0000
  H   H14       1.0  0.4554009752554223  0.6714528746627407  0.6389167437634808  1.0000
  C   C1        1.0  0.4026521189709201  0.8001866187976248  0.12146012656196345  1.0000
  C   C2        1.0  0.5973358712161813  0.19980000679444027  0.8785417784077223  1.0000
  C   C3        1.0  0.5212417433522702  0.7928850720173273  0.22029166517917523  1.0000
  C   C4        1.0  0.4787459994308706  0.2071100612440944  0.7797076924617766  1.0000
  C   C5        1.0  0.7295759542373476  0.7732355191713723  0.4071313785609971  1.0000
  C   C6        1.0  0.27042867274565197  0.22676482188337838  0.5928702726351103  1.0000
  C   C7        1.0  0.6567973035653195  0.9340439464382512  0.3785065808185662  1.0000
  C   C8        1.0  0.3431983834318403  0.0659600333014083  0.6214858438381012  1.0000
  C   C9        1.0  0.5461730085744847  0.9415375285328977  0.28633584259004846  1.0000
  C   C10       1.0  0.45383449525042613  0.058462989008262405  0.7136636231668231  1.0000
  C   C11       1.0  0.6088703221512046  0.6344851737235115  0.24932152431182425  1.0000
  C   C12       1.0  0.39115393200702914  0.36551080018502097  0.7506812823319674  1.0000
  C   C13       1.0  0.7030982675667872  0.6208974429056227  0.3444185477374119  1.0000
  C   C14       1.0  0.2969041028212942  0.379097605372145  0.6555807212410227  1.0000
  C   C15       1.0  0.765029921470287  0.44442409123281834  0.37439901816832577  1.0000
  C   C16       1.0  0.23495514440219986  0.5555774162397284  0.6256064219036046  1.0000
  O   O1        1.0  0.41366047758994284  0.6635225854319486  0.06144534747498647  1.0000
  O   O2        1.0  0.5863438567878919  0.336477628522573  0.9385577508292181  1.0000
  O   O3        1.0  0.29917503122666034  0.9353344646663544  0.09768073719080655  1.0000
  O   O4        1.0  0.7007881859123158  0.06466074668438183  0.9023194917750597  1.0000
  O   O5        1.0  0.5967761033280826  0.4905190785013503  0.185965981635121  1.0000
  O   O6        1.0  0.4032759797879279  0.509486872330477  0.8140312738046657  1.0000
