data_image0
_chemical_formula_structural       Cd4H36C40N24Cl4O4
_chemical_formula_sum              "Cd4 H36 C40 N24 Cl4 O4"
_cell_length_a       10.899051751633149
_cell_length_b       10.443197618315562
_cell_length_c       13.672
_cell_angle_alpha    111.433843472222
_cell_angle_beta     110.49604124165559
_cell_angle_gamma    90.55405700057838

_space_group_name_H-M_alt    "P 1"
_space_group_IT_number       1

loop_
  _space_group_symop_operation_xyz
  'x, y, z'

loop_
  _atom_site_type_symbol
  _atom_site_label
  _atom_site_symmetry_multiplicity
  _atom_site_fract_x
  _atom_site_fract_y
  _atom_site_fract_z
  _atom_site_occupancy
  Cd  Cd1       1.0  0.650217706963069  0.0946266269027731  0.9909041894615667  1.0000
  Cd  Cd2       1.0  0.9042477889115689  0.3481296862591918  0.5083376042589691  1.0000
  Cd  Cd3       1.0  0.34978297368628836  0.9053749150133824  0.009096138347509117  1.0000
  Cd  Cd4       1.0  0.09575340155195991  0.6518687303624091  0.4916634563429341  1.0000
  H   H1        1.0  0.4284280431164405  0.31420461381758  0.002035680657016378  1.0000
  H   H2        1.0  0.686192481506879  0.5721685102750271  0.49800805728064296  1.0000
  H   H3        1.0  0.5715754195190925  0.6857958863337217  0.9979651328946415  1.0000
  H   H4        1.0  0.3138095319067348  0.42782886458171987  0.5019907479785246  1.0000
  H   H5        1.0  0.2941445815801488  0.4401393998509491  0.8863239773602202  1.0000
  H   H6        1.0  0.5584923799709856  0.7053508543914973  0.6128626111299341  1.0000
  H   H7        1.0  0.7058569220192936  0.5598611003003526  0.11367628937176022  1.0000
  H   H8        1.0  0.4415068514564525  0.2946475622300966  0.3871320512772201  1.0000
  H   H9        1.0  0.3243708329099846  0.4168934589185938  0.7074473258890349  1.0000
  H   H10       1.0  0.5817314949385448  0.6744583594373026  0.7915726020067096  1.0000
  H   H11       1.0  0.6756309838253785  0.5831091247624158  0.29255287839491456  1.0000
  H   H12       1.0  0.4182633086025335  0.3255431824788602  0.20842096539014687  1.0000
  H   H13       1.0  0.4845023530655653  0.2617965493520487  0.6482221354798767  1.0000
  H   H14       1.0  0.7376327340023182  0.5149964551362061  0.8513159978102534  1.0000
  H   H15       1.0  0.5155004431878397  0.738206034328968  0.3517790736357965  1.0000
  H   H16       1.0  0.2623615597245816  0.48500821207451145  0.1486826881688472  1.0000
  H   H17       1.0  0.9546535993819562  0.8051727626167491  0.6971269630387482  1.0000
  H   H18       1.0  0.19983919853319784  0.050033882365291  0.8054565095381532  1.0000
  H   H19       1.0  0.0453495501176633  0.1948256540048519  0.30287464438282535  1.0000
  H   H20       1.0  0.800162931338079  0.9499707848454263  0.19454728940718277  1.0000
  H   H21       1.0  0.7421612105392796  0.9941687005035789  0.46463078862709745  1.0000
  H   H22       1.0  0.002476628206672192  0.2557157679044266  0.0338267817776696  1.0000
  H   H23       1.0  0.2578354355802404  0.0058255490586063  0.5353678403877566  1.0000
  H   H24       1.0  0.997522603220766  0.7442826487171743  0.9661744634264408  1.0000
  H   H25       1.0  0.9080536642758192  0.8462110054754107  0.3986845509648944  1.0000
  H   H26       1.0  0.1555856536367486  0.0930889819795837  0.10214656699500319  1.0000
  H   H27       1.0  0.0919455671516189  0.1537874111461832  0.6013152313954463  1.0000
  H   H28       1.0  0.8444127548406045  0.9069104764068712  0.8978532764424328  1.0000
  H   H29       1.0  0.8428848408841247  0.3451116934797227  0.1873178538882101  1.0000
  H   H30       1.0  0.6576167703152791  0.1577273658206551  0.3119722824193332  1.0000
  H   H31       1.0  0.1571138807291348  0.6548898484364329  0.8126826585230731  1.0000
  H   H32       1.0  0.3423816381620739  0.8422720925657927  0.6880260981743332  1.0000
  H   H33       1.0  0.8289160605308653  0.3677086149085937  0.07656938332208806  1.0000
  H   H34       1.0  0.6388341761428223  0.1757915683736329  0.4247749782486707  1.0000
  H   H35       1.0  0.17108477668644181  0.6322939687724229  0.9234312789739078  1.0000
  H   H36       1.0  0.3611661913706144  0.824207890012822  0.5752246805865512  1.0000
  C   C1        1.0  0.4373610860299593  0.3065976468601548  0.9230575210288235  1.0000
  C   C2        1.0  0.6933729719327105  0.562709285408765  0.5767210357196076  1.0000
  C   C3        1.0  0.5626433561236227  0.693402853291154  0.07694356593267324  1.0000
  C   C4        1.0  0.3066272390127693  0.437289131212836  0.42327609436303953  1.0000
  C   C5        1.0  0.36386982536492246  0.3768105144302396  0.8588890687810177  1.0000
  C   C6        1.0  0.6222270005108542  0.635492186871474  0.640413757345655  1.0000
  C   C7        1.0  0.6361328143205187  0.6231910274859231  0.14111107442584372  1.0000
  C   C8        1.0  0.37777223091658396  0.3645062297501198  0.35958163648339075  1.0000
  C   C9        1.0  0.380792415656181  0.3625466700614197  0.758926837018322  1.0000
  C   C10       1.0  0.636473118243636  0.6183186932679163  0.740288573091142  1.0000
  C   C11       1.0  0.6192100674613028  0.6374538300898891  0.24107297170161957  1.0000
  C   C12       1.0  0.3635234877655762  0.3816818068833925  0.259708863747889  1.0000
  C   C13       1.0  0.4686408336202065  0.2775219898097845  0.7258289737067329  1.0000
  C   C14       1.0  0.7219873154326777  0.5308562832599932  0.7737134696265143  1.0000
  C   C15       1.0  0.5313649011873381  0.7224805938712322  0.2741730556384496  1.0000
  C   C16       1.0  0.2780084676264423  0.46914525865616236  0.22628622255525244  1.0000
  C   C17       1.0  0.5382485735279019  0.2086665418433071  0.7938549328794053  1.0000
  C   C18       1.0  0.7914174403138006  0.46179664938230763  0.7060462575352773  1.0000
  C   C19       1.0  0.4617552022435518  0.7913360418377096  0.2061450868023301  1.0000
  C   C20       1.0  0.20858014521346047  0.5382038507690012  0.29395364697924004  1.0000
  C   C21       1.0  0.6300866176206767  0.11567131870050672  0.7642392180384261  1.0000
  C   C22       1.0  0.8842418413507716  0.3699744534641098  0.7356823486869004  1.0000
  C   C23       1.0  0.3699150425467295  0.884330223215656  0.23575918891482667  1.0000
  C   C24       1.0  0.1157555876085326  0.630025004922345  0.2643186841844596  1.0000
  C   C25       1.0  0.7484289244392742  0.9917101354502335  0.6873250953444057  1.0000
  C   C26       1.0  0.008173113260049499  0.2522914868322488  0.8128416469834716  1.0000
  C   C27       1.0  0.2515690143342013  0.0082861976416595  0.3126730132103717  1.0000
  C   C28       1.0  0.9918246288351682  0.747710055083914  0.1871607862836271  1.0000
  C   C29       1.0  0.8154409915404912  0.9254163872575631  0.6117649187162683  1.0000
  C   C30       1.0  0.0748374423306046  0.1857956362580708  0.8887217633902083  1.0000
  C   C31       1.0  0.18455612428289925  0.0745809875991839  0.3882347137593597  1.0000
  C   C32       1.0  0.9251619456647905  0.814203822128384  0.11127908487894453  1.0000
  C   C33       1.0  0.9142359054053628  0.8404594217213769  0.628493173301173  1.0000
  C   C34       1.0  0.16331651994647706  0.08939696734015  0.8735467395109281  1.0000
  C   C35       1.0  0.085765128490209  0.15953795313537  0.3715060899700404  1.0000
  C   C36       1.0  0.8366856099247999  0.9106076998705674  0.12645632801252302  1.0000
  C   C37       1.0  0.8030927522386762  0.9370341488994781  0.5101164645291192  1.0000
  C   C38       1.0  0.06201402918288321  0.1968195919337106  0.9896808673258091  1.0000
  C   C39       1.0  0.19690452015267115  0.0629642677221227  0.4898842338553208  1.0000
  C   C40       1.0  0.9379853588125118  0.8031798664527443  0.010322175208998013  1.0000
  N   N1        1.0  0.5225785624294588  0.22522956124294066  0.8919018842265557  1.0000
  N   N2        1.0  0.7754585009999176  0.4778971251871624  0.6082668642360004  1.0000
  N   N3        1.0  0.4774261928600367  0.7747730224380689  0.1080984088650255  1.0000
  N   N4        1.0  0.22454073042751332  0.5221012914344385  0.39173364954623213  1.0000
  N   N5        1.0  0.6979216515281906  0.05586359848330599  0.8347281018252344  1.0000
  N   N6        1.0  0.9439881158315587  0.3013231914088479  0.6650289389153697  1.0000
  N   N7        1.0  0.3020808315892936  0.9441369016679957  0.16527316973846948  1.0000
  N   N8        1.0  0.0560112721638362  0.698676266977607  0.3349711779319051  1.0000
  N   N9        1.0  0.774194621117701  0.9754846478630057  0.7865657013536661  1.0000
  N   N10       1.0  0.024502746847332404  0.2256160560034459  0.7134303048691918  1.0000
  N   N11       1.0  0.2258060996419573  0.0245106434640334  0.21343435578746286  1.0000
  N   N12       1.0  0.9754959747659273  0.7743854859127097  0.28657093896396907  1.0000
  N   N13       1.0  0.6582633941264859  0.0780000598470991  0.6697210011054294  1.0000
  N   N14       1.0  0.9218079409803722  0.3427354278497745  0.830430770086828  1.0000
  N   N15       1.0  0.3417368168190009  0.9219983567745017  0.3302783232428723  1.0000
  N   N16       1.0  0.0781898011148456  0.6572661140663811  0.16957020033650141  1.0000
  N   N17       1.0  0.8899124729779545  0.8633876243735301  0.47250615545750213  1.0000
  N   N18       1.0  0.1387301404602468  0.11183345698163552  0.028581521615009802  1.0000
  N   N19       1.0  0.11008758139956852  0.1366097504832098  0.5274942972476352  1.0000
  N   N20       1.0  0.861268424585056  0.8881670431696661  0.9714208505749935  1.0000
  N   N21       1.0  0.9586659119582778  0.804046614810531  0.5438095441079014  1.0000
  N   N22       1.0  0.2013019241815428  0.045610548798976  0.9588204401971294  1.0000
  N   N23       1.0  0.041336414591256705  0.1959528435759168  0.45618993012511305  1.0000
  N   N24       1.0  0.798700872071862  0.9543920348820336  0.04118223176231354  1.0000
  Cl  Cl1       1.0  0.553899709575461  0.1403986492539815  0.14319612096453943  1.0000
  Cl  Cl2       1.0  0.8630884050714585  0.4482182862868385  0.3579921559110203  1.0000
  Cl  Cl3       1.0  0.4460981890877136  0.859603934427028  0.8568022582581775  1.0000
  Cl  Cl4       1.0  0.1369126288241063  0.5517790885699085  0.6420093016258477  1.0000
  O   O1        1.0  0.8321005186150929  0.2960101906579737  0.10669924190126778  1.0000
  O   O2        1.0  0.7052241745455277  0.165325998659263  0.3909920709214489  1.0000
  O   O3        1.0  0.1679022776383121  0.703992393023043  0.8933019672143985  1.0000
  O   O4        1.0  0.2947752134498672  0.834673459727192  0.6090065830820492  1.0000
