data_image0
_chemical_formula_structural       CdH14C20S2N16
_chemical_formula_sum              "Cd1 H14 C20 S2 N16"
_cell_length_a       7.946180540267885
_cell_length_b       8.961729300655321
_cell_length_c       9.758738204881961
_cell_angle_alpha    71.98506202919503
_cell_angle_beta     87.31757536341424
_cell_angle_gamma    64.68365675069586

_space_group_name_H-M_alt    "P 1"
_space_group_IT_number       1

loop_
  _space_group_symop_operation_xyz
  'x, y, z'

loop_
  _atom_site_type_symbol
  _atom_site_label
  _atom_site_symmetry_multiplicity
  _atom_site_fract_x
  _atom_site_fract_y
  _atom_site_fract_z
  _atom_site_occupancy
  Cd  Cd1       1.0  5.35924130009138e-07  0.9999988006054537  0.4999975858557661  1.0000
  H   H1        1.0  0.28719338257078414  0.2563680623389999  0.6510854705577527  1.0000
  H   H2        1.0  0.7128053024719492  0.7436353491662331  0.3489111769828526  1.0000
  H   H3        1.0  0.7720548151716713  0.7755691957765547  0.7376088991455986  1.0000
  H   H4        1.0  0.22794513719394158  0.2244342225081581  0.2623897432625242  1.0000
  H   H5        1.0  0.1949064348327738  0.140441703993524  0.8706551502866658  1.0000
  H   H6        1.0  0.8050954391997253  0.8595630146498149  0.12934406136701435  1.0000
  H   H7        1.0  0.1312020329947504  0.9865965912382888  0.11270873082873571  1.0000
  H   H8        1.0  0.8687979165716654  0.013406821627505398  0.8872888885204516  1.0000
  H   H9        1.0  0.35056293533925503  0.6773036664507541  0.24181324481094896  1.0000
  H   H10       1.0  0.6494344907781907  0.32269975453174726  0.758184477038938  1.0000
  H   H11       1.0  0.5971958516753871  0.40999701558320817  0.35396027137515057  1.0000
  H   H12       1.0  0.4028021818225298  0.5900051077618043  0.6460388248463501  1.0000
  H   H13       1.0  0.8375977057288464  0.4490584820691197  0.9524098760405337  1.0000
  H   H14       1.0  0.16239972318779644  0.5509449443322936  0.0475888688682886  1.0000
  C   C1        1.0  0.42434671254982  0.15768560044973864  0.6435183514240137  1.0000
  C   C2        1.0  0.5756519752921108  0.8423178164744126  0.35647931917552717  1.0000
  C   C3        1.0  0.6742163874799804  0.910180295581462  0.6874721988008189  1.0000
  C   C4        1.0  0.3257829575051545  0.0898244203407401  0.31252506923569  1.0000
  C   C5        1.0  0.4474434420029638  0.9105243969879381  0.8691972366594598  1.0000
  C   C6        1.0  0.5525571703050431  0.08948032571374398  0.13080202624457365  1.0000
  C   C7        1.0  0.2876441353773771  0.004255921705571098  0.92689492792271  1.0000
  C   C8        1.0  0.7123582878752827  0.9957448864079906  0.0731043658604165  1.0000
  C   C9        1.0  0.25304802797506903  0.9175052097399571  0.0626134794486434  1.0000
  C   C10       1.0  0.7469506129033335  0.08249561596756654  0.9373869911444643  1.0000
  C   C11       1.0  0.3760519663641447  0.7449005751621343  0.1355490076258191  1.0000
  C   C12       1.0  0.6239460089734621  0.25509893529058997  0.864448796353521  1.0000
  C   C13       1.0  0.5304693536439871  0.6659589164022249  0.06603211907486889  1.0000
  C   C14       1.0  0.4695312005037096  0.3340431934071758  0.9339658515869972  1.0000
  C   C15       1.0  0.6896452178543483  0.38304220079932355  0.2704074471514416  1.0000
  C   C16       1.0  0.3103534202248569  0.6169586194892884  0.7295920003827303  1.0000
  C   C17       1.0  0.8153619533121699  0.40019618035356064  0.06516306188322565  1.0000
  C   C18       1.0  0.18463547560446616  0.5998072460478524  0.9348356830255965  1.0000
  C   C19       1.0  0.04775863740750441  0.6837392289500103  0.3497174803796169  1.0000
  C   C20       1.0  0.9522465409663782  0.3162395436763531  0.6503054852229438  1.0000
  S   S1        1.0  0.0349569803364958  0.5337591881144801  0.2969595504979807  1.0000
  S   S2        1.0  0.9650444402330792  0.4662221499711449  0.70305360744954  1.0000
  N   N1        1.0  0.5375025037486623  0.18143957673180464  0.5453457244125204  1.0000
  N   N2        1.0  0.46249617849487384  0.8185638293545168  0.45464990006915673  1.0000
  N   N3        1.0  0.6961371571471204  0.0233156050197252  0.5739387822086995  1.0000
  N   N4        1.0  0.3038590044466434  0.9766878146022078  0.4260579678326053  1.0000
  N   N5        1.0  0.5044109392806674  0.9883343024479456  0.7366305244312911  1.0000
  N   N6        1.0  0.49558901028574814  0.011669110417848596  0.2633670949179034  1.0000
  N   N7        1.0  0.5657605681810979  0.7448736814414473  0.935899937238517  1.0000
  N   N8        1.0  0.4342387768040298  0.2551310344807547  0.06409733079799912  1.0000
  N   N9        1.0  0.6671934445946021  0.4916650457573296  0.13117646483863876  1.0000
  N   N10       1.0  0.3328058506278001  0.5083370735293328  0.8688225801325159  1.0000
  N   N11       1.0  0.8408106338684291  0.2362952551629505  0.28659556101070643  1.0000
  N   N12       1.0  0.15918865575558547  0.763706853285882  0.7134014378425775  1.0000
  N   N13       1.0  0.920351098274523  0.24619588398147835  0.15687356029035016  1.0000
  N   N14       1.0  0.07964885129189289  0.7538075288843159  0.8431240590588445  1.0000
  N   N15       1.0  0.05140733790838682  0.798027499755669  0.38458031630921136  1.0000
  N   N16       1.0  0.9485997425380005  0.20195253529689688  0.6154360571263877  1.0000
