data_image0
_chemical_formula_structural       Zn16H144C198O76
_chemical_formula_sum              "Zn16 H144 C198 O76"
_cell_length_a       26.863790923213365
_cell_length_b       26.863791361393876
_cell_length_c       33.07127796648452
_cell_angle_alpha    66.03289232473868
_cell_angle_beta     66.03291061299441
_cell_angle_gamma    59.996144168880676

_space_group_name_H-M_alt    "P 1"
_space_group_IT_number       1

loop_
  _space_group_symop_operation_xyz
  'x, y, z'

loop_
  _atom_site_type_symbol
  _atom_site_label
  _atom_site_symmetry_multiplicity
  _atom_site_fract_x
  _atom_site_fract_y
  _atom_site_fract_z
  _atom_site_occupancy
  Zn  Zn1       1.0  0.23124273796192807  0.094580606355926  0.497806737284286  1.0000
  Zn  Zn2       1.0  0.17633519575248607  0.23124035936437087  0.4978065874576459  1.0000
  Zn  Zn3       1.0  0.09460512946316162  0.1763291825688569  0.49781043171523737  1.0000
  Zn  Zn4       1.0  0.26875949777754476  0.323664203458577  0.002194058958252744  1.0000
  Zn  Zn5       1.0  0.3236705545900165  0.4053946155594449  0.002189834323452392  1.0000
  Zn  Zn6       1.0  0.40541941900982437  0.26875714651500743  0.002193715961560356  1.0000
  Zn  Zn7       1.0  0.7687571509482611  0.9054193904361229  0.5021929048005445  1.0000
  Zn  Zn8       1.0  0.8236646935769373  0.7687596378468055  0.5021933567272969  1.0000
  Zn  Zn9       1.0  0.9053947598662546  0.8236708146423197  0.5021895124697054  1.0000
  Zn  Zn10      1.0  0.7312403915518786  0.6763357937525996  0.9978058852266902  1.0000
  Zn  Zn11      1.0  0.6763288906111313  0.5946051528964632  0.9978106349878857  1.0000
  Zn  Zn12      1.0  0.5945809154859489  0.7312426728376452  0.9978064421124986  1.0000
  Zn  Zn13      1.0  0.13746948410949503  0.13745207370087095  0.5876126194209733  1.0000
  Zn  Zn14      1.0  0.36254738746828963  0.3625308684154191  0.9123878823959617  1.0000
  Zn  Zn15      1.0  0.8625304052199285  0.8625479235103134  0.4123873247639693  1.0000
  Zn  Zn16      1.0  0.6374520575332454  0.6374693074925306  0.08761245210007469  1.0000
  H   H1        1.0  0.23242121607307106  0.9957736403888191  0.6815921829409461  1.0000
  H   H2        1.0  0.3219893496853956  0.9206932449381285  0.5658783660159656  1.0000
  H   H3        1.0  0.2926519561412562  0.9027178575855714  0.729006247837063  1.0000
  H   H4        1.0  0.3821150260823317  0.8257208816267365  0.6135159636805484  1.0000
  H   H5        1.0  0.3440137287011495  0.8048927870433288  0.765943184742689  1.0000
  H   H6        1.0  0.3900930407269315  0.8459567209507954  0.7324432386314401  1.0000
  H   H7        1.0  0.48765783990352674  0.7396670948279291  0.6809600542394777  1.0000
  H   H8        1.0  0.5328199602728745  0.7079737672523339  0.7203038259414924  1.0000
  H   H9        1.0  0.5222181001606643  0.8931410209107471  0.6645604321607552  1.0000
  H   H10       1.0  0.5897148982877809  0.7167111789855128  0.648968771598561  1.0000
  H   H11       1.0  0.6100701929525698  0.9079252698969713  0.6026229354175856  1.0000
  H   H12       1.0  0.676691248054361  0.7319288120663504  0.5884631188997602  1.0000
  H   H13       1.0  0.09023723277585563  0.23236020829066462  0.6816104875072356  1.0000
  H   H14       1.0  0.19135781799256085  0.3220094252292469  0.565857477389052  1.0000
  H   H15       1.0  0.0756117612671332  0.29262331392787644  0.7290184455752711  1.0000
  H   H16       1.0  0.1786108987894508  0.3820970917519517  0.6135038514247385  1.0000
  H   H17       1.0  0.0851610506921929  0.3439724167654675  0.7659411193819211  1.0000
  H   H18       1.0  0.031511040658458  0.39007012102987926  0.7324497943272021  1.0000
  H   H19       1.0  0.09179177831818208  0.4876079521684673  0.680988694921787  1.0000
  H   H20       1.0  0.0389920402202506  0.5327664324896377  0.7203420723474707  1.0000
  H   H21       1.0  0.9201969081097304  0.5222471211442895  0.6645840821741447  1.0000
  H   H22       1.0  0.04471979199867349  0.5897693900870921  0.6489288926563718  1.0000
  H   H23       1.0  0.8794485960675474  0.6100607331473429  0.6026658982235418  1.0000
  H   H24       1.0  0.002990741946625501  0.6767311114268824  0.5884089996773129  1.0000
  H   H25       1.0  0.9957863970113082  0.09023522348447699  0.6816010583704825  1.0000
  H   H26       1.0  0.9207062519554371  0.19140035316500806  0.5658801448648846  1.0000
  H   H27       1.0  0.9027466100099205  0.07561413771623655  0.7290201169880461  1.0000
  H   H28       1.0  0.82573158440794  0.17865642694238207  0.6135411633068771  1.0000
  H   H29       1.0  0.8048990166817094  0.08516261887724137  0.7659597283075499  1.0000
  H   H30       1.0  0.8459930065820201  0.03149025799219648  0.7324794281029415  1.0000
  H   H31       1.0  0.7396817154651247  0.09175590052549137  0.680991378731612  1.0000
  H   H32       1.0  0.7079768507507467  0.03894114075081499  0.7203216870339803  1.0000
  H   H33       1.0  0.8930542054975277  0.9200785818690422  0.664585688067071  1.0000
  H   H34       1.0  0.7166810329077435  0.04472735642867334  0.648944914965668  1.0000
  H   H35       1.0  0.9078244290176727  0.8793723840841567  0.6026678573142947  1.0000
  H   H36       1.0  0.7318718587953654  0.0030438598025313746  0.5884360003755164  1.0000
  H   H37       1.0  0.26763764726139533  0.4097641649699995  0.8183910897703938  1.0000
  H   H38       1.0  0.1779891229948376  0.3086415399014229  0.9341433377301982  1.0000
  H   H39       1.0  0.20737551539110655  0.42438946849510023  0.7709825535280717  1.0000
  H   H40       1.0  0.1179028838458152  0.3213884911807269  0.8864961693812888  1.0000
  H   H41       1.0  0.1560277381715451  0.4148397785993865  0.7340592660334695  1.0000
  H   H42       1.0  0.1099303777647052  0.4684894927565325  0.7675502607685943  1.0000
  H   H43       1.0  0.0123924647154752  0.4082086217512426  0.8190111245499312  1.0000
  H   H44       1.0  0.9672338118715444  0.46100854591973234  0.7796577279245941  1.0000
  H   H45       1.0  0.9777529493475329  0.5798035547468956  0.8354161028817304  1.0000
  H   H46       1.0  0.9102307875621705  0.45528051599629316  0.8510707131994976  1.0000
  H   H47       1.0  0.8899382711568508  0.6205521712798897  0.8973342210618684  1.0000
  H   H48       1.0  0.8232691676505582  0.49700919773351887  0.9115906789701996  1.0000
  H   H49       1.0  0.409766153348599  0.504213665051161  0.818399495908764  1.0000
  H   H50       1.0  0.30859997763660374  0.5792953384948094  0.9341196236751655  1.0000
  H   H51       1.0  0.4243877880626101  0.5972530553911497  0.7709803773995391  1.0000
  H   H52       1.0  0.32134344628914857  0.6742689478622595  0.8864587946827314  1.0000
  H   H53       1.0  0.41483744947748147  0.6951000386653948  0.734040965165953  1.0000
  H   H54       1.0  0.4685104228370492  0.6540066075792553  0.7675208890880327  1.0000
  H   H55       1.0  0.4082448107140096  0.7603181204789565  0.8190082300814724  1.0000
  H   H56       1.0  0.4610600135040173  0.7920222706945954  0.7796780142019768  1.0000
  H   H57       1.0  0.5799217537164054  0.6069449823527509  0.8354144775534992  1.0000
  H   H58       1.0  0.455273784040422  0.7833187626420329  0.8510545680336534  1.0000
  H   H59       1.0  0.6206277835800479  0.5921743155312953  0.897332819727261  1.0000
  H   H60       1.0  0.49695701655039676  0.7681275240450135  0.9115634111754717  1.0000
  H   H61       1.0  0.5042265309338491  0.2675786815053129  0.8184096511246964  1.0000
  H   H62       1.0  0.579308088462092  0.17800934517078573  0.934122896653847  1.0000
  H   H63       1.0  0.5972810807188722  0.20734858110239435  0.7709951964253604  1.0000
  H   H64       1.0  0.6742796884835371  0.11788384029143378  0.88648460650424  1.0000
  H   H65       1.0  0.6951063834661753  0.15598699755590673  0.7340572309835736  1.0000
  H   H66       1.0  0.6540426225860543  0.10990738727532798  0.7675569167783467  1.0000
  H   H67       1.0  0.7603328094649554  0.01234229354453489  0.819039735314377  1.0000
  H   H68       1.0  0.7920259507114694  0.9671809035652075  0.7796956690364071  1.0000
  H   H69       1.0  0.6068598118950916  0.9777818114805754  0.835439287686825  1.0000
  H   H70       1.0  0.783289027977034  0.9102855166590802  0.8510316230570466  1.0000
  H   H71       1.0  0.5920748814498609  0.8899298207920479  0.8973763802955408  1.0000
  H   H72       1.0  0.7680710106971914  0.8233089803258837  0.9115371709971998  1.0000
  H   H73       1.0  0.7675791182230896  0.004226586415875046  0.3184078403178177  1.0000
  H   H74       1.0  0.6780105400632621  0.07930675269216891  0.43412188026908904  1.0000
  H   H75       1.0  0.7073479334077817  0.097282547496775  0.2709938636326896  1.0000
  H   H76       1.0  0.6178844189192106  0.17427929428121303  0.3864843708154951  1.0000
  H   H77       1.0  0.6559861608278866  0.1951068027158058  0.23405689425754864  1.0000
  H   H78       1.0  0.6099068488021047  0.15404286880833964  0.26755684036879773  1.0000
  H   H79       1.0  0.5123420500447438  0.26033249535032615  0.31904032686087214  1.0000
  H   H80       1.0  0.46717992947578324  0.2920262303779637  0.2796964203435622  1.0000
  H   H81       1.0  0.47778134442164344  0.10685915457808194  0.33543960023517627  1.0000
  H   H82       1.0  0.4102849914608698  0.2832888186447847  0.3510314746864864  1.0000
  H   H83       1.0  0.38992925162973796  0.09207490559185065  0.3973770969783459  1.0000
  H   H84       1.0  0.3233090864414123  0.26807100728630223  0.4115370391742985  1.0000
  H   H85       1.0  0.9097631013006835  0.7676396106428601  0.3183893684667182  1.0000
  H   H86       1.0  0.8086429618691753  0.6779898088128393  0.4341430293894249  1.0000
  H   H87       1.0  0.9243881280622901  0.7073766832833074  0.27098149860967163  1.0000
  H   H88       1.0  0.8213894357063227  0.6179027276007003  0.38649630664932744  1.0000
  H   H89       1.0  0.9148388386372304  0.6560275804457093  0.23405882480302145  1.0000
  H   H90       1.0  0.9684892932184683  0.6099301053556941  0.2675499268314566  1.0000
  H   H91       1.0  0.9082081114304758  0.5123920454618304  0.31901155136326764  1.0000
  H   H92       1.0  0.9610082942755228  0.46723338686301463  0.2796580857265951  1.0000
  H   H93       1.0  0.0798029816389274  0.47775287648600795  0.3354161641109101  1.0000
  H   H94       1.0  0.9552800971311302  0.4102310145761336  0.35107091671326895  1.0000
  H   H95       1.0  0.12055173820861143  0.3899386783341401  0.39733409256570706  1.0000
  H   H96       1.0  0.9970091469635635  0.3232688853651737  0.4115906424075179  1.0000
  H   H97       1.0  0.004213492537736799  0.9097651815978697  0.31839905309927  1.0000
  H   H98       1.0  0.07929363759360092  0.8086000519173383  0.43411996660486807  1.0000
  H   H99       1.0  0.0972532799383501  0.9243854524620192  0.2709802641123034  1.0000
  H   H100      1.0  0.17426830514110492  0.8213439781399644  0.38645894816287557  1.0000
  H   H101      1.0  0.19510087368579584  0.9148369717201348  0.23404095489291174  1.0000
  H   H102      1.0  0.1540068837854776  0.9685093326051869  0.2675212550975203  1.0000
  H   H103      1.0  0.26031772953641763  0.9082442753824579  0.31900895576442434  1.0000
  H   H104      1.0  0.29202259425078847  0.9610590351571346  0.2796786474620561  1.0000
  H   H105      1.0  0.10694523886515843  0.07992118574861712  0.3354141770440507  1.0000
  H   H106      1.0  0.2833188556032198  0.9552734552674736  0.3510544574885658  1.0000
  H   H107      1.0  0.09217457121674501  0.12062715477823359  0.3973325329232155  1.0000
  H   H108      1.0  0.2681275847488536  0.9969567223000984  0.41156329300489597  1.0000
  H   H109      1.0  0.7323622418684153  0.5902362396932193  0.1816087195992465  1.0000
  H   H110      1.0  0.8220107661349729  0.6913588647617955  0.0658564716394424  1.0000
  H   H111      1.0  0.7926248186854323  0.5756103504384243  0.22901730244588245  1.0000
  H   H112      1.0  0.8820978947582249  0.6786107416039829  0.1135034310968664  1.0000
  H   H113      1.0  0.8439721515771126  0.5851602190309179  0.2659409802515854  1.0000
  H   H114      1.0  0.8900699567310754  0.53151032659612  0.2324498973054716  1.0000
  H   H115      1.0  0.9876074248135609  0.5917909680078922  0.1809889544503137  1.0000
  H   H116      1.0  0.03276607787711331  0.5389914517105653  0.22034251836045374  1.0000
  H   H117      1.0  0.022246495853614996  0.4201962137090123  0.16458436642960808  1.0000
  H   H118      1.0  0.0897691019668656  0.5447190737628419  0.14892936580074692  1.0000
  H   H119      1.0  0.11006028351198442  0.3794483603451156  0.10266568565592842  1.0000
  H   H120      1.0  0.1767302762928935  0.5029905694650199  0.08840888404080974  1.0000
  H   H121      1.0  0.5902341811471743  0.49578615430148454  0.18160066216530169  1.0000
  H   H122      1.0  0.6914003568591696  0.4207044808578432  0.06588053439890018  1.0000
  H   H123      1.0  0.57561299034181  0.40274658484560877  0.22901908826331413  1.0000
  H   H124      1.0  0.6786564428206533  0.32573064147775455  0.1135409822174012  1.0000
  H   H125      1.0  0.5851624400515547  0.30489955109374023  0.2659591138342918  1.0000
  H   H126      1.0  0.5314899112394968  0.3459932113542693  0.23247896688592107  1.0000
  H   H127      1.0  0.5917546336686855  0.2396824624619143  0.180991667499157  1.0000
  H   H128      1.0  0.538939875825406  0.2079777265165816  0.2203219299829584  1.0000
  H   H129      1.0  0.4200781356130179  0.39305501485842614  0.1645854666314364  1.0000
  H   H130      1.0  0.5447265498365041  0.2166814637435408  0.14894515312500536  1.0000
  H   H131      1.0  0.3793725509157255  0.407825503821357  0.10266733834680518  1.0000
  H   H132      1.0  0.5030437622732578  0.23187211661086599  0.08843635658749356  1.0000
  H   H133      1.0  0.49577380356193157  0.7324211378473395  0.18159050694936943  1.0000
  H   H134      1.0  0.42069135653945017  0.821990830737164  0.06587743784218952  1.0000
  H   H135      1.0  0.4027188094490199  0.7926514169470312  0.229005351959799  1.0000
  H   H136      1.0  0.3257197569372395  0.8821163360356367  0.11351603009190808  1.0000
  H   H137      1.0  0.3048935062824825  0.8440130000743982  0.2659430153014738  1.0000
  H   H138      1.0  0.3459572675818308  0.8900926107740971  0.23244363160681308  1.0000
  H   H139      1.0  0.23966708006408058  0.9876572962146002  0.18096034368586794  1.0000
  H   H140      1.0  0.20797393841834122  0.032819501098018115  0.22030414033324072  1.0000
  H   H141      1.0  0.39314141189530727  0.02221805876882132  0.1645605591499618  1.0000
  H   H142      1.0  0.2167121958133578  0.08971435359031693  0.14896822377974675  1.0000
  H   H143      1.0  0.40792589717418803  0.1100702273158731  0.10262325265212976  1.0000
  H   H144      1.0  0.23192932379858186  0.17669083902676866  0.08846298707686631  1.0000
  C   C1        1.0  0.2398262422854103  0.021329608581389412  0.5919255604218068  1.0000
  C   C2        1.0  0.2737910787044413  0.9643000433755735  0.620755861404831  1.0000
  C   C3        1.0  0.26548462935303263  0.9584545671699801  0.6668246680819792  1.0000
  C   C4        1.0  0.31574841744304655  0.9159549304731414  0.6017233686705837  1.0000
  C   C5        1.0  0.29943592949399545  0.9062224397205157  0.6933551156198375  1.0000
  C   C6        1.0  0.3491334297011761  0.8633758446392362  0.6279429118731416  1.0000
  C   C7        1.0  0.3418433971097414  0.858782915636468  0.6736485599612154  1.0000
  C   C8        1.0  0.3840463505643968  0.8058615729642541  0.7378960265112795  1.0000
  C   C9        1.0  0.493616462903482  0.7458947925572164  0.7093892045530908  1.0000
  C   C10       1.0  0.5504117988165547  0.8043495539880116  0.6606667392427924  1.0000
  C   C11       1.0  0.5562861919171169  0.858301433889821  0.6474097629297546  1.0000
  C   C12       1.0  0.5935988834037006  0.7587170118394512  0.6392318686927682  1.0000
  C   C13       1.0  0.6049700758857526  0.8663406381578936  0.6131013504826228  1.0000
  C   C14       1.0  0.6425089375422104  0.7672504620344259  0.6050635492623755  1.0000
  C   C15       1.0  0.6488634260236239  0.8208179743744001  0.5915402385883083  1.0000
  C   C16       1.0  0.7020150678340897  0.8286146753013103  0.5556151001931225  1.0000
  C   C17       1.0  0.1469061288594276  0.23979142030020748  0.5919378815951506  1.0000
  C   C18       1.0  0.141119581570365  0.27377267792751075  0.620755094899998  1.0000
  C   C19       1.0  0.10922831534640662  0.26544559689038744  0.6668380891943785  1.0000
  C   C20       1.0  0.16651139579731483  0.3157532363371871  0.6017117319780143  1.0000
  C   C21       1.0  0.1009882794821806  0.29939156548596924  0.6933649904267514  1.0000
  C   C22       1.0  0.159508571608157  0.3491187778407865  0.6279374552793514  1.0000
  C   C23       1.0  0.1257162987020237  0.3418102956741436  0.6736485369890133  1.0000
  C   C24       1.0  0.0722127249739657  0.3840151110160123  0.7378964077548961  1.0000
  C   C25       1.0  0.0511664564199634  0.49358690361695784  0.709408578478211  1.0000
  C   C26       1.0  0.9846727249471315  0.5504550379354428  0.660641370505303  1.0000
  C   C27       1.0  0.9381058246251756  0.556314770600203  0.6474045684493176  1.0000
  C   C28       1.0  0.008568081037452702  0.5936315757698908  0.6391971189388246  1.0000
  C   C29       1.0  0.9156796137960442  0.6049790818658354  0.6130989522504537  1.0000
  C   C30       1.0  0.9852773539747163  0.6425264785841306  0.6050218264663557  1.0000
  C   C31       1.0  0.9388693242464684  0.6488658463099741  0.5915140875468554  1.0000
  C   C32       1.0  0.9138169219857419  0.7020065093913745  0.5555902929433428  1.0000
  C   C33       1.0  0.021325154817844805  0.146942838844403  0.5919099699243802  1.0000
  C   C34       1.0  0.964311232452893  0.1411514436276563  0.6207576462132351  1.0000
  C   C35       1.0  0.9584714753667497  0.10924825161689014  0.6668336859508842  1.0000
  C   C36       1.0  0.9159611354128786  0.1665609997699136  0.6017322771866918  1.0000
  C   C37       1.0  0.9062428127437557  0.10099805724144063  0.6933706089562364  1.0000
  C   C38       1.0  0.8633850220355016  0.1595487504846106  0.6279674595993897  1.0000
  C   C39       1.0  0.8587962107141537  0.12573386869649278  0.6736719885336981  1.0000
  C   C40       1.0  0.8058841406786997  0.07218337031434877  0.7379241499299102  1.0000
  C   C41       1.0  0.7459100066268505  0.05111790466956747  0.7094024698749379  1.0000
  C   C42       1.0  0.8043061678248549  0.9846277436083782  0.6606500457543664  1.0000
  C   C43       1.0  0.8582290054465888  0.9380267154964984  0.6474192915478767  1.0000
  C   C44       1.0  0.7586726944403142  0.008556065818495875  0.6392068450836279  1.0000
  C   C45       1.0  0.8662510360914909  0.9156139837091644  0.613118061732358  1.0000
  C   C46       1.0  0.7671935995225354  0.9852815566162011  0.6050425587371607  1.0000
  C   C47       1.0  0.820743700190974  0.9388451618226271  0.5915374957067102  1.0000
  C   C48       1.0  0.8285629084042726  0.9138262065453943  0.5556013946619133  1.0000
  C   C49       1.0  0.2602082619731263  0.3530929186517254  0.9080629678040638  1.0000
  C   C50       1.0  0.22622629987388626  0.35888094250361746  0.8792460988568113  1.0000
  C   C51       1.0  0.23455283776327462  0.3907726853212808  0.8331631237454719  1.0000
  C   C52       1.0  0.18424588405657974  0.3334881999128997  0.898288812759262  1.0000
  C   C53       1.0  0.20060734287850582  0.3990126644031379  0.8066360793948492  1.0000
  C   C54       1.0  0.1508805030434743  0.3404912225731351  0.8720629657485195  1.0000
  C   C55       1.0  0.1581887601014458  0.3742842314073231  0.8263520141151091  1.0000
  C   C56       1.0  0.11598534284429012  0.4277874521480243  0.762103785814091  1.0000
  C   C57       1.0  0.0064132856462251015  0.44883407325893643  0.7905912678047359  1.0000
  C   C58       1.0  0.9495448992311779  0.5153276017496397  0.8393586057666768  1.0000
  C   C59       1.0  0.9436851837529759  0.5618944034985845  0.8525954284266465  1.0000
  C   C60       1.0  0.906368416645094  0.4914322959201275  0.860802822947484  1.0000
  C   C61       1.0  0.8950203781550102  0.5843210528129036  0.8869007521410668  1.0000
  C   C62       1.0  0.8574734085567782  0.5147229387612031  0.8949775617954645  1.0000
  C   C63       1.0  0.8511336212668328  0.561131139696215  0.9084856789311575  1.0000
  C   C64       1.0  0.7979934243010405  0.5861831203394277  0.9444094493514401  1.0000
  C   C65       1.0  0.3530569114183991  0.4786756425898276  0.9080902737317231  1.0000
  C   C66       1.0  0.35884951863265974  0.5356884607091531  0.8792434598412344  1.0000
  C   C67       1.0  0.3907528817794415  0.5415282186988507  0.8331670639254725  1.0000
  C   C68       1.0  0.3334397769791124  0.5840394165264939  0.8982679923202072  1.0000
  C   C69       1.0  0.39900271163720197  0.5937574489986659  0.806630068350465  1.0000
  C   C70       1.0  0.3404515139804118  0.6366158544142309  0.8720331689367171  1.0000
  C   C71       1.0  0.3742665672311603  0.641204459459175  0.8263283526825733  1.0000
  C   C72       1.0  0.42781659163264874  0.6941158944796584  0.7620759537259119  1.0000
  C   C73       1.0  0.44888305362346165  0.7540894313538897  0.7905971945604835  1.0000
  C   C74       1.0  0.5153729332600321  0.6956936719179014  0.8393494701793925  1.0000
  C   C75       1.0  0.5619742229059598  0.641769883693101  0.8525807670227298  1.0000
  C   C76       1.0  0.491445359421924  0.7413266958712513  0.8607923848661584  1.0000
  C   C77       1.0  0.5843858332026174  0.6337480438802173  0.8868823085991053  1.0000
  C   C78       1.0  0.5147193867970259  0.7328059510941147  0.8949572624838992  1.0000
  C   C79       1.0  0.561154666122377  0.6792561253848036  0.9084626158405769  1.0000
  C   C80       1.0  0.5861732179137676  0.6714367536660151  0.9443989085498075  1.0000
  C   C81       1.0  0.4786709718388948  0.26017425905365604  0.9080754551647278  1.0000
  C   C82       1.0  0.5357005013038787  0.2262084909519262  0.8792450592934817  1.0000
  C   C83       1.0  0.5415454432847895  0.2345149471801092  0.8331770316452778  1.0000
  C   C84       1.0  0.5840457786253168  0.1842505284130383  0.8982777150162989  1.0000
  C   C85       1.0  0.5937776351356447  0.2005638304974228  0.8066459077204019  1.0000
  C   C86       1.0  0.6366244894260547  0.15086563925115126  0.8720579632285494  1.0000
  C   C87       1.0  0.6412167830041541  0.15815641321461266  0.8263519773642972  1.0000
  C   C88       1.0  0.6941375851948804  0.11595425801320407  0.7621044369820213  1.0000
  C   C89       1.0  0.75410503541125  0.006383804802886984  0.7906105657900115  1.0000
  C   C90       1.0  0.6956498264281308  0.9495885386218818  0.8393333345863  1.0000
  C   C91       1.0  0.6416983862159356  0.9437145163098324  0.8525897344120354  1.0000
  C   C92       1.0  0.741282580217778  0.9064020804195825  0.8607682408345172  1.0000
  C   C93       1.0  0.6336594207812283  0.89503043323068  0.8868978362454172  1.0000
  C   C94       1.0  0.732749184071757  0.857491381908858  0.8949367605644342  1.0000
  C   C95       1.0  0.6791816016908142  0.8511364180584029  0.9084599437037115  1.0000
  C   C96       1.0  0.671385242811219  0.7979856287390417  0.9443840873911855  1.0000
  C   C97       1.0  0.760173647044013  0.9786703886297872  0.4080743837631359  1.0000
  C   C98       1.0  0.726208810624975  0.035699953835610726  0.3792440827801116  1.0000
  C   C99       1.0  0.7345152603956181  0.04154543046031744  0.33317557820307536  1.0000
  C   C100      1.0  0.6842514718863768  0.08404506673803515  0.39827657551435897  1.0000
  C   C101      1.0  0.7005644043829308  0.09377778666505783  0.30664460553882117  1.0000
  C   C102      1.0  0.6508669043753628  0.13662397429429524  0.37205694410081247  1.0000
  C   C103      1.0  0.6581564922196819  0.14121708157470897  0.3263513842237202  1.0000
  C   C104      1.0  0.6159535393838738  0.19413801721400162  0.26210435458907  1.0000
  C   C105      1.0  0.5063829816788256  0.25410538293161283  0.29061082784284054  1.0000
  C   C106      1.0  0.44958809071248146  0.1956500357711235  0.3393333397574523  1.0000
  C   C107      1.0  0.44371414235904183  0.1416979775916687  0.3525902278595013  1.0000
  C   C108      1.0  0.4064010063449572  0.2412829857908463  0.36076837759228664  1.0000
  C   C109      1.0  0.3950302579911736  0.1336595882276796  0.38689837067602906  1.0000
  C   C110      1.0  0.35749095220644733  0.232749535595879  0.39493669702267925  1.0000
  C   C111      1.0  0.35113646434388107  0.17918161622297654  0.4084604446121532  1.0000
  C   C112      1.0  0.2979852660428364  0.17138555108426348  0.4443846209655293  1.0000
  C   C113      1.0  0.853093760270383  0.7602089843630184  0.4080619277744903  1.0000
  C   C114      1.0  0.8588807529254083  0.7262271414251418  0.37924506317406775  1.0000
  C   C115      1.0  0.8907715739830167  0.7345544003207892  0.3331618549905644  1.0000
  C   C116      1.0  0.8334884941509558  0.6842463538410685  0.39828864912233547  1.0000
  C   C117      1.0  0.8990116098472427  0.7006084317252075  0.3066349537581915  1.0000
  C   C118      1.0  0.8404913181405007  0.6508812197895185  0.3720627910057032  1.0000
  C   C119      1.0  0.8742835906273996  0.6581897015370402  0.3263514071959295  1.0000
  C   C120      1.0  0.9277867196083422  0.6159850644728168  0.26210362464102843  1.0000
  C   C121      1.0  0.9488334329094599  0.506413093594219  0.2905913657067315  1.0000
  C   C122      1.0  0.015327609548641903  0.44954478141720955  0.33935878756875587  1.0000
  C   C123      1.0  0.0618940651234823  0.44368522703010177  0.3525956778357369  1.0000
  C   C124      1.0  0.9914318087112051  0.4063684218604139  0.3608031273462304  1.0000
  C   C125      1.0  0.0843207202805019  0.39502073706768936  0.38690090372350033  1.0000
  C   C126      1.0  0.014722534935472703  0.35747351820792533  0.3949778156184749  1.0000
  C   C127      1.0  0.0611310094108362  0.3511339722044298  0.4084854663269867  1.0000
  C   C128      1.0  0.0861829673436816  0.2979934878198023  0.4444096512415998  1.0000
  C   C129      1.0  0.9786742901836905  0.8530573370635465  0.4080903645716558  1.0000
  C   C130      1.0  0.0356891026817294  0.8588487840152869  0.3792429812457457  1.0000
  C   C131      1.0  0.04152885934864511  0.8907519756069322  0.3331666394079846  1.0000
  C   C132      1.0  0.0840383093890438  0.8334395835900852  0.3982679224940426  1.0000
  C   C133      1.0  0.0937570774241365  0.8990019408079777  0.30662993942892314  1.0000
  C   C134      1.0  0.13661486813239074  0.8404512475648148  0.37203308878576985  1.0000
  C   C135      1.0  0.1412036794537386  0.8742661293529255  0.3263285598514613  1.0000
  C   C136      1.0  0.19411619443592093  0.9278160420053825  0.2620764450595559  1.0000
  C   C137      1.0  0.2540894377558374  0.9488826782713036  0.2905974277056985  1.0000
  C   C138      1.0  0.1956937206660996  0.015372252764549921  0.3393492942303596  1.0000
  C   C139      1.0  0.14176999480783084  0.061973638689103376  0.3525811311591483  1.0000
  C   C140      1.0  0.24132719365140792  0.9914447454585301  0.36079222527049376  1.0000
  C   C141      1.0  0.1337479637236854  0.08438555473410503  0.3868820264050471  1.0000
  C   C142      1.0  0.23280584424130527  0.01471943335759111  0.39495690192806177  1.0000
  C   C143      1.0  0.17925618933806226  0.0611544279365077  0.40846258329352747  1.0000
  C   C144      1.0  0.17143698050591644  0.08617379024666148  0.44439824742291745  1.0000
  C   C145      1.0  0.7397916273562969  0.6469070785594513  0.0919369763808788  1.0000
  C   C146      1.0  0.7737740344222743  0.6411192843010838  0.12075392440195287  1.0000
  C   C147      1.0  0.765447051366536  0.6092277193419378  0.1668366856241761  1.0000
  C   C148      1.0  0.8157548945674692  0.6665118481950216  0.10171082018840137  1.0000
  C   C149      1.0  0.7993929911980403  0.600987154530387  0.1933637765791047  1.0000
  C   C150      1.0  0.8491202757801873  0.6595084180827444  0.12793680201445293  1.0000
  C   C151      1.0  0.8418115737754804  0.6257159949782506  0.17364770704354973  1.0000
  C   C152      1.0  0.8840149916514832  0.5722123672046283  0.23789637225997504  1.0000
  C   C153      1.0  0.9935866039028128  0.5511663318234029  0.2094088436650167  1.0000
  C   C154      1.0  0.0504549905174727  0.4846723958806579  0.16064164051837782  1.0000
  C   C155      1.0  0.05631426082933189  0.4381057719902445  0.14740460396928506  1.0000
  C   C156      1.0  0.0936310275179792  0.508567879149581  0.1391969073483352  1.0000
  C   C157      1.0  0.1049786206420933  0.4156797075673708  0.1130986294503344  1.0000
  C   C158      1.0  0.1425255904399378  0.4852774141670296  0.10502195461123155  1.0000
  C   C159      1.0  0.14886537814911802  0.4388692136511453  0.09151413957565067  1.0000
  C   C160      1.0  0.2020051297289456  0.4138170029952875  0.05558998798143481  1.0000
  C   C161      1.0  0.6469429777114045  0.5213247620733911  0.09190953563791737  1.0000
  C   C162      1.0  0.6411512603906075  0.4643107724946846  0.12075644273702575  1.0000
  C   C163      1.0  0.6092478976630674  0.45847101492410763  0.16683314075289954  1.0000
  C   C164      1.0  0.666561002044162  0.4159598166773435  0.10173191025806007  1.0000
  C   C165      1.0  0.6009976226389497  0.40624196248281663  0.1933699224387837  1.0000
  C   C166      1.0  0.659548820096127  0.36338396451929367  0.12796668703723668  1.0000
  C   C167      1.0  0.6257337672646132  0.3587953598934775  0.17367180539149257  1.0000
  C   C168      1.0  0.5721832972775402  0.3058841023123976  0.23792368835892574  1.0000
  C   C169      1.0  0.5511168357059617  0.24591056585728668  0.2094027496244593  1.0000
  C   C170      1.0  0.48462695586977134  0.3043067327453173  0.16065033919024782  1.0000
  C   C171      1.0  0.43802611117058643  0.3582299352404307  0.1474190889512244  1.0000
  C   C172      1.0  0.5085554198209722  0.25867294520374884  0.13920768499691857  1.0000
  C   C173      1.0  0.415614501293156  0.3662517754724279  0.11311784947496054  1.0000
  C   C174      1.0  0.4852809474991347  0.26719427571057963  0.10504276077486449  1.0000
  C   C175      1.0  0.4388456677545492  0.32074410100076994  0.09153710531808204  1.0000
  C   C176      1.0  0.4138266714156487  0.3285632435451618  0.05560103563513508  1.0000
  C   C177      1.0  0.5213284723441802  0.7398267313392568  0.09192430760059976  1.0000
  C   C178      1.0  0.46429938782593183  0.7737919137112926  0.12075475007616628  1.0000
  C   C179      1.0  0.45845444646386824  0.7654850504501953  0.1668232146397698  1.0000
  C   C180      1.0  0.4159532214294828  0.8157502332246127  0.10172257287543121  1.0000
  C   C181      1.0  0.4062226993601286  0.7994359888552297  0.19335425035366433  1.0000
  C   C182      1.0  0.3633754003226032  0.8491343583791463  0.1279422830564981  1.0000
  C   C183      1.0  0.35878355149161945  0.8418434061380395  0.17364818070976898  1.0000
  C   C184      1.0  0.3058618598066545  0.8840459178947456  0.23789589751402213  1.0000
  C   C185      1.0  0.24589485413778792  0.9936166002794594  0.20938954567974113  1.0000
  C   C186      1.0  0.304350507668417  0.050412095634854416  0.16066655385716902  1.0000
  C   C187      1.0  0.35830194808022503  0.05628571049486201  0.14741028884672855  1.0000
  C   C188      1.0  0.25871819820665115  0.09359837514038816  0.13923125729785107  1.0000
  C   C189      1.0  0.3663409135149323  0.10496979357402135  0.11310218701334658  1.0000
  C   C190      1.0  0.2672511504240163  0.14250843744379443  0.1050633975096247  1.0000
  C   C191      1.0  0.3208187321861118  0.14886380832717086  0.09153977745494761  1.0000
  C   C192      1.0  0.3286146463185915  0.2020147759241766  0.055615721978462325  1.0000
  C   C193      1.0  0.438542011458857  0.7499872604122828  0.749988210505478  1.0000
  C   C194      1.0  0.061506623471828406  0.4384939939115072  0.7499995393406779  1.0000
  C   C195      1.0  0.7500129730397019  0.061458664774356554  0.7500112832180508  1.0000
  C   C196      1.0  0.5614578780901809  0.25001314467006347  0.25001190096427456  1.0000
  C   C197      1.0  0.9384932652387405  0.5615064103325909  0.24999996792885779  1.0000
  C   C198      1.0  0.2499869162897141  0.9385413324368204  0.24998866096689198  1.0000
  O   O1        1.0  0.19740925277961446  0.06108543848001349  0.6122941293267773  1.0000
  O   O2        1.0  0.25620984869392777  0.026169133906698512  0.5488674088613622  1.0000
  O   O3        1.0  0.29595815407144943  0.12051230370462927  0.4568178201294446  1.0000
  O   O4        1.0  0.21642431152849892  0.06530779454514864  0.4599702496457569  1.0000
  O   O5        1.0  0.3783479778039903  0.8064223721817145  0.6964776978368407  1.0000
  O   O6        1.0  0.5012775638592899  0.8001442812080698  0.6949529971840533  1.0000
  O   O7        1.0  0.1291793986328145  0.19739141739008662  0.6123091784252922  1.0000
  O   O8        1.0  0.16879991625516771  0.2561281501970285  0.5488820585547745  1.0000
  O   O9        1.0  0.12666419639827353  0.29597477713475245  0.45681956805864143  1.0000
  O   O10       1.0  0.2582470276613904  0.21640769932815124  0.45990272557472184  1.0000
  O   O11       1.0  0.1187624889674694  0.37830469033482234  0.696474611101195  1.0000
  O   O12       1.0  0.0036853866983293  0.5013214557113131  0.6949499596192581  1.0000
  O   O13       1.0  0.061084311756836505  0.1292511085545627  0.6122657589161948  1.0000
  O   O14       1.0  0.026142663992459302  0.16880708991067914  0.5488530315636666  1.0000
  O   O15       1.0  0.12057694696736122  0.12668805142259743  0.45679188953837996  1.0000
  O   O16       1.0  0.0653816702758121  0.25825634730605174  0.4599512888679912  1.0000
  O   O17       1.0  0.8064471422222539  0.11873576616982019  0.69649966192803  1.0000
  O   O18       1.0  0.800134117840365  0.00364949887453754  0.6949427798096438  1.0000
  O   O19       1.0  0.3026088002715923  0.3708200742203332  0.8876913559202252  1.0000
  O   O20       1.0  0.24387144249769224  0.33119962494507865  0.9511189601186559  1.0000
  O   O21       1.0  0.20402351511057054  0.3733356591377087  0.04318022199334592  1.0000
  O   O22       1.0  0.28359300064023074  0.24175217791425047  0.04009771763103486  1.0000
  O   O23       1.0  0.1216953655761301  0.38123801828501064  0.8035256112360045  1.0000
  O   O24       1.0  0.9986784822706768  0.49631547900621364  0.8050501514401844  1.0000
  O   O25       1.0  0.3707479300872052  0.43891624918565253  0.8877348055359636  1.0000
  O   O26       1.0  0.3311925774401558  0.4738582721610599  0.9511471915486073  1.0000
  O   O27       1.0  0.373313267788987  0.379423723987344  0.04320695065234762  1.0000
  O   O28       1.0  0.24174264837751747  0.4346174018481578  0.04004912956489187  1.0000
  O   O29       1.0  0.3812647996045088  0.6935536439883023  0.8035002900316356  1.0000
  O   O30       1.0  0.49635176287516464  0.6998646823951306  0.805057007581098  1.0000
  O   O31       1.0  0.4389154858569385  0.30259116900158023  0.887706788813553  1.0000
  O   O32       1.0  0.4738314972316432  0.24379047831589418  0.9511333466628928  1.0000
  O   O33       1.0  0.379487553367106  0.20404208815816116  0.04318257508729319  1.0000
  O   O34       1.0  0.4346923674403911  0.2835751083270709  0.04003001155027162  1.0000
  O   O35       1.0  0.6935774178276759  0.12165165696893603  0.803522575721516  1.0000
  O   O36       1.0  0.699855860027661  0.9987220953037124  0.8050473462661715  1.0000
  O   O37       1.0  0.802590636549809  0.9389145587311634  0.3877058148581656  1.0000
  O   O38       1.0  0.7437900406354958  0.9738308633044781  0.4511325353235732  1.0000
  O   O39       1.0  0.7040421800050893  0.8794875152288953  0.5431820358445094  1.0000
  O   O40       1.0  0.7835755767628428  0.9346926092798288  0.5400289555236669  1.0000
  O   O41       1.0  0.6216514671975517  0.19357780372623526  0.3035226366591957  1.0000
  O   O42       1.0  0.49872232547013345  0.19985571600311397  0.30504694700088214  1.0000
  O   O43       1.0  0.8708204909162236  0.8026089876922596  0.3876909330444606  1.0000
  O   O44       1.0  0.8311999734934831  0.7438718474332761  0.45111818773027335  1.0000
  O   O45       1.0  0.8733356931307624  0.7040248126243756  0.5431805109415961  1.0000
  O   O46       1.0  0.7417533062155358  0.7835925270574223  0.5400969955839373  1.0000
  O   O47       1.0  0.8812374005815684  0.6216957147475174  0.3035255003685575  1.0000
  O   O48       1.0  0.996314947797444  0.4986783636413393  0.3050501984548077  1.0000
  O   O49       1.0  0.9389155779918212  0.8707488890757421  0.38773448736885285  1.0000
  O   O50       1.0  0.9738572257561985  0.8311929077196183  0.45114721472138825  1.0000
  O   O51       1.0  0.8794233877280249  0.8733113604780133  0.5432084033509808  1.0000
  O   O52       1.0  0.9346182194728456  0.7417436503242457  0.5400489574170635  1.0000
  O   O53       1.0  0.19355274752640383  0.8812642314604847  0.30350058435701743  1.0000
  O   O54       1.0  0.19986532674194285  0.9963506766142917  0.30505725258628746  1.0000
  O   O55       1.0  0.6973910890778326  0.6291807383140554  0.11230862073422533  1.0000
  O   O56       1.0  0.7561280023042302  0.668800958414913  0.0488812395620782  1.0000
  O   O57       1.0  0.7959745947911401  0.6266642354417373  0.9568197404659244  1.0000
  O   O58       1.0  0.7164068888888053  0.7582474118448775  0.9599023613692028  1.0000
  O   O59       1.0  0.878304968500416  0.618761800648514  0.1964742447379493  1.0000
  O   O60       1.0  0.001321407477981  0.503684518624084  0.1949500948448701  1.0000
  O   O61       1.0  0.6292519592422182  0.5610837480255243  0.11226513864897915  1.0000
  O   O62       1.0  0.6688077566363831  0.5261415467724645  0.048852664425346845  1.0000
  O   O63       1.0  0.6266866221592836  0.6205758661909118  0.9567934304480021  1.0000
  O   O64       1.0  0.7582559058520746  0.5653823140345156  0.9599504425832851  1.0000
  O   O65       1.0  0.6187350895253019  0.3064467606749163  0.19649951933800483  1.0000
  O   O66       1.0  0.5036485712013814  0.30013513653839413  0.19494284839285578  1.0000
  O   O67       1.0  0.5610844028536377  0.6974092352425174  0.11229271845598272  1.0000
  O   O68       1.0  0.5261683912793131  0.7562103333802526  0.04886602579134792  1.0000
  O   O69       1.0  0.6205118910155818  0.7959584947827096  0.9568173224933364  1.0000
  O   O70       1.0  0.5653079670553892  0.7164247110255741  0.9599701465237943  1.0000
  O   O71       1.0  0.3064224715017474  0.8783483402422406  0.19647736846342673  1.0000
  O   O72       1.0  0.3001444746677251  0.0012773165968980183  0.19495294662319648  1.0000
  O   O73       1.0  0.1598603183262668  0.15984366162673785  0.5204246791676682  1.0000
  O   O74       1.0  0.3401561087040221  0.3401390513151554  0.9795760456755507  1.0000
  O   O75       1.0  0.840139571422391  0.8401563360035597  0.47957556711737953  1.0000
  O   O76       1.0  0.6598437812442484  0.6598605388631003  0.020424335424799243  1.0000
