data_image0
_chemical_formula_structural       Zn2H40C40S4N4O12
_chemical_formula_sum              "Zn2 H40 C40 S4 N4 O12"
_cell_length_a       7.859988556515996
_cell_length_b       11.928575268755717
_cell_length_c       12.0769
_cell_angle_alpha    64.0500432828581
_cell_angle_beta     89.34273059905382
_cell_angle_gamma    89.34581898765646

_space_group_name_H-M_alt    "P 1"
_space_group_IT_number       1

loop_
  _space_group_symop_operation_xyz
  'x, y, z'

loop_
  _atom_site_type_symbol
  _atom_site_label
  _atom_site_symmetry_multiplicity
  _atom_site_fract_x
  _atom_site_fract_y
  _atom_site_fract_z
  _atom_site_occupancy
  Zn  Zn1       1.0  0.2488362447547843  0.2249547429060641  0.7746855845263241  1.0000
  Zn  Zn2       1.0  0.7511660930956623  0.7750420827331865  0.22531899932096167  1.0000
  H   H1        1.0  0.12351997789507155  0.9812342809967944  0.8728737352428553  1.0000
  H   H2        1.0  0.37618815093947683  0.1276196139265977  0.0161800996974151  1.0000
  H   H3        1.0  0.8764797971476169  0.018764409335815902  0.12712509363332464  1.0000
  H   H4        1.0  0.6238116422105764  0.8723772117126459  0.9838228470940323  1.0000
  H   H5        1.0  0.3165187492496031  0.006812657210417701  0.8350744687856064  1.0000
  H   H6        1.0  0.18282567348943254  0.16465895058982483  0.9905118617230073  1.0000
  H   H7        1.0  0.6834797806039249  0.9931832360821531  0.164923922246146  1.0000
  H   H8        1.0  0.8171753739034529  0.8353397397427926  0.009491925816391023  1.0000
  H   H9        1.0  0.4048173942970621  0.4110203733304516  0.8658103779296767  1.0000
  H   H10       1.0  0.0909300887430149  0.1315186877536121  0.5917249590600308  1.0000
  H   H11       1.0  0.5951887153355884  0.5889811140422125  0.13419216290261457  1.0000
  H   H12       1.0  0.9090824279090342  0.8684781378856385  0.40827872076705757  1.0000
  H   H13       1.0  0.5141439612795864  0.6316816597627266  0.7669687854436021  1.0000
  H   H14       1.0  0.9868420760600289  0.23012087587485303  0.37248985384847794  1.0000
  H   H15       1.0  0.4858647111608293  0.36831796291657076  0.23303371417036794  1.0000
  H   H16       1.0  0.013176820450382798  0.769874085071031  0.6275104441546304  1.0000
  H   H17       1.0  0.4845736142051607  0.7548110920654951  0.5368019381580068  1.0000
  H   H18       1.0  0.0217840579900894  0.46237682565305965  0.24851923443255686  1.0000
  H   H19       1.0  0.5154197538181294  0.24519226000053612  0.46320154791278867  1.0000
  H   H20       1.0  0.9782271863117631  0.537619999986191  0.7514836268666231  1.0000
  H   H21       1.0  0.3458576395143353  0.658562146971363  0.418515392522842  1.0000
  H   H22       1.0  0.1598304758527007  0.5828966195909757  0.3431665971115478  1.0000
  H   H23       1.0  0.654126849218585  0.3414384080546142  0.5814926808607269  1.0000
  H   H24       1.0  0.8401629464926685  0.4171011383949548  0.6568393063803342  1.0000
  H   H25       1.0  0.8553470074459923  0.0460513996981078  0.817731409174428  1.0000
  H   H26       1.0  0.6438492740196651  0.181144704633148  0.9522843619754583  1.0000
  H   H27       1.0  0.1446527494893388  0.9539491553278767  0.18225998967824336  1.0000
  H   H28       1.0  0.35614918340441903  0.818858647432883  0.04771080582817414  1.0000
  H   H29       1.0  0.8037821412826744  0.1581129445306573  0.6663053826520056  1.0000
  H   H30       1.0  0.6951890254627315  0.3350574273582865  0.8429119992468443  1.0000
  H   H31       1.0  0.1962112539016516  0.8418876104953199  0.33368689172343835  1.0000
  H   H32       1.0  0.30481453041583967  0.6649449923610575  0.15708270543667163  1.0000
  H   H33       1.0  0.4313853587780159  0.9007951386010405  0.7238881521193007  1.0000
  H   H34       1.0  0.0659715382182213  0.2730405230658022  0.1021993309426463  1.0000
  H   H35       1.0  0.5686092997028284  0.0992063487716237  0.2761053659075969  1.0000
  H   H36       1.0  0.9340256468556659  0.7269628290002288  0.8977983304413046  1.0000
  H   H37       1.0  0.7989955644861482  0.054208500824955805  0.428004958069792  1.0000
  H   H38       1.0  0.7020299913887769  0.5740971315997498  0.943119771180193  1.0000
  H   H39       1.0  0.20099908494101026  0.9457939188943882  0.5719889850806581  1.0000
  H   H40       1.0  0.2979671846314318  0.425907152812961  0.056875003219062095  1.0000
  C   C1        1.0  0.3923913088155686  0.47027659909549163  0.7672897394559117  1.0000
  C   C2        1.0  0.1055575456807176  0.23091430290182302  0.532394185775594  1.0000
  C   C3        1.0  0.6076148098707606  0.5297239559304856  0.23271651638813035  1.0000
  C   C4        1.0  0.8944486001666547  0.7690834550841146  0.467609138643688  1.0000
  C   C5        1.0  0.4527023444533071  0.5922247481512883  0.7117688667277021  1.0000
  C   C6        1.0  0.0481212930573136  0.2863199368673506  0.4111647004306676  1.0000
  C   C7        1.0  0.5472986938858994  0.40777487452800903  0.2882345179081796  1.0000
  C   C8        1.0  0.9518899693519034  0.7136750240785333  0.5888397947025936  1.0000
  C   C9        1.0  0.43493751237033956  0.6605182103116434  0.5847217855466837  1.0000
  C   C10       1.0  0.0687926351399355  0.4145185380839039  0.3424614801547818  1.0000
  C   C11       1.0  0.5650609541074232  0.33948420940770063  0.4152845495122364  1.0000
  C   C12       1.0  0.9312135197611155  0.5854782875553468  0.6575414191409623  1.0000
  C   C13       1.0  0.3544066280158447  0.6064066735416845  0.518158440791275  1.0000
  C   C14       1.0  0.14900020256547464  0.48227123916829845  0.3956807809755531  1.0000
  C   C15       1.0  0.6455841953070378  0.3935966785243394  0.481847548358985  1.0000
  C   C16       1.0  0.8509995815308927  0.5177265188176322  0.6043259030476803  1.0000
  C   C17       1.0  0.2940925859399997  0.4845060741667098  0.5804792433311192  1.0000
  C   C18       1.0  0.20639452825952995  0.4199149606833147  0.5169503920727435  1.0000
  C   C19       1.0  0.7059046444022884  0.5154926161659077  0.41952954086806216  1.0000
  C   C20       1.0  0.7936001302213143  0.5800865266893496  0.4830538903059391  1.0000
  C   C21       1.0  0.5858896753167571  0.0794918781661451  0.7851877523185848  1.0000
  C   C22       1.0  0.9132109344315111  0.21468401184955613  0.9198849524288448  1.0000
  C   C23       1.0  0.4141100997259315  0.9205068121664723  0.21481273261171913  1.0000
  C   C24       1.0  0.0867913762578993  0.7853156108297412  0.08010931441024381  1.0000
  C   C25       1.0  0.7658141097051471  0.0689973839057885  0.741547100583837  1.0000
  C   C26       1.0  0.7330537695923169  0.2583169042527587  0.9305880072194628  1.0000
  C   C27       1.0  0.23418056688306177  0.931002238773509  0.2584472232500943  1.0000
  C   C28       1.0  0.2669485139360503  0.7416855154665855  0.0694067069631997  1.0000
  C   C29       1.0  0.6304053588722311  0.9761091712820475  0.5862570634414084  1.0000
  C   C30       1.0  0.8688300242174876  0.4131955381411672  0.024055365466679694  1.0000
  C   C31       1.0  0.3695880182047305  0.0238932484372967  0.41373606118112605  1.0000
  C   C32       1.0  0.13116716085639984  0.5868078139248638  0.975941467890209  1.0000
  C   C33       1.0  0.4614772109051586  0.9451338174430433  0.625899329011965  1.0000
  C   C34       1.0  0.0370319944278918  0.37235222701257  0.05681056039177424  1.0000
  C   C35       1.0  0.5385199741687288  0.0548695346229877  0.37409419223669  1.0000
  C   C36       1.0  0.9629651815923098  0.627652057400141  0.9431875261157219  1.0000
  C   C37       1.0  0.6679961473592543  0.0303115230009325  0.4597704216126887  1.0000
  C   C38       1.0  0.8326242153710126  0.5414510125053624  0.9679308207025912  1.0000
  C   C39       1.0  0.33199976536442943  0.9696918290650984  0.5402222811080434  1.0000
  C   C40       1.0  0.16737296970287474  0.4585523395606685  0.03206684068135959  1.0000
  S   S1        1.0  0.7964183400367519  0.9436896124315552  0.6953218460598122  1.0000
  S   S2        1.0  0.7021080637225695  0.30334924902668803  0.05553740575030019  1.0000
  S   S3        1.0  0.2035776089016537  0.0563100102477421  0.3046732963020347  1.0000
  S   S4        1.0  0.2978904027551935  0.6966531706926631  0.944456508902725  1.0000
  N   N1        1.0  0.3161772003440007  0.41790015950201825  0.7029077460311156  1.0000
  N   N2        1.0  0.1817602338099533  0.29639021338708466  0.5837931051358964  1.0000
  N   N3        1.0  0.6838225565913234  0.582100395523959  0.2970993853356915  1.0000
  N   N4        1.0  0.8182395412327351  0.7036084769455258  0.41621234795675827  1.0000
  O   O1        1.0  0.19927887160147154  0.040793896754415505  0.8062497143970617  1.0000
  O   O2        1.0  0.2999622632371769  0.1937248584226836  0.9564419380945851  1.0000
  O   O3        1.0  0.8007209124948957  0.9592038612315151  0.19374868935557288  1.0000
  O   O4        1.0  0.7000400746132769  0.806271967216567  0.04356264575270061  1.0000
  O   O5        1.0  0.5135353393284348  0.18531975307823254  0.7325869896166496  1.0000
  O   O6        1.0  0.9846236779270754  0.2671415656044189  0.8149254354029125  1.0000
  O   O7        1.0  0.4864631633640499  0.814678937254385  0.2674143328398486  1.0000
  O   O8        1.0  0.015378687084414403  0.7328524629947779  0.18507207688431743  1.0000
  O   O9        1.0  0.5178638901675328  0.9831381329228465  0.8700399528151479  1.0000
  O   O10       1.0  0.9823737584064888  0.1298675017785627  0.015251087084912693  1.0000
  O   O11       1.0  0.4821359029825132  0.0168586927163972  0.1299588538409964  1.0000
  O   O12       1.0  0.0176272708790393  0.8701330532474145  0.9847494105662732  1.0000
