data_image0
_chemical_formula_structural       Ni2H48C60N8O8
_chemical_formula_sum              "Ni2 H48 C60 N8 O8"
_cell_length_a       11.331533259335151
_cell_length_b       11.177614215157172
_cell_length_c       12.628323567847339
_cell_angle_alpha    89.35674194465551
_cell_angle_beta     98.07008616341413
_cell_angle_gamma    112.71453273171859

_space_group_name_H-M_alt    "P 1"
_space_group_IT_number       1

loop_
  _space_group_symop_operation_xyz
  'x, y, z'

loop_
  _atom_site_type_symbol
  _atom_site_label
  _atom_site_symmetry_multiplicity
  _atom_site_fract_x
  _atom_site_fract_y
  _atom_site_fract_z
  _atom_site_occupancy
  Ni  Ni1       1.0  0.5374222915675021  0.21305401262970483  0.7873227551240516  1.0000
  Ni  Ni2       1.0  0.46258272851910925  0.7869468092285246  0.21268212433394496  1.0000
  H   H1        1.0  0.5767307860246477  0.9534900559838845  0.5306781819836457  1.0000
  H   H2        1.0  0.4232699467463235  0.04651514986542791  0.4693421195002684  1.0000
  H   H3        1.0  0.9075080292623029  0.44663542350807717  0.8944000906104888  1.0000
  H   H4        1.0  0.09249559811676274  0.5533647756024819  0.10559036770798255  1.0000
  H   H5        1.0  0.24953371114976622  0.5381603275185611  0.046978551543318786  1.0000
  H   H6        1.0  0.7504660752537617  0.4618271832945524  0.9530144895093496  1.0000
  H   H7        1.0  0.738623875151845  0.26997179520927966  0.6379432627547954  1.0000
  H   H8        1.0  0.26136762490123283  0.7300241797250775  0.36205450962350477  1.0000
  H   H9        1.0  0.4267466044828083  0.4250341700993445  0.5899610644304472  1.0000
  H   H10       1.0  0.5732638870184771  0.5749713868650587  0.4100508192019204  1.0000
  H   H11       1.0  0.5709316814472701  0.7485268874159416  0.4559244962905352  1.0000
  H   H12       1.0  0.4290812660189189  0.25148230384159126  0.5440980036229204  1.0000
  H   H13       1.0  0.3957102228291518  0.7557555551796894  0.7946899895790336  1.0000
  H   H14       1.0  0.6042697148480087  0.24423513561891488  0.20531910701594566  1.0000
  H   H15       1.0  0.7723855857340851  0.3463189408338891  0.4575914864022578  1.0000
  H   H16       1.0  0.22760603262685908  0.6536752223253044  0.542401523458018  1.0000
  H   H17       1.0  0.6383306022796303  0.5425959896422085  0.7903414722375925  1.0000
  H   H18       1.0  0.36168038136402453  0.4574087063359613  0.20966649447713334  1.0000
  H   H19       1.0  0.4039026879727103  0.4543361143696885  0.9928494500392798  1.0000
  H   H20       1.0  0.5960969011503252  0.5456484747006697  0.0071443245545737165  1.0000
  H   H21       1.0  0.7895077312163892  0.1327842603484726  0.804215780233491  1.0000
  H   H22       1.0  0.21050311004538705  0.8672322118740324  0.1957851892667434  1.0000
  H   H23       1.0  0.3912823466776488  0.5478241331899056  0.7222090794676885  1.0000
  H   H24       1.0  0.6087031151951267  0.4521696600156986  0.2777951244165989  1.0000
  H   H25       1.0  0.9746991225911189  0.3385293354272107  0.7705257629408138  1.0000
  H   H26       1.0  0.02530384225646287  0.661478628114665  0.22946313505609334  1.0000
  H   H27       1.0  0.04478648462688278  0.22131588751170736  0.07123415726425719  1.0000
  H   H28       1.0  0.9552163484671395  0.7786889752114161  0.9287626086408661  1.0000
  H   H29       1.0  0.13713922425150568  0.26283883776651606  0.7120114844574273  1.0000
  H   H30       1.0  0.8628628443802667  0.737174067950576  0.2879726232218616  1.0000
  H   H31       1.0  0.8351428405769924  0.6753828200428486  0.6726851138306739  1.0000
  H   H32       1.0  0.16485669353340168  0.3246133065038633  0.3273111760380586  1.0000
  H   H33       1.0  0.9509388479829894  0.3754764554355744  0.23706455207421578  1.0000
  H   H34       1.0  0.04905277037795491  0.6245177077236123  0.7629284577860671  1.0000
  H   H35       1.0  0.806605115826649  0.2864362634783148  0.2905064531447862  1.0000
  H   H36       1.0  0.1933880808921912  0.7135550381595193  0.7094859038668416  1.0000
  H   H37       1.0  0.9406752205767646  0.2414652213446473  0.31679846949941737  1.0000
  H   H38       1.0  0.05931818798409675  0.7585289622412926  0.6831947393859251  1.0000
  H   H39       1.0  0.7577092664204983  0.0893617165138281  0.13432258458112048  1.0000
  H   H40       1.0  0.24228649000958308  0.9106314474366287  0.8656740407786712  1.0000
  H   H41       1.0  0.5819268485720173  0.18959472833390117  0.03708868593143677  1.0000
  H   H42       1.0  0.4180778111257696  0.8104100553293136  0.9629122425359921  1.0000
  H   H43       1.0  0.2802276737028535  0.12330034623700926  0.1915966102332191  1.0000
  H   H44       1.0  0.7197724959336042  0.8767044261540066  0.8084022352566645  1.0000
  H   H45       1.0  0.2654155552162151  0.25911534042041495  0.12575767326679707  1.0000
  H   H46       1.0  0.734583719320284  0.7408894217572166  0.8742410727105534  1.0000
  H   H47       1.0  0.3332065548644891  0.16292368573500224  0.06565928541726858  1.0000
  H   H48       1.0  0.6667965191946337  0.8370839793468932  0.9343415031913619  1.0000
  C   C1        1.0  0.3739858462137419  0.29849356319293446  0.8206713496319932  1.0000
  C   C2        1.0  0.6260048843280117  0.7015005698555469  0.17932235342320976  1.0000
  C   C3        1.0  0.489727816169143  0.9927831472843777  0.7092708438626186  1.0000
  C   C4        1.0  0.5102703143218222  0.007215363247723903  0.2907451238335311  1.0000
  C   C5        1.0  0.5367442080188667  0.8642069277122388  0.5723384099502197  1.0000
  C   C6        1.0  0.4632586170946809  0.135794495937489  0.4276796998897438  1.0000
  C   C7        1.0  0.27928994312679833  0.3499759037630241  0.8503281339308086  1.0000
  C   C8        1.0  0.7207055773872568  0.6500243427084981  0.14965587982274534  1.0000
  C   C9        1.0  0.9125270807752416  0.4956659933591112  0.5675467666761873  1.0000
  C   C10       1.0  0.08746326865124124  0.5043272087977683  0.4324452980711796  1.0000
  C   C11       1.0  0.9594178438903925  0.41374678099543144  0.40633757606418897  1.0000
  C   C12       1.0  0.0405712366016217  0.5862454601591336  0.5936535435702692  1.0000
  C   C13       1.0  0.996557652809379  0.47234118702408506  0.9514984102944478  1.0000
  C   C14       1.0  0.0034461438429360626  0.5276570610299841  0.04849283445813769  1.0000
  C   C15       1.0  0.4814511589451413  0.63223811458203  0.5842223973680374  1.0000
  C   C16       1.0  0.5185548934601912  0.3677672918288478  0.4157929522389237  1.0000
  C   C17       1.0  0.22137429178018664  0.47421899334706563  0.9754825722331615  1.0000
  C   C18       1.0  0.7786271653995344  0.5257753020565588  0.02451073955749913  1.0000
  C   C19       1.0  0.9045585637000285  0.048544107400175604  0.9862541323706676  1.0000
  C   C20       1.0  0.09544353628652388  0.9514588139504097  0.013742527748590295  1.0000
  C   C21       1.0  0.7390469894473383  0.3615206103934695  0.6656321347971214  1.0000
  C   C22       1.0  0.26094918338601053  0.6384783373505201  0.33436540160265327  1.0000
  C   C23       1.0  0.4752026508215508  0.5085754900664836  0.5437198909167761  1.0000
  C   C24       1.0  0.5248080670832921  0.4914329090513547  0.4562944300042061  1.0000
  C   C25       1.0  0.09682371025253637  0.438389775485966  0.9158552953275955  1.0000
  C   C26       1.0  0.9031824342689988  0.5616074529326197  0.08413936589943917  1.0000
  C   C27       1.0  0.5340703366778783  0.7487048105711336  0.5311043148317649  1.0000
  C   C28       1.0  0.4659393252503677  0.2513005571039102  0.468914603655115  1.0000
  C   C29       1.0  0.4338157080928439  0.7528185502931918  0.7206632470573594  1.0000
  C   C30       1.0  0.5661725118875012  0.2471750745792036  0.27934918243900597  1.0000
  C   C31       1.0  0.873620159981151  0.4120876601787059  0.4763666151280076  1.0000
  C   C32       1.0  0.12636966817987627  0.5879064825537341  0.5236261957072086  1.0000
  C   C33       1.0  0.6910897195258201  0.5059504246981773  0.7432987794964275  1.0000
  C   C34       1.0  0.3089160191067251  0.49405237832724674  0.2567046203325346  1.0000
  C   C35       1.0  0.48551902311011463  0.8677202990586251  0.6668249511570534  1.0000
  C   C36       1.0  0.5144738987735876  0.1322762190340683  0.33319041319057147  1.0000
  C   C37       1.0  0.3095718946984647  0.42875719916346355  0.9442633872326309  1.0000
  C   C38       1.0  0.690423408924495  0.5712302804801225  0.05572836354993879  1.0000
  C   C39       1.0  0.7579586379676686  0.1385893449234032  0.8803064342234134  1.0000
  C   C40       1.0  0.24204946814469955  0.8614222835517182  0.11969337859217427  1.0000
  C   C41       1.0  0.4323314201766377  0.6370054079379271  0.6802029273704517  1.0000
  C   C42       1.0  0.5676632409415987  0.3629912698628388  0.3198070870501012  1.0000
  C   C43       1.0  0.0693085534157092  0.3638589303035573  0.8192498760665499  1.0000
  C   C44       1.0  0.9306961517822571  0.6361442405578045  0.18073836280836988  1.0000
  C   C45       1.0  0.02632994289304949  0.1234622440859354  0.04167214071956949  1.0000
  C   C46       1.0  0.9736716139857435  0.8765416775322096  0.9583228873651988  1.0000
  C   C47       1.0  0.12544560424622384  0.0769620150683608  0.05676504435179199  1.0000
  C   C48       1.0  0.8745570170057775  0.9230399657066639  0.9432308696796168  1.0000
  C   C49       1.0  0.1591043834695611  0.3209605987480302  0.7863843420929653  1.0000
  C   C50       1.0  0.8408938296251308  0.6790396584662872  0.21360076290562796  1.0000
  C   C51       1.0  0.7890743640386829  0.5730481489401525  0.6861112147751384  1.0000
  C   C52       1.0  0.21092502264076526  0.42694986897106446  0.3138866667818262  1.0000
  C   C53       1.0  0.9123343290797622  0.325126199951761  0.3074600866798036  1.0000
  C   C54       1.0  0.08765690816591125  0.6748670323158235  0.6925312848726431  1.0000
  C   C55       1.0  0.7419404401527104  0.11866499754770388  0.05339067499922123  1.0000
  C   C56       1.0  0.25806202750342777  0.8813339421005679  0.9466107288180577  1.0000
  C   C57       1.0  0.6542575661113119  0.16637638886574277  0.004399878892620309  1.0000
  C   C58       1.0  0.3457447748403339  0.8336293348436216  0.9956008039301448  1.0000
  C   C59       1.0  0.2578448499656858  0.15949748933813618  0.11316414908375087  1.0000
  C   C60       1.0  0.7421583715243828  0.8405082843792611  0.8868350478366477  1.0000
  N   N1        1.0  0.8189014653214883  0.47996023202050947  0.6368383486809177  1.0000
  N   N2        1.0  0.18109394528131154  0.5200368539402687  0.3631559111031989  1.0000
  N   N3        1.0  0.8072913824543236  0.1016078191724716  0.9737429833844258  1.0000
  N   N4        1.0  0.19271197918592256  0.8983960830777633  0.0262538291403018  1.0000
  N   N5        1.0  0.6615493469634403  0.3746003069974718  0.7302294932650141  1.0000
  N   N6        1.0  0.3384533398154872  0.6254014947015633  0.26977355513343326  1.0000
  N   N7        1.0  0.6657123272593779  0.17875698153406458  0.8970938975608785  1.0000
  N   N8        1.0  0.33429666667218066  0.821254677051762  0.10290522205979608  1.0000
  O   O1        1.0  0.3638185345540065  0.2524959983076299  0.7262602219756997  1.0000
  O   O2        1.0  0.6361896192902351  0.7475041125884729  0.2737362828575627  1.0000
  O   O3        1.0  0.46725951268040694  0.30070343621427037  0.8927749168359538  1.0000
  O   O4        1.0  0.5327356351149888  0.6992909070797353  0.10721294212230957  1.0000
  O   O5        1.0  0.4226589825694659  0.9973304425471381  0.7806754890700416  1.0000
  O   O6        1.0  0.5773442090978165  0.002671951788862301  0.21934267366285096  1.0000
  O   O7        1.0  0.5668819732602586  0.09866934362879219  0.674190613695586  1.0000
  O   O8        1.0  0.4331144780578883  0.9013273545987204  0.32581959975002656  1.0000
