data_image0
_chemical_formula_structural       Zn12H100C124N28O24
_chemical_formula_sum              "Zn12 H100 C124 N28 O24"
_cell_length_a       13.517336945837483
_cell_length_b       16.310038535001155
_cell_length_c       17.81958552024843
_cell_angle_alpha    89.99995862599832
_cell_angle_beta     94.4164058269087
_cell_angle_gamma    90.00001489483908

_space_group_name_H-M_alt    "P 1"
_space_group_IT_number       1

loop_
  _space_group_symop_operation_xyz
  'x, y, z'

loop_
  _atom_site_type_symbol
  _atom_site_label
  _atom_site_symmetry_multiplicity
  _atom_site_fract_x
  _atom_site_fract_y
  _atom_site_fract_z
  _atom_site_occupancy
  Zn  Zn1       1.0  0.9987178139293746  0.2888844773678585  0.7463739189762961  1.0000
  Zn  Zn2       1.0  0.5012819409350584  0.7888838528710594  0.7536261311434842  1.0000
  Zn  Zn3       1.0  0.0012832963994853003  0.7111171656078528  0.2536268418875096  1.0000
  Zn  Zn4       1.0  0.4987176822875695  0.21111595074695802  0.24637342285734584  1.0000
  Zn  Zn5       1.0  0.7390025892226432  0.2873139005243247  0.07874450070267612  1.0000
  Zn  Zn6       1.0  0.7609976509461377  0.7873131998584102  0.4212559201852031  1.0000
  Zn  Zn7       1.0  0.26099554845476547  0.7126859030937851  0.9212544077048079  1.0000
  Zn  Zn8       1.0  0.23900271739027087  0.21268660375921664  0.5787447985176257  1.0000
  Zn  Zn9       1.0  0.7675465820884283  0.2053769179895752  0.9187121666996135  1.0000
  Zn  Zn10      1.0  0.7324538924305344  0.705377091948975  0.581287418410149  1.0000
  Zn  Zn11      1.0  0.23245452355792653  0.7946234987481234  0.08128691035395973  1.0000
  Zn  Zn12      1.0  0.26754647278431065  0.29462271166909915  0.418712177752255  1.0000
  H   H1        1.0  0.9252745393841052  0.22456419038950065  0.159228537035915  1.0000
  H   H2        1.0  0.5747234560741745  0.7245641261857259  0.3407706754779057  1.0000
  H   H3        1.0  0.0747235982933105  0.7754356132286092  0.8407703713715692  1.0000
  H   H4        1.0  0.4252739396111025  0.275436290551653  0.6592281907678057  1.0000
  H   H5        1.0  0.10612495248519592  0.22530105695277317  0.1970490651937666  1.0000
  H   H6        1.0  0.393873061762079  0.7253004779684957  0.30295102171581334  1.0000
  H   H7        1.0  0.8938724463216444  0.7746993597841654  0.8029509235923555  1.0000
  H   H8        1.0  0.6061250805976853  0.2746993256489532  0.6970495705022941  1.0000
  H   H9        1.0  0.22794204149538896  0.23023242827651572  0.09690931951577401  1.0000
  H   H10       1.0  0.2720574595241843  0.7302329705254637  0.403091409792097  1.0000
  H   H11       1.0  0.7720575864095879  0.769767375340834  0.9030919182956937  1.0000
  H   H12       1.0  0.7279406843963585  0.269766833091758  0.5969097436962159  1.0000
  H   H13       1.0  0.16439144342577086  0.23911617967143434  0.9631200557234293  1.0000
  H   H14       1.0  0.3356090580934535  0.7391170238712733  0.5368803824017121  1.0000
  H   H15       1.0  0.8356089249107869  0.7608848501848728  0.03688066297900151  1.0000
  H   H16       1.0  0.6643913102430333  0.26088339286569356  0.4631203363009178  1.0000
  H   H17       1.0  0.781639966614115  0.23570249963383122  0.7036775086889904  1.0000
  H   H18       1.0  0.7183605185712877  0.7357006619219961  0.7963231793159622  1.0000
  H   H19       1.0  0.218360401722606  0.7642997564611493  0.29632321001304274  1.0000
  H   H20       1.0  0.2816398497648933  0.2642973023376243  0.2036775393874564  1.0000
  H   H21       1.0  0.0862781162614468  0.2210778338344426  0.3367733998038461  1.0000
  H   H22       1.0  0.4137206389273019  0.7210773691113773  0.16322673200320995  1.0000
  H   H23       1.0  0.9137200260983178  0.7789219697830064  0.6632271924142614  1.0000
  H   H24       1.0  0.5862797262875431  0.2789224345066971  0.8367728641592009  1.0000
  H   H25       1.0  0.9062996901819532  0.20870702886512765  0.2966544401618664  1.0000
  H   H26       1.0  0.5936990464447122  0.7087064638060172  0.20334594732688066  1.0000
  H   H27       1.0  0.09369845529921858  0.7912915485132077  0.7033472745970573  1.0000
  H   H28       1.0  0.4063028011938528  0.29129395293173843  0.7966531718882666  1.0000
  H   H29       1.0  0.7823453563605652  0.20590931321816447  0.3952282611098283  1.0000
  H   H30       1.0  0.717652637577899  0.7059094655100752  0.10477208602956271  1.0000
  H   H31       1.0  0.21765353267353046  0.7940886510406743  0.6047740570810731  1.0000
  H   H32       1.0  0.2823462389702414  0.2940909512278724  0.8952257419988783  1.0000
  H   H33       1.0  0.841608624313899  0.22332921343857498  0.5291781707245207  1.0000
  H   H34       1.0  0.6583896318164619  0.7233284517079711  0.9708223988111796  1.0000
  H   H35       1.0  0.1583917487047799  0.7766699770590579  0.4708242317891305  1.0000
  H   H36       1.0  0.3416085027393123  0.2766707387912463  0.029175387056085404  1.0000
  H   H37       1.0  0.2205580302871724  0.2512744096683903  0.791568048144434  1.0000
  H   H38       1.0  0.2794417307039793  0.7512744936288984  0.7084317786726757  1.0000
  H   H39       1.0  0.7794430816022384  0.7487253939490872  0.20843327399017403  1.0000
  H   H40       1.0  0.7205564069734365  0.24872530998921158  0.29156712973480137  1.0000
  H   H41       1.0  0.10982245709668348  0.42740155492537474  0.679385856990834  1.0000
  H   H42       1.0  0.39017734927635667  0.9274015743609142  0.8206144169956815  1.0000
  H   H43       1.0  0.8901771692476644  0.5725994749308684  0.3206148195500235  1.0000
  H   H44       1.0  0.6098274741349883  0.07259884237599581  0.1793876772168019  1.0000
  H   H45       1.0  0.10721048048007019  0.5821884370530412  0.6767704337330684  1.0000
  H   H46       1.0  0.39278849488867  0.08218713893037942  0.8232288991920385  1.0000
  H   H47       1.0  0.8927876571976511  0.417813819042408  0.32322847467361987  1.0000
  H   H48       1.0  0.6072185560601112  0.917813277806495  0.1767738827753718  1.0000
  H   H49       1.0  0.9767153707531121  0.6551901709852432  0.7437200572294174  1.0000
  H   H50       1.0  0.523282863741649  0.1551894593044381  0.7562788726382976  1.0000
  H   H51       1.0  0.023281279818455396  0.3448108588718527  0.2562776443141033  1.0000
  H   H52       1.0  0.4767226954184807  0.8448085049560705  0.24372101865571247  1.0000
  H   H53       1.0  0.8567425305800143  0.5726495535613695  0.8123639300428779  1.0000
  H   H54       1.0  0.6432571689237037  0.07265014793328821  0.6876356988902401  1.0000
  H   H55       1.0  0.1432570910819848  0.42735147629553444  0.18763506268735605  1.0000
  H   H56       1.0  0.3567454191461508  0.9273490425660783  0.312362901216666  1.0000
  H   H57       1.0  0.8717068664804585  0.41842797023877415  0.8112950456084604  1.0000
  H   H58       1.0  0.6282921739404159  0.9184280372574493  0.6887031946164583  1.0000
  H   H59       1.0  0.12829275830302578  0.581572446498356  0.18870506966238312  1.0000
  H   H60       1.0  0.3717081865920804  0.08157176636129292  0.3112947177353221  1.0000
  H   H61       1.0  0.7900460340539367  0.0477139267960638  0.8410374959854466  1.0000
  H   H62       1.0  0.7099544012379226  0.547714647892022  0.6589621912632992  1.0000
  H   H63       1.0  0.2099535891686841  0.9522858768219536  0.1589620580153905  1.0000
  H   H64       1.0  0.29004596553777867  0.4522857688451652  0.3410379661691181  1.0000
  H   H65       1.0  0.731347815281964  0.9023618052457325  0.8512852544795777  1.0000
  H   H66       1.0  0.7686512242631449  0.40236184407839914  0.6487141186939454  1.0000
  H   H67       1.0  0.268650323956301  0.0976386114914902  0.1487142151979199  1.0000
  H   H68       1.0  0.23134765696726592  0.5976379595395541  0.3512853931453179  1.0000
  H   H69       1.0  0.6255583161302525  0.8658094175102492  0.955205614599464  1.0000
  H   H70       1.0  0.8744407143204994  0.3658095608812176  0.5447937822538337  1.0000
  H   H71       1.0  0.374440566661022  0.13419099922681  0.04479445850981281  1.0000
  H   H72       1.0  0.1255581669099115  0.634190242736736  0.45520572958542976  1.0000
  H   H73       1.0  0.5847731751170215  0.9758579469984243  0.0473975633546218  1.0000
  H   H74       1.0  0.915226368409314  0.4758577780865352  0.4526021319564038  1.0000
  H   H75       1.0  0.41522719165867983  0.02414246973877001  0.9526025940777956  1.0000
  H   H76       1.0  0.0847732548132356  0.5241414124121351  0.5473974220446323  1.0000
  H   H77       1.0  0.6511765012206039  0.11819413830281182  0.029677772857894497  1.0000
  H   H78       1.0  0.8488229548784574  0.6181946441162084  0.4703227154292335  1.0000
  H   H79       1.0  0.34882312356288037  0.8818062784343184  0.9703223424129492  1.0000
  H   H80       1.0  0.1511774118971658  0.3818051595016456  0.5296774420033828  1.0000
  H   H81       1.0  0.8369743563329449  0.3781349308698837  0.961442642714971  1.0000
  H   H82       1.0  0.6630320986673867  0.8781351235533208  0.5385577290393826  1.0000
  H   H83       1.0  0.1630260120035345  0.6218654858670905  0.0385580759876518  1.0000
  H   H84       1.0  0.3369742024852584  0.12186529318459802  0.4614422044154054  1.0000
  H   H85       1.0  0.9095349198098929  0.5184614072222332  0.9443613976779235  1.0000
  H   H86       1.0  0.5904729312474827  0.018461481047673107  0.5556398526778994  1.0000
  H   H87       1.0  0.090463961420518  0.4815383963957133  0.05563811416134001  1.0000
  H   H88       1.0  0.40953560056416183  0.9815389356897702  0.44436189107223373  1.0000
  H   H89       1.0  0.8940563555448549  0.6234247237009216  0.046597040156918026  1.0000
  H   H90       1.0  0.605948297361806  0.12342448771325114  0.4534043011431308  1.0000
  H   H91       1.0  0.1059425272464125  0.3765756930361448  0.9534030329523517  1.0000
  H   H92       1.0  0.3940565213671192  0.8765753159049795  0.5465961092589211  1.0000
  H   H93       1.0  0.8083479996146465  0.5842230456801975  0.16014744721449867  1.0000
  H   H94       1.0  0.6916521869027716  0.0842223043788124  0.33985198270176653  1.0000
  H   H95       1.0  0.19165014118433277  0.41577675793746494  0.8398525837334037  1.0000
  H   H96       1.0  0.3083474347589926  0.9157768861200851  0.6601470100290642  1.0000
  H   H97       1.0  0.7419832528889925  0.44045206875863846  0.1691091565932226  1.0000
  H   H98       1.0  0.7580162787066058  0.9404514385921632  0.3308894391145999  1.0000
  H   H99       1.0  0.25801488790998667  0.5595477348590238  0.8308908743546725  1.0000
  H   H100      1.0  0.24198259784138543  0.05954775190711101  0.669108388914232  1.0000
  C   C1        1.0  0.9416059309420531  0.23042872525468996  0.040688268751253504  1.0000
  C   C2        1.0  0.5583942903911989  0.7304285642224786  0.459310505177868  1.0000
  C   C3        1.0  0.0583936922804966  0.7695704652439873  0.9593112852497824  1.0000
  C   C4        1.0  0.4416053297096383  0.2695694000379661  0.5406879262831482  1.0000
  C   C5        1.0  0.9792372758050263  0.22682294448445367  0.11689410600837392  1.0000
  C   C6        1.0  0.5207622073211482  0.7268222222402515  0.3831063119059266  1.0000
  C   C7        1.0  0.0207616085470264  0.7731774722523924  0.8831065283711086  1.0000
  C   C8        1.0  0.47923593347783106  0.27317758137741077  0.6168937190419754  1.0000
  C   C9        1.0  0.08028245023671589  0.22739733260923609  0.13754549039590103  1.0000
  C   C10       1.0  0.4197170485166239  0.7273973254524364  0.36245467947860993  1.0000
  C   C11       1.0  0.9197171745467684  0.7726030841278944  0.8624546248749496  1.0000
  C   C12       1.0  0.5802810922824335  0.2726030912845588  0.6375453514690932  1.0000
  C   C13       1.0  0.14824875858393938  0.23100863461822038  0.08211696774744583  1.0000
  C   C14       1.0  0.35175074262875217  0.7310091823430228  0.4178837610575741  1.0000
  C   C15       1.0  0.851750867760323  0.7689917821186898  0.9178837087936103  1.0000
  C   C16       1.0  0.6482474012918686  0.268991234393539  0.582117392430547  1.0000
  C   C17       1.0  0.1128768448185156  0.23595653337837774  0.007129891413669002  1.0000
  C   C18       1.0  0.3871241400488756  0.7359570296695072  0.4928703572388927  1.0000
  C   C19       1.0  0.8871242655101809  0.764043883358653  0.9928708694505347  1.0000
  C   C20       1.0  0.6128754847345376  0.26404277394828324  0.50712975803215  1.0000
  C   C21       1.0  0.0106525300213036  0.23761830434572323  0.9841375679825789  1.0000
  C   C22       1.0  0.4893479680036065  0.737618585001414  0.5158617485726893  1.0000
  C   C23       1.0  0.9893478351936124  0.7623821123916914  0.015862028179626005  1.0000
  C   C24       1.0  0.5106516552190925  0.2623818317359365  0.48413780542794177  1.0000
  C   C25       1.0  0.9855529278932451  0.25015489233616256  0.902331325595121  1.0000
  C   C26       1.0  0.5144482997587047  0.7501537803253914  0.5976682726680239  1.0000
  C   C27       1.0  0.014448921306183098  0.7498461375207057  0.0976683548900326  1.0000
  C   C28       1.0  0.48555280744820095  0.24984479705407384  0.4023313656563516  1.0000
  C   C29       1.0  0.7904724210648552  0.22941493757563342  0.7651938505568128  1.0000
  C   C30       1.0  0.7095265785718965  0.7294143726332508  0.734806757197866  1.0000
  C   C31       1.0  0.20952720527948537  0.7705860922806098  0.2348068259840446  1.0000
  C   C32       1.0  0.2904723057798506  0.2705835916262488  0.2651938771824121  1.0000
  C   C33       1.0  0.06635245181413299  0.22902565128862315  0.4545527372330369  1.0000
  C   C34       1.0  0.4336455649205675  0.7290246704479346  0.04544790853397271  1.0000
  C   C35       1.0  0.9336456936671951  0.7709741523283783  0.5454489775254885  1.0000
  C   C36       1.0  0.5663533147490653  0.2709751331702392  0.954551042035078  1.0000
  C   C37       1.0  0.031007841840604997  0.2209018463493351  0.3781799759628228  1.0000
  C   C38       1.0  0.4689901713121429  0.7209014260974344  0.12182011379665172  1.0000
  C   C39       1.0  0.9689910425112984  0.7790973441488379  0.6218206584170503  1.0000
  C   C40       1.0  0.5310087099181899  0.27909776440117906  0.8781793980428108  1.0000
  C   C41       1.0  0.9306313498323532  0.21375052766607183  0.35628597347346164  1.0000
  C   C42       1.0  0.5693666460569488  0.7137500043241971  0.1437143685863589  1.0000
  C   C43       1.0  0.06936679564874029  0.7862474365929233  0.6437157412856608  1.0000
  C   C44       1.0  0.43063371759718894  0.2862504124134304  0.8562846663056406  1.0000
  C   C45       1.0  0.8612900775591683  0.21349114927365787  0.41081704162190397  1.0000
  C   C46       1.0  0.6387079182656024  0.7134906837581811  0.08918330060593152  1.0000
  C   C47       1.0  0.13870806792208157  0.7865080412240106  0.5891846731368204  1.0000
  C   C48       1.0  0.3612924438276011  0.2865085067409936  0.9108151730162604  1.0000
  C   C49       1.0  0.894300963931215  0.22320415977634417  0.48593314864947973  1.0000
  C   C50       1.0  0.6056970358709112  0.7232031331841497  0.01406774855635012  1.0000
  C   C51       1.0  0.10569866709525397  0.7767950307212248  0.5140692117025978  1.0000
  C   C52       1.0  0.39430184379864386  0.2767960573146838  0.9859312020129068  1.0000
  C   C53       1.0  0.9955010861936486  0.2329429487019254  0.5100207185704592  1.0000
  C   C54       1.0  0.5044971723286409  0.7329421388279017  0.9899798447371709  1.0000
  C   C55       1.0  0.0044978012797401  0.7670556286764736  0.48998103835003803  1.0000
  C   C56       1.0  0.4955017057799793  0.26705582543247897  0.010018544562271409  1.0000
  C   C57       1.0  0.017788460190701  0.24877661840849907  0.5916379733576349  1.0000
  C   C58       1.0  0.4822098177553257  0.7487765885370694  0.9083623320247228  1.0000
  C   C59       1.0  0.9822133921302196  0.7512237983285959  0.4083628296681354  1.0000
  C   C60       1.0  0.5177868374985906  0.2512244413193658  0.09163705332942841  1.0000
  C   C61       1.0  0.21245929436994265  0.2423437366556698  0.7303206812743215  1.0000
  C   C62       1.0  0.2875404628384359  0.7423437741396061  0.7696785900581703  1.0000
  C   C63       1.0  0.7875418143979046  0.7576560669622482  0.26967951831986886  1.0000
  C   C64       1.0  0.7124569312859775  0.2576560294786533  0.2303197149175276  1.0000
  C   C65       1.0  0.0552431645520528  0.4624921967320789  0.7080917416214589  1.0000
  C   C66       1.0  0.44475739098311357  0.96249225049214  0.791907990523562  1.0000
  C   C67       1.0  0.9447572022237267  0.5375088331244485  0.2919084158107665  1.0000
  C   C68       1.0  0.5552452002085317  0.03750877936479922  0.2080917321231652  1.0000
  C   C69       1.0  0.0532999911841046  0.5478531235419483  0.7066810405469043  1.0000
  C   C70       1.0  0.4466982352105902  0.047853086786616914  0.7933188337299486  1.0000
  C   C71       1.0  0.9466981480542386  0.4521479063146075  0.2933184291303875  1.0000
  C   C72       1.0  0.553306589761462  0.9521467168307327  0.2066838217529394  1.0000
  C   C73       1.0  0.9813581001803227  0.5886630444631252  0.7445506823257731  1.0000
  C   C74       1.0  0.5186408597546048  0.08866355867751712  0.755448332801528  1.0000
  C   C75       1.0  0.018640781050166297  0.4113373722741614  0.25544882951329123  1.0000
  C   C76       1.0  0.4813632122996765  0.9113356318219845  0.24455035162852573  1.0000
  C   C77       1.0  0.9145211524534673  0.5425680973386307  0.7829885240680596  1.0000
  C   C78       1.0  0.585477054020643  0.04256865617200131  0.7170104787594482  1.0000
  C   C79       1.0  0.08547772721615841  0.45743170627953594  0.2170104265009911  1.0000
  C   C80       1.0  0.4145247951785578  0.9574305343268609  0.282989201726302  1.0000
  C   C81       1.0  0.9222103893946282  0.4574622295957198  0.7823519307476802  1.0000
  C   C82       1.0  0.5777894058518953  0.9574622629786733  0.71764744889159  1.0000
  C   C83       1.0  0.0777884933967172  0.5425388002606798  0.21764814236139782  1.0000
  C   C84       1.0  0.42221467088473463  0.04253692752016041  0.282352919349087  1.0000
  C   C85       1.0  0.7452250935205598  0.028383477777104805  0.8861888660591648  1.0000
  C   C86       1.0  0.7547723658713109  0.5283836309283103  0.6138095425259424  1.0000
  C   C87       1.0  0.2547715586117079  0.9716169389604378  0.11380939675476043  1.0000
  C   C88       1.0  0.24522725891209524  0.4716161726894797  0.3861905727451004  1.0000
  C   C89       1.0  0.7119125466594411  0.9482415070722754  0.8919681457544402  1.0000
  C   C90       1.0  0.7880872478538733  0.4482428083462936  0.6080318011281136  1.0000
  C   C91       1.0  0.288086334571048  0.05175890966501131  0.10803136608462441  1.0000
  C   C92       1.0  0.211912376929611  0.5517576083908298  0.391968314142737  1.0000
  C   C93       1.0  0.6534647752731858  0.9280686253810658  0.9504331115848785  1.0000
  C   C94       1.0  0.8465350126601905  0.4280693721189764  0.5495662870962832  1.0000
  C   C95       1.0  0.3465341075180817  0.0719317913559934  0.04956696152439832  1.0000
  C   C96       1.0  0.15346461212330098  0.571931044618147  0.45043382817456035  1.0000
  C   C97       1.0  0.6309493510085886  0.9890087667124022  0.001384907170859207  1.0000
  C   C98       1.0  0.8690494537976575  0.48900977789553934  0.49861473745868784  1.0000
  C   C99       1.0  0.36904953178268574  0.010991650024657006  0.9986151659384106  1.0000
  C   C100      1.0  0.13095016942497037  0.5109900257224712  0.5013848165421495  1.0000
  C   C101      1.0  0.66720347290709  0.06788793279313411  0.9920596553284114  1.0000
  C   C102      1.0  0.8327969674041639  0.567888799171705  0.507940018850924  1.0000
  C   C103      1.0  0.332796892307833  0.9321124839442803  0.007939940833800603  1.0000
  C   C104      1.0  0.1672033993715374  0.4321116175654895  0.49206013858150044  1.0000
  C   C105      1.0  0.8319579792439242  0.4263117723668303  0.003483360480721801  1.0000
  C   C106      1.0  0.668043776370844  0.926310379362967  0.4965159321428133  1.0000
  C   C107      1.0  0.16804313108470129  0.5736880312508605  0.9965174003836736  1.0000
  C   C108      1.0  0.3319588132597104  0.07368819801684622  0.5034832292344974  1.0000
  C   C109      1.0  0.871712663109669  0.5039874752452747  0.994522235961213  1.0000
  C   C110      1.0  0.6282884986125339  0.0039863704470733  0.5054758379664719  1.0000
  C   C111      1.0  0.1282839890226057  0.49601294149226066  0.0054760268527190015  1.0000
  C   C112      1.0  0.37171928964611567  0.9960140462905257  0.4945253023518816  1.0000
  C   C113      1.0  0.863570658211394  0.5620496337039216  0.05119660955924132  1.0000
  C   C114      1.0  0.6364324923189032  0.06204940788699532  0.44880356463799853  1.0000
  C   C115      1.0  0.13642747946609288  0.4379507830335215  0.9488022988480368  1.0000
  C   C116      1.0  0.36357158597858324  0.937950395730951  0.5511973648726924  1.0000
  C   C117      1.0  0.8157187340851022  0.5403782874429197  0.1148703935294009  1.0000
  C   C118      1.0  0.6842829255080005  0.04037750891399131  0.3851291491140644  1.0000
  C   C119      1.0  0.18427940515309155  0.4596215161749698  0.8851290761482886  1.0000
  C   C120      1.0  0.31571966724420253  0.9596216815847143  0.6148711348034724  1.0000
  C   C121      1.0  0.7783418647401916  0.4613649794166862  0.12004194642363332  1.0000
  C   C122      1.0  0.721659898035263  0.9613643028113048  0.37995676222087144  1.0000
  C   C123      1.0  0.2216562744980095  0.5386348242011965  0.8799575232540562  1.0000
  C   C124      1.0  0.2783412060502357  0.0386355008072812  0.6200417535626954  1.0000
  N   N1        1.0  0.8921563988405836  0.2376736234800348  0.8731067842554623  1.0000
  N   N2        1.0  0.60784482570606  0.7376731216467507  0.6268928220932466  1.0000
  N   N3        1.0  0.1078454503587736  0.7623267932575005  0.1268928962298901  1.0000
  N   N4        1.0  0.3921562815009239  0.26232606885205456  0.37310681623093  1.0000
  N   N5        1.0  0.8801118931472942  0.248143891672747  0.7954125685129797  1.0000
  N   N6        1.0  0.619887850020028  0.7481439443818803  0.7045869467294281  1.0000
  N   N7        1.0  0.11988773007541198  0.7518565250646037  0.2045869854876514  1.0000
  N   N8        1.0  0.380111773202529  0.2518552461167971  0.2954126072716008  1.0000
  N   N9        1.0  0.11182066180573712  0.24357245978100653  0.6216225649784094  1.0000
  N   N10       1.0  0.3881790972690453  0.7435718201942125  0.8783772668285083  1.0000
  N   N11       1.0  0.8881811920758836  0.756427343836535  0.3783787993177725  1.0000
  N   N12       1.0  0.6118190388476634  0.2564285965434507  0.12162108030857152  1.0000
  N   N13       1.0  0.1221675600089256  0.2569494681208938  0.6989778807497515  1.0000
  N   N14       1.0  0.37783220239418824  0.7569495003281548  0.8010219423908894  1.0000
  N   N15       1.0  0.8778342923120661  0.743051561735534  0.3010229222758198  1.0000
  N   N16       1.0  0.6221651932912309  0.24305214264789754  0.1989769238544241  1.0000
  N   N17       1.0  0.9910841591094479  0.417888463989229  0.7453867908288885  1.0000
  N   N18       1.0  0.5089148842987541  0.917888453474838  0.7546125722859784  1.0000
  N   N19       1.0  0.0089154672348215  0.5821119527476811  0.2546138857121676  1.0000
  N   N20       1.0  0.49108622602994956  0.08211196326219296  0.24538818857821812  1.0000
  N   N21       1.0  0.7232523399732005  0.08707491765874661  0.9353102780120255  1.0000
  N   N22       1.0  0.7767481066726275  0.5870757273200552  0.5646899450075864  1.0000
  N   N23       1.0  0.27674728324950587  0.9129254990786039  0.0646892759886057  1.0000
  N   N24       1.0  0.223252261663859  0.4129246894169186  0.43531077369504356  1.0000
  N   N25       1.0  0.786247008960494  0.4054822399332921  0.06525461596366712  1.0000
  N   N26       1.0  0.7137554803424637  0.9054809053794557  0.4347436097750474  1.0000
  N   N27       1.0  0.2137518722699951  0.5945181768039947  0.9347448958753973  1.0000
  N   N28       1.0  0.28624784815881543  0.09451828512019494  0.5652544712232271  1.0000
  O   O1        1.0  0.843342224049195  0.22773283519372  0.024897386561825413  1.0000
  O   O2        1.0  0.6566579981740119  0.7277320697213342  0.47510195038418596  1.0000
  O   O3        1.0  0.1566566571812942  0.7722675815435665  0.975102125277239  1.0000
  O   O4        1.0  0.34334236547996977  0.2722671207776273  0.5248970845082113  1.0000
  O   O5        1.0  0.05499861261121449  0.2728904997413225  0.8613304090769206  1.0000
  O   O6        1.0  0.44500263774224175  0.7728882217129895  0.6386694880605008  1.0000
  O   O7        1.0  0.9450032365884411  0.7271123694735593  0.1386692714076432  1.0000
  O   O8        1.0  0.5549977290332322  0.22711035566619134  0.3613306693725137  1.0000
  O   O9        1.0  0.7176936082677868  0.20497597875399987  0.80142868836802  1.0000
  O   O10       1.0  0.7823061272806768  0.7049754579729569  0.6985719773805599  1.0000
  O   O11       1.0  0.28230601807655376  0.7950250511022432  0.19857198817283722  1.0000
  O   O12       1.0  0.21769350062414358  0.2950231194057196  0.3014292604312985  1.0000
  O   O13       1.0  0.1643592500971565  0.23306733777104682  0.471598413487321  1.0000
  O   O14       1.0  0.33563876608241827  0.7330669624135526  0.0284016683909485  1.0000
  O   O15       1.0  0.8356388907017446  0.7669318527272824  0.52840161746078  1.0000
  O   O16       1.0  0.6643593747164046  0.2669316149654436  0.9715983625573442  1.0000
  O   O17       1.0  0.9455223904413543  0.2672089089187539  0.6316503120600245  1.0000
  O   O18       1.0  0.5544766185987412  0.7672088186537351  0.8683502712103532  1.0000
  O   O19       1.0  0.054478721448205605  0.73279212093739  0.3683510100741856  1.0000
  O   O20       1.0  0.4455215206396019  0.23279221120282056  0.1316491984669454  1.0000
  O   O21       1.0  0.2867617286927739  0.21876809368529854  0.695353721867818  1.0000
  O   O22       1.0  0.2132380226498114  0.7187674745593997  0.804645564737946  1.0000
  O   O23       1.0  0.7132393831966368  0.781231709932179  0.3046476002667902  1.0000
  O   O24       1.0  0.78676085389818  0.2812317159398745  0.19535226329088576  1.0000
