data_image0
_chemical_formula_structural       Na2P6H54C48O22
_chemical_formula_sum              "Na2 P6 H54 C48 O22"
_cell_length_a       7.945635778972082
_cell_length_b       12.676834051518751
_cell_length_c       14.025452342470548
_cell_angle_alpha    88.11097461334232
_cell_angle_beta     85.07226013993422
_cell_angle_gamma    79.88549656444862

_space_group_name_H-M_alt    "P 1"
_space_group_IT_number       1

loop_
  _space_group_symop_operation_xyz
  'x, y, z'

loop_
  _atom_site_type_symbol
  _atom_site_label
  _atom_site_symmetry_multiplicity
  _atom_site_fract_x
  _atom_site_fract_y
  _atom_site_fract_z
  _atom_site_occupancy
  Na  Na1       1.0  0.20157478292052394  0.5147019114369799  0.0522907744302188  1.0000
  Na  Na2       1.0  0.7984253040767084  0.48529636399189974  0.9477117120741666  1.0000
  P   P1        1.0  0.07091255072518271  0.255917073067728  0.7838342882758552  1.0000
  P   P2        1.0  0.9290824082379384  0.7440860299154155  0.21616404231191672  1.0000
  P   P3        1.0  0.9675681561238961  0.45467825160586284  0.36409913275536343  1.0000
  P   P4        1.0  0.03243612109881159  0.5453232113761218  0.6359023286695162  1.0000
  P   P5        1.0  0.5355439155841567  0.7553032842679246  0.993431085683504  1.0000
  P   P6        1.0  0.4644571988409326  0.24469579029309338  0.006569184774519991  1.0000
  H   H1        1.0  0.13499067351049374  0.422316775874137  0.4846222519879859  1.0000
  H   H2        1.0  0.8650106664720523  0.5776862969409252  0.5153814527623977  1.0000
  H   H3        1.0  0.177316536336768  0.34443340046603066  0.6574635366929512  1.0000
  H   H4        1.0  0.8226782367976709  0.6555705006656823  0.3425376317714921  1.0000
  H   H5        1.0  0.5188148024913913  0.5699058648874883  0.07390542143068049  1.0000
  H   H6        1.0  0.48118696457271426  0.43009080462043414  0.9260955997952606  1.0000
  H   H7        1.0  0.9763539365827614  0.4358687001054947  0.7833613306801082  1.0000
  H   H8        1.0  0.02364508220134093  0.5641335815693227  0.21664180493372948  1.0000
  H   H9        1.0  0.6984296480980133  0.8223473204057257  0.0954323560269827  1.0000
  H   H10       1.0  0.30156976430183835  0.17765336252409725  0.9045672417714954  1.0000
  H   H11       1.0  0.05774907415131021  0.5720287272332529  0.8525775586019222  1.0000
  H   H12       1.0  0.9422535491508838  0.4279695379234881  0.14742550974631996  1.0000
  H   H13       1.0  0.2944151999618043  0.7887711539695987  0.08206299210710448  1.0000
  H   H14       1.0  0.7055907646472335  0.2112287022754772  0.9179377166853229  1.0000
  H   H15       1.0  0.49788003684826515  0.20154593713244404  0.7033943004662788  1.0000
  H   H16       1.0  0.5021144960897954  0.7984539673771354  0.29660200841382073  1.0000
  H   H17       1.0  0.6941084515660024  0.2896227909841259  0.7883937563148606  1.0000
  H   H18       1.0  0.3058840118774312  0.7103755168930593  0.21160555936597086  1.0000
  H   H19       1.0  0.12893858404143538  0.08253865971215649  0.6501975186687686  1.0000
  H   H20       1.0  0.8710593633980535  0.9174628277262403  0.34980355711545735  1.0000
  H   H21       1.0  0.9312869782721689  0.9923241758029704  0.5674807561358648  1.0000
  H   H22       1.0  0.0687162349253896  0.007676492126627501  0.43251935810540226  1.0000
  H   H23       1.0  0.5090999043315207  0.2940802307654664  0.5419522897871474  1.0000
  H   H24       1.0  0.49090416197265085  0.7059172323305632  0.45804716263735656  1.0000
  H   H25       1.0  0.6698864548768809  0.4413420788081624  0.4985199008600958  1.0000
  H   H26       1.0  0.3301155492521131  0.5586537868395212  0.5014832710111463  1.0000
  H   H27       1.0  0.9899511644713355  0.241126121025431  0.2874136136045563  1.0000
  H   H28       1.0  0.01004928999528685  0.7588753594046411  0.7125851934395442  1.0000
  H   H29       1.0  0.8279846959969958  0.09533769872611943  0.33023158003441466  1.0000
  H   H30       1.0  0.17201553604365216  0.9046645839322738  0.6697665016563903  1.0000
  H   H31       1.0  0.6762907713283183  0.7543418441667529  0.642723227622973  1.0000
  H   H32       1.0  0.3237037835681206  0.24565805789496423  0.3572752191951025  1.0000
  H   H33       1.0  0.6831208638273266  0.6715444073070177  0.8042959405681316  1.0000
  H   H34       1.0  0.31687284215048084  0.3284538982899365  0.19570117177364918  1.0000
  H   H35       1.0  0.40088549204605767  0.967105140571086  0.9236469839590808  1.0000
  H   H36       1.0  0.5991187485793644  0.0328963264906577  0.0763509142358245  1.0000
  H   H37       1.0  0.3910243947730904  0.0482247747427067  0.7626805594345568  1.0000
  H   H38       1.0  0.6089838544370993  0.9517758767223796  0.2373171552644422  1.0000
  H   H39       1.0  0.5215602298296316  0.5234274727828636  0.36038279597291023  1.0000
  H   H40       1.0  0.47844573477940583  0.4765723834622123  0.6396179128195172  1.0000
  H   H41       1.0  0.32623421909909195  0.5662496118927225  0.3064161725430806  1.0000
  H   H42       1.0  0.6737702585912186  0.4337510513087821  0.6935838762971116  1.0000
  H   H43       1.0  0.4258664606961346  0.4296909169188083  0.3027139604773126  1.0000
  H   H44       1.0  0.5741407684056552  0.5703089345981811  0.6972866829140401  1.0000
  H   H45       1.0  0.5943847104232205  0.6134819859890612  0.21077382943813916  1.0000
  H   H46       1.0  0.40561850277433825  0.3865186819405367  0.7892262848031277  1.0000
  H   H47       1.0  0.672296189966559  0.47422501482024165  0.1993937886810784  1.0000
  H   H48       1.0  0.32770955953596104  0.5257756428372178  0.8006069074040381  1.0000
  H   H49       1.0  0.1291007339155143  0.7412678607448631  0.886925751330068  1.0000
  H   H50       1.0  0.8708942658328805  0.2587304368601907  0.11307414619462007  1.0000
  H   H51       1.0  0.9053178317188258  0.7398808863682973  0.8780010049904233  1.0000
  H   H52       1.0  0.09467634106931645  0.2601158123241306  0.12199969599594598  1.0000
  H   H53       1.0  0.9878389097260293  0.7361771022756616  0.9924124857825802  1.0000
  H   H54       1.0  0.012154402636035372  0.2638228020662937  0.0075881643745603  1.0000
  C   C1        1.0  0.516819594545339  0.9558390250579692  0.593313149004892  1.0000
  C   C2        1.0  0.48317897625533124  0.04416006059113898  0.4066858269632831  1.0000
  C   C3        1.0  0.573524602696409  0.09075674492243732  0.4718717786583184  1.0000
  C   C4        1.0  0.42647649708976587  0.9092423312704911  0.5281270665077142  1.0000
  C   C5        1.0  0.5900902955218257  0.0465738938323383  0.5651647001787763  1.0000
  C   C6        1.0  0.40990828259830875  0.953425191000818  0.4348349884353907  1.0000
  C   C7        1.0  0.7012810532746485  0.0918528784239285  0.6282377819041186  1.0000
  C   C8        1.0  0.2987168722064695  0.9081486114623232  0.3717611559421243  1.0000
  C   C9        1.0  0.6357150728379253  0.17330100539721371  0.6931899455455692  1.0000
  C   C10       1.0  0.3642805241252914  0.8266996941647448  0.3068077105181359  1.0000
  C   C11       1.0  0.7463745377764397  0.22260272890467553  0.7416042024481156  1.0000
  C   C12       1.0  0.2536227465731074  0.7773963639203813  0.2583927009831442  1.0000
  C   C13       1.0  0.9244446621552883  0.19151158114095787  0.7258925505031398  1.0000
  C   C14       1.0  0.07555054119217887  0.8084907171659949  0.2741086433759179  1.0000
  C   C15       1.0  0.9904354751769373  0.10737645014025082  0.6633291552825681  1.0000
  C   C16       1.0  0.009562672730154907  0.8926242375176658  0.3366705079169847  1.0000
  C   C17       1.0  0.8795818333818416  0.057698010825731706  0.6159814369027571  1.0000
  C   C18       1.0  0.1204177794855994  0.9423018723236184  0.38401674831104055  1.0000
  C   C19       1.0  0.6602630572296277  0.18293002363655123  0.44133117508877706  1.0000
  C   C20       1.0  0.3397382576630647  0.8170682511439938  0.5586676827845665  1.0000
  C   C21       1.0  0.615510540167797  0.2819671436106006  0.48676606217230767  1.0000
  C   C22       1.0  0.3844935114974604  0.7180303211173326  0.5132319649602053  1.0000
  C   C23       1.0  0.7051945410193028  0.36518525018566095  0.46191788585380067  1.0000
  C   C24       1.0  0.2948080603245202  0.6348130174189351  0.5380830445564584  1.0000
  C   C25       1.0  0.8412085962491461  0.3514399185373093  0.3904047107639386  1.0000
  C   C26       1.0  0.15879358952054895  0.6485599502601361  0.60959761952369  1.0000
  C   C27       1.0  0.884329157833271  0.2533396862900475  0.34314562542098764  1.0000
  C   C28       1.0  0.11567488964399789  0.7466625797362171  0.6568543980045902  1.0000
  C   C29       1.0  0.7937793098856004  0.17069091100348296  0.3679639795499127  1.0000
  C   C30       1.0  0.20622348460636172  0.829306557636592  0.6320348256296668  1.0000
  C   C31       1.0  0.5333910906573038  0.9075515462621341  0.690970314689082  1.0000
  C   C32       1.0  0.46660852952960147  0.09244833607126422  0.30902858317071485  1.0000
  C   C33       1.0  0.6162527096295135  0.8014616157697603  0.704093546307149  1.0000
  C   C34       1.0  0.38374227547996753  0.19853668346719647  0.295904925925548  1.0000
  C   C35       1.0  0.6201652068221576  0.7544509005244182  0.7954049705809538  1.0000
  C   C36       1.0  0.37983231459227795  0.2455473884404  0.20459408349559988  1.0000
  C   C37       1.0  0.5415542419277983  0.8131516439085187  0.8751440966301729  1.0000
  C   C38       1.0  0.4584476921380869  0.1868490303810759  0.12485465772017791  1.0000
  C   C39       1.0  0.46118260919258347  0.9198576329801899  0.8625123126636323  1.0000
  C   C40       1.0  0.5388180677000137  0.08014304522154703  0.137487219733778  1.0000
  C   C41       1.0  0.457616274999488  0.9662712390272004  0.7713475991465302  1.0000
  C   C42       1.0  0.542385874172922  0.033728633850017814  0.2286511679111243  1.0000
  C   C43       1.0  0.450186771251964  0.5121378861106153  0.2989833721859796  1.0000
  C   C44       1.0  0.5498215072360536  0.48786276209066404  0.7010171930970016  1.0000
  C   C45       1.0  0.5542764611159113  0.5347529797324456  0.20783678469626207  1.0000
  C   C46       1.0  0.4457284541068915  0.46524607982834004  0.7921640022045437  1.0000
  C   C47       1.0  0.016559763807386194  0.7093790508787025  0.9185685209531725  1.0000
  C   C48       1.0  0.983435680792965  0.29061764226968023  0.08143282727812111  1.0000
  O   O1        1.0  0.14915501768744124  0.18207809627791252  0.8602993156822052  1.0000
  O   O2        1.0  0.8508427146455305  0.8179241925728605  0.1397017473947173  1.0000
  O   O3        1.0  0.9666243416207789  0.3641594046475803  0.8250749144210588  1.0000
  O   O4        1.0  0.03337107683321246  0.6358420922469962  0.17492629216531697  1.0000
  O   O5        1.0  0.2128423550361447  0.2811784858602807  0.7050430682887452  1.0000
  O   O6        1.0  0.787151569179663  0.7188238188066761  0.2949567656993962  1.0000
  O   O7        1.0  0.14180141841218588  0.41596162027931183  0.4114214375421241  1.0000
  O   O8        1.0  0.8582018313826651  0.5840390435705203  0.5885822399291173  1.0000
  O   O9        1.0  0.8720760226285054  0.560801785407655  0.4073798402454613  1.0000
  O   O10       1.0  0.12792511375496216  0.43919728670550745  0.5926225681505528  1.0000
  O   O11       1.0  0.011461052931352378  0.4629907490585767  0.2560583173389972  1.0000
  O   O12       1.0  0.9885392376649592  0.5370115270721953  0.743945465519765  1.0000
  O   O13       1.0  0.3338442537275767  0.7564811321277891  0.019975423827382592  1.0000
  O   O14       1.0  0.6661573055494684  0.24351633797656552  0.9800262973372469  1.0000
  O   O15       1.0  0.6373557517515706  0.6440660445168904  0.9975785572398195  1.0000
  O   O16       1.0  0.3626476765525054  0.3559338220003241  0.002421569708758402  1.0000
  O   O17       1.0  0.577833543535675  0.836353151133878  0.06524255417279791  1.0000
  O   O18       1.0  0.4221658615447125  0.163647532611904  0.9347563309796881  1.0000
  O   O19       1.0  0.4567842456230198  0.5333755600135391  0.12591426129829128  1.0000
  O   O20       1.0  0.5432196202135485  0.4666227028629636  0.8740866037109001  1.0000
  O   O21       1.0  0.05027232967194097  0.5935043240980065  0.9202334512761468  1.0000
  O   O22       1.0  0.9497264928325394  0.4064939560589593  0.07976910062931349  1.0000
