data_image0
_chemical_formula_structural       Cu4H32C16N8Cl8O4
_chemical_formula_sum              "Cu4 H32 C16 N8 Cl8 O4"
_cell_length_a       5.7428450924541155
_cell_length_b       10.410951645386708
_cell_length_c       13.431673307608174
_cell_angle_alpha    97.78900534784897
_cell_angle_beta     93.92431188694579
_cell_angle_gamma    102.29517657058706

_space_group_name_H-M_alt    "P 1"
_space_group_IT_number       1

loop_
  _space_group_symop_operation_xyz
  'x, y, z'

loop_
  _atom_site_type_symbol
  _atom_site_label
  _atom_site_symmetry_multiplicity
  _atom_site_fract_x
  _atom_site_fract_y
  _atom_site_fract_z
  _atom_site_occupancy
  Cu  Cu1       1.0  0.7711262751973538  0.580326689195104  0.9946937555578683  1.0000
  Cu  Cu2       1.0  0.22886462314143338  0.4196872634271217  0.00530623062520871  1.0000
  Cu  Cu3       1.0  0.23188501467089415  0.9089415350407962  0.48559221294119226  1.0000
  Cu  Cu4       1.0  0.7681075381728423  0.09106349096038711  0.5144098984958558  1.0000
  H   H1        1.0  0.6401761920065213  0.4268233621619332  0.7745547931816785  1.0000
  H   H2        1.0  0.35982662651760944  0.5731857169318744  0.22545772258543195  1.0000
  H   H3        1.0  0.17103673229441804  0.653823370519696  0.8499555272419028  1.0000
  H   H4        1.0  0.8289686932658071  0.346178608619141  0.1500310361814527  1.0000
  H   H5        1.0  0.35911481757673164  0.4088152351800503  0.600682297776238  1.0000
  H   H6        1.0  0.6408869130539474  0.5911779184547471  0.3993255943704383  1.0000
  H   H7        1.0  0.6683031532851589  0.48883540258545843  0.6137040463563749  1.0000
  H   H8        1.0  0.3317093109019709  0.5111627260637449  0.3863017009735045  1.0000
  H   H9        1.0  0.3853454539077035  0.6320003222929884  0.5537512328006001  1.0000
  H   H10       1.0  0.6146347078065234  0.36797777277456595  0.44623660407383153  1.0000
  H   H11       1.0  0.5809110843261749  0.7067392548123478  0.6634436862503957  1.0000
  H   H12       1.0  0.4190670137336242  0.29324678483322947  0.3365441469528818  1.0000
  H   H13       1.0  0.1740019267551817  0.7354780409441163  0.6940236827196172  1.0000
  H   H14       1.0  0.8259898287626942  0.2645159748896546  0.3059646328326976  1.0000
  H   H15       1.0  0.05180286689409998  0.5631864640807366  0.6547751224689475  1.0000
  H   H16       1.0  0.9481866194249167  0.43679765753635996  0.34522105604568754  1.0000
  H   H17       1.0  0.7791786080439137  0.8203503894462968  0.323947622992783  1.0000
  H   H18       1.0  0.22083474575371304  0.1796586548940979  0.6760555340497516  1.0000
  H   H19       1.0  0.3042181958979526  0.049898567810409106  0.29425711630962326  1.0000
  H   H20       1.0  0.6957923861379811  0.9501035077526295  0.7057445056405312  1.0000
  H   H21       1.0  0.5860971732872359  0.7532223034417174  0.12836680257201039  1.0000
  H   H22       1.0  0.41388033831530185  0.2467757721401612  0.8716408440169727  1.0000
  H   H23       1.0  0.8935305959006143  0.828572353983411  0.16285428017885545  1.0000
  H   H24       1.0  0.10646174188114806  0.17142767942744547  0.8371435966544423  1.0000
  H   H25       1.0  0.8180373058620631  0.05130173717624589  0.15574876382137148  1.0000
  H   H26       1.0  0.18196258456498535  0.948695320428648  0.8442475546855517  1.0000
  H   H27       1.0  0.6796246300417936  0.9470594520890432  0.043139613866429734  1.0000
  H   H28       1.0  0.3203673069800104  0.05293959069004469  0.9568588948976708  1.0000
  H   H29       1.0  0.41278370319470536  0.09049426687456473  0.13017977029362265  1.0000
  H   H30       1.0  0.5872161494795378  0.90950282937969  0.8698232516473252  1.0000
  H   H31       1.0  0.283291055901721  0.9162915587190029  0.10818444343058789  1.0000
  H   H32       1.0  0.7167040284731956  0.0837154692354503  0.8918194374511115  1.0000
  C   C1        1.0  0.4083366149516933  0.5378976328268904  0.8196480969047141  1.0000
  C   C2        1.0  0.5916536256169069  0.4621013549074747  0.18034141994510114  1.0000
  C   C3        1.0  0.49579842135145924  0.4927783395030332  0.6428857026006083  1.0000
  C   C4        1.0  0.5042214265619905  0.5072207981212814  0.3571203736334424  1.0000
  C   C5        1.0  0.42768677608857797  0.6245794440266011  0.6333684248808705  1.0000
  C   C6        1.0  0.5723228355077766  0.37541561044447036  0.3666220332411071  1.0000
  C   C7        1.0  0.21277017426437791  0.6364265420636102  0.6913974083065496  1.0000
  C   C8        1.0  0.7872410152032927  0.3635725007007693  0.3085949910482241  1.0000
  C   C9        1.0  0.5394138107940449  0.936553784479777  0.31606867176097336  1.0000
  C   C10       1.0  0.46060066977716485  0.06344928444514149  0.6839316814368671  1.0000
  C   C11       1.0  0.7114256602299419  0.8432885589117944  0.16897501538240078  1.0000
  C   C12       1.0  0.28856723464647877  0.1567084932328839  0.8310225767675516  1.0000
  C   C13       1.0  0.6726650434539254  0.9650368244263562  0.12501168631073506  1.0000
  C   C14       1.0  0.3273352183697895  0.0349612538709181  0.8749892140474029  1.0000
  C   C15       1.0  0.43220045297473314  0.9940025359634318  0.1498244232116263  1.0000
  C   C16       1.0  0.5678075765562484  0.0059975591182138  0.8501791534238947  1.0000
  N   N1        1.0  0.5178950356832601  0.4763675657174105  0.7493462538957657  1.0000
  N   N2        1.0  0.4821044917373172  0.5236374872158648  0.2506583080282779  1.0000
  N   N3        1.0  0.2624152807763807  0.6143915934233704  0.7948476278318137  1.0000
  N   N4        1.0  0.7375749849614479  0.3856163931542583  0.20515173498232994  1.0000
  N   N5        1.0  0.6733749890396937  0.857856119087714  0.2758539307495055  1.0000
  N   N6        1.0  0.3266274203342619  0.14214295335357013  0.7241463916800723  1.0000
  N   N7        1.0  0.4177405134974067  8.908900160519933e-05  0.2585986257408449  1.0000
  N   N8        1.0  0.5822574192728355  0.9999119928158537  0.74140697425441  1.0000
  Cl  Cl1       1.0  0.10127503507095534  0.6291851159834324  0.10312989207428556  1.0000
  Cl  Cl2       1.0  0.898725673655733  0.3708229303170044  0.896876498187353  1.0000
  Cl  Cl3       1.0  0.8881443967550099  0.7498585657382224  0.9107674632671061  1.0000
  Cl  Cl4       1.0  0.11185690262438189  0.2501464649410465  0.0892326837031661  1.0000
  Cl  Cl5       1.0  0.9415153732572537  0.8795282586309268  0.5877918657765803  1.0000
  Cl  Cl6       1.0  0.058491285074872196  0.12047284933648679  0.4122154938819164  1.0000
  Cl  Cl7       1.0  0.08284916299729161  0.729228576043866  0.3730493101764408  1.0000
  Cl  Cl8       1.0  0.9171548242479802  0.2707744846907261  0.6269529534859328  1.0000
  O   O1        1.0  0.44676115625807716  0.5235148710435383  0.9147683198087219  1.0000
  O   O2        1.0  0.553241552073672  0.47649813271010544  0.08523565562489208  1.0000
  O   O3        1.0  0.5300000444817883  0.9541367601611057  0.4145518366561517  1.0000
  O   O4        1.0  0.47000415056328393  0.04584943952743711  0.5854554272308761  1.0000
