data_image0
_chemical_formula_structural       Al4H28C54O34
_chemical_formula_sum              "Al4 H28 C54 O34"
_cell_length_a       6.8962263710973675
_cell_length_b       17.693336003369605
_cell_length_c       20.80554447316594
_cell_angle_alpha    107.79304038579944
_cell_angle_beta     90.0002188027692
_cell_angle_gamma    90.0006992234375

_space_group_name_H-M_alt    "P 1"
_space_group_IT_number       1

loop_
  _space_group_symop_operation_xyz
  'x, y, z'

loop_
  _atom_site_type_symbol
  _atom_site_label
  _atom_site_symmetry_multiplicity
  _atom_site_fract_x
  _atom_site_fract_y
  _atom_site_fract_z
  _atom_site_occupancy
  Al  Al1       1.0  0.819480531876536  0.5004460293713535  0.5017684213371608  1.0000
  Al  Al2       1.0  0.3194751657112106  0.4995505771033635  0.49822767164550896  1.0000
  Al  Al3       1.0  0.4161168794425834  0.9994706955790917  0.9983151284510967  1.0000
  Al  Al4       1.0  0.9161140860652423  0.0005244188391415999  0.0016857126003415998  1.0000
  H   H1        1.0  0.08541583637997968  0.8882683029638442  0.3000142940252601  1.0000
  H   H2        1.0  0.5854258771770089  0.11172415986325021  0.6999891698527277  1.0000
  H   H3        1.0  0.12968954312527356  0.6060042293731271  0.20610004187302877  1.0000
  H   H4        1.0  0.6297107485314725  0.3939935637294454  0.7938945735711941  1.0000
  H   H5        1.0  0.3836704576675912  0.680072911636458  0.2713986599986953  1.0000
  H   H6        1.0  0.8836771970524564  0.31992619510665327  0.7286036617633798  1.0000
  H   H7        1.0  0.8863032402052297  0.6395408214798052  0.2170241869318161  1.0000
  H   H8        1.0  0.3863168632492416  0.36045791823530476  0.7829721096172831  1.0000
  H   H9        1.0  0.32704314118062416  0.7418076513027428  0.40307610007722866  1.0000
  H   H10       1.0  0.8270266190910505  0.25818112428144957  0.5969269301218815  1.0000
  H   H11       1.0  0.5312238078285247  0.7834630947742695  0.16117583151683587  1.0000
  H   H12       1.0  0.031247043797492297  0.21654385459213904  0.8388282044996203  1.0000
  H   H13       1.0  0.3714419551711784  0.8940116550318179  0.3435157737285053  1.0000
  H   H14       1.0  0.8714531958678647  0.1059853426448143  0.6564935170455398  1.0000
  H   H15       1.0  0.6968933754278621  0.8403908522799313  0.2362323176022088  1.0000
  H   H16       1.0  0.19690940669241289  0.1596044600042744  0.7637754933699695  1.0000
  H   H17       1.0  0.8828306672666456  0.8012845334355134  0.4198114257623899  1.0000
  H   H18       1.0  0.3828450582274812  0.19870617455642756  0.5801927810507619  1.0000
  H   H19       1.0  0.7999695550432475  0.7622916564585082  0.30164472626876904  1.0000
  H   H20       1.0  0.2999793018841998  0.23769362924835494  0.698351152299054  1.0000
  H   H21       1.0  0.2816352062607591  0.60678085014915  0.1228872066550792  1.0000
  H   H22       1.0  0.7816240207598709  0.393228590815589  0.8771180145684028  1.0000
  H   H23       1.0  0.8345725687234946  0.6449643280867007  0.10148437349460689  1.0000
  H   H24       1.0  0.3345866038420268  0.355034278211278  0.8985077696747084  1.0000
  H   H25       1.0  0.5673395049447975  0.6026270671934385  0.5366209962020745  1.0000
  H   H26       1.0  0.0673447527080739  0.3973620764706994  0.4633808662020797  1.0000
  H   H27       1.0  0.6647283139495811  0.9053449049656237  0.009007356567600808  1.0000
  H   H28       1.0  0.16473348282192293  0.09465069801735382  0.9909993710548477  1.0000
  C   C1        1.0  0.5647697208809461  0.42263864403027174  0.5764009354551547  1.0000
  C   C2        1.0  0.0647580939261587  0.5773601965136094  0.4235945318571978  1.0000
  C   C3        1.0  0.5733098919703181  0.3936962944535906  0.396679570715392  1.0000
  C   C4        1.0  0.07328957909454908  0.6063237017045324  0.6033117051473765  1.0000
  C   C5        1.0  0.08288416620280967  0.6681709901207283  0.6666555535570992  1.0000
  C   C6        1.0  0.5829417630212959  0.33187558179776744  0.33332257211466043  1.0000
  C   C7        1.0  0.1056377600786789  0.7205727855450232  0.720271059470896  1.0000
  C   C8        1.0  0.6057420675182287  0.2794581775356448  0.2797244767757688  1.0000
  C   C9        1.0  0.12957915875186637  0.7781526741359313  0.7795322781640406  1.0000
  C   C10       1.0  0.6296920778560277  0.2218706993686226  0.22046773000747777  1.0000
  C   C11       1.0  0.15212973187131235  0.8302883569100884  0.8332343286422486  1.0000
  C   C12       1.0  0.652176278808234  0.1697225066564911  0.1667590275118229  1.0000
  C   C13       1.0  0.3390186622619566  0.7882234119164053  0.24873625026324214  1.0000
  C   C14       1.0  0.8390279796376489  0.21177726813564857  0.751266983393485  1.0000
  C   C15       1.0  0.004079483598843599  0.8373067663949171  0.26769485579014674  1.0000
  C   C16       1.0  0.5040935558983008  0.1626864336947662  0.732308408647171  1.0000
  C   C17       1.0  0.9497175383263112  0.7839674919217856  0.31093074074379956  1.0000
  C   C18       1.0  0.4497371484627449  0.21602555571438128  0.6890676460687998  1.0000
  C   C19       1.0  0.05991242572832079  0.6207275667609337  0.3748450804174013  1.0000
  C   C20       1.0  0.5599144313775709  0.37927050928317385  0.6251563899925897  1.0000
  C   C21       1.0  0.14542615774644213  0.7936978646713867  0.20847255340415669  1.0000
  C   C22       1.0  0.6454377181880913  0.20629906948443721  0.7915296236188637  1.0000
  C   C23       1.0  0.30089843627079915  0.7357542713706805  0.29453728850136685  1.0000
  C   C24       1.0  0.8009050587058582  0.2642448354134855  0.7054643171984905  1.0000
  C   C25       1.0  0.0853519533945004  0.7097828559393307  0.2925194324456156  1.0000
  C   C26       1.0  0.5853592540238353  0.2902096414010771  0.707477502832809  1.0000
  C   C27       1.0  0.037522462435603594  0.6594608507619668  0.21926035046347886  1.0000
  C   C28       1.0  0.5375364326729581  0.34053639386612383  0.7807335166901408  1.0000
  C   C29       1.0  0.07318028914708209  0.7072303446215427  0.16939701583809344  1.0000
  C   C30       1.0  0.5731900701445126  0.2927666709415391  0.8306014601404712  1.0000
  C   C31       1.0  0.059529927056871684  0.6613583474253985  0.33717425112564564  1.0000
  C   C32       1.0  0.5595312938714655  0.33863788744625367  0.6628201604617415  1.0000
  C   C33       1.0  0.17144676305067455  0.8400921781625783  0.16257042234284566  1.0000
  C   C34       1.0  0.6714557180869105  0.15991039978971602  0.8374369259283866  1.0000
  C   C35       1.0  0.1732581797867283  0.8797619549642944  0.12432267696943457  1.0000
  C   C36       1.0  0.6732636721102805  0.12024108402890474  0.8756876960099262  1.0000
  C   C37       1.0  0.6626883604019652  0.1082994491183698  0.10236868726126151  1.0000
  C   C38       1.0  0.1626682931669663  0.8917068652701869  0.8976296524251665  1.0000
  C   C39       1.0  0.6694204689819329  0.07528007576765117  0.9227958752504293  1.0000
  C   C40       1.0  0.1694319709391934  0.9247182716457445  0.07720236643380929  1.0000
  C   C41       1.0  0.3951712295409705  0.76300391471883  0.36338104647774117  1.0000
  C   C42       1.0  0.8951745099534207  0.2369906235675002  0.6366212387982627  1.0000
  C   C43       1.0  0.4990352853016092  0.752943701189494  0.1992211349195117  1.0000
  C   C44       1.0  0.99904725480242  0.24706017490213134  0.8007845673451256  1.0000
  C   C45       1.0  0.38728776439302237  0.8774923035603805  0.2880783479264933  1.0000
  C   C46       1.0  0.887294281663827  0.12250841385072415  0.7119320421251414  1.0000
  C   C47       1.0  0.8324095213956824  0.8762649689028376  0.245724035306452  1.0000
  C   C48       1.0  0.33242119674117987  0.12372873594611633  0.7542785779884297  1.0000
  C   C49       1.0  0.9691210193235588  0.8266774121316941  0.3863400098713469  1.0000
  C   C50       1.0  0.4691273473975953  0.17331077521140503  0.6136608677575877  1.0000
  C   C51       1.0  0.22180766999669999  0.6617862689112427  0.11455566335402519  1.0000
  C   C52       1.0  0.7218165629818072  0.3382202840083649  0.8854488592631711  1.0000
  C   C53       1.0  0.8910769334234702  0.7059553598803985  0.1258190730953928  1.0000
  C   C54       1.0  0.391097670892499  0.2940462102317909  0.8741772768056535  1.0000
  O   O1        1.0  0.4055567707013735  0.418029898933213  0.4198339688567287  1.0000
  O   O2        1.0  0.9055423478584641  0.581964135708354  0.5801603003220636  1.0000
  O   O3        1.0  0.7331668945406024  0.4392976055285231  0.559446327923659  1.0000
  O   O4        1.0  0.23317845972663062  0.5606934309285306  0.4405459458107899  1.0000
  O   O5        1.0  0.7366784309293238  0.41803001779266685  0.4240701678718466  1.0000
  O   O6        1.0  0.23665625395552325  0.5819827184549239  0.5759244382051704  1.0000
  O   O7        1.0  0.9007218644130007  0.5624771196159131  0.4448139463545928  1.0000
  O   O8        1.0  0.40070094822181085  0.4375312129020656  0.555189055322664  1.0000
  O   O9        1.0  0.5693007067544755  0.5476638052618271  0.5083267768335203  1.0000
  O   O10       1.0  0.069305986131873  0.45232915577039995  0.49166309253674717  1.0000
  O   O11       1.0  0.8334892007815142  0.05937211019723073  0.9436359607998808  1.0000
  O   O12       1.0  0.333473117729838  0.9406165658400025  0.0563585467775809  1.0000
  O   O13       1.0  0.49858033604614593  0.08520912695128399  0.0756454825538881  1.0000
  O   O14       1.0  0.9985669097828449  0.9147907563910564  0.924355138396244  1.0000
  O   O15       1.0  0.5022804396028419  0.05702585853531171  0.9394933333733135  1.0000
  O   O16       1.0  0.002263078895524  0.9429727333393461  0.0605074933709346  1.0000
  O   O17       1.0  0.331170020083242  0.9144250840465485  0.9202091334958664  1.0000
  O   O18       1.0  0.8311897819829352  0.085580001836675  0.07978209032356179  1.0000
  O   O19       1.0  0.6662981820360441  0.9531415075381487  0.9953464976406251  1.0000
  O   O20       1.0  0.16630446278650615  0.04685071815358549  0.0046536561736658984  1.0000
  O   O21       1.0  0.5469093557994426  0.8005427539707028  0.3742584388577512  1.0000
  O   O22       1.0  0.0469134244403264  0.1994531973675748  0.6257449760787493  1.0000
  O   O23       1.0  0.5833397178523471  0.6910814272653385  0.198216428791703  1.0000
  O   O24       1.0  0.0833577006778654  0.30892267661904776  0.8017846872751803  1.0000
  O   O25       1.0  0.4263575576256499  0.9254822975009204  0.2591303787300774  1.0000
  O   O26       1.0  0.9263454739547611  0.07452045603038471  0.740884661763225  1.0000
  O   O27       1.0  0.8357880321682741  0.9428124739050219  0.2413124378239431  1.0000
  O   O28       1.0  0.3358043550980057  0.05718487334224415  0.7586942547842809  1.0000
  O   O29       1.0  0.07771257527902971  0.8829801481094391  0.4094142766113151  1.0000
  O   O30       1.0  0.577719261217453  0.1170102822540358  0.5905881334616794  1.0000
  O   O31       1.0  0.26406503450505875  0.6810876024619574  0.0652260494076344  1.0000
  O   O32       1.0  0.7640880359859921  0.31891294083792576  0.9347744775192265  1.0000
  O   O33       1.0  0.8200042302979113  0.7635489334136593  0.11472259744152777  1.0000
  O   O34       1.0  0.3200187178779217  0.2364536452809673  0.8852760945796943  1.0000
