data_image0
_chemical_formula_structural       Cd4H12C8S4N12Cl8
_chemical_formula_sum              "Cd4 H12 C8 S4 N12 Cl8"
_cell_length_a       7.243206923002777
_cell_length_b       7.711957903699667
_cell_length_c       12.603342101265218
_cell_angle_alpha    96.5472808698793
_cell_angle_beta     89.99999090466926
_cell_angle_gamma    89.9999036430872

_space_group_name_H-M_alt    "P 1"
_space_group_IT_number       1

loop_
  _space_group_symop_operation_xyz
  'x, y, z'

loop_
  _atom_site_type_symbol
  _atom_site_label
  _atom_site_symmetry_multiplicity
  _atom_site_fract_x
  _atom_site_fract_y
  _atom_site_fract_z
  _atom_site_occupancy
  Cd  Cd1       1.0  0.8321090507496581  0.2634416967253941  0.2532173178094226  1.0000
  Cd  Cd2       1.0  0.3321067919889202  0.2365600476208343  0.2467814593242537  1.0000
  Cd  Cd3       1.0  0.16789171976467546  0.7365590233283401  0.7467832908018153  1.0000
  Cd  Cd4       1.0  0.6678884561063259  0.7634445753270214  0.7532186053391997  1.0000
  H   H1        1.0  0.17077919317195986  0.15048667935891302  0.0103004722271507  1.0000
  H   H2        1.0  0.6707715614577341  0.3495153188275424  0.4896975416122089  1.0000
  H   H3        1.0  0.8292229579467264  0.8495140031040479  0.989697753549983  1.0000
  H   H4        1.0  0.3292209254344059  0.6504840710334606  0.5103013950006172  1.0000
  H   H5        1.0  0.21996442827303758  0.1755577894965512  0.8787856166838921  1.0000
  H   H6        1.0  0.7199541970482672  0.3244444044676983  0.6212162672705972  1.0000
  H   H7        1.0  0.7800460064640976  0.8244481636383298  0.121216119977305  1.0000
  H   H8        1.0  0.280045192864158  0.675553730367298  0.37878576301029904  1.0000
  H   H9        1.0  0.8876574463533944  0.3611964202789011  0.9931413307204265  1.0000
  H   H10       1.0  0.38765681598289364  0.1388118846762154  0.5068522011861845  1.0000
  H   H11       1.0  0.11234470475937293  0.6388108004130046  0.006858106550822589  1.0000
  H   H12       1.0  0.612346715739122  0.8611900528059238  0.4931429309220832  1.0000
  C   C1        1.0  0.7441272902274821  0.32467049896661854  0.001787109377801207  1.0000
  C   C2        1.0  0.24411953580939647  0.17533267072758457  0.4982101795404148  1.0000
  C   C3        1.0  0.25587762209547554  0.6753341114433765  0.9982121610067338  1.0000
  C   C4        1.0  0.7558743316901445  0.8246628037128402  0.5017885067425993  1.0000
  C   C5        1.0  0.42577926345556  0.2446337621287782  0.9851295952923992  1.0000
  C   C6        1.0  0.9257774707509088  0.2553627210975975  0.5148623840260598  1.0000
  C   C7        1.0  0.5742201264566802  0.755365590136897  0.014866958485789887  1.0000
  C   C8        1.0  0.07421777735066833  0.7446353260316911  0.4851340863093014  1.0000
  S   S1        1.0  0.5916463613144529  0.3062844526044658  0.8968294933372646  1.0000
  S   S2        1.0  0.09163870104247  0.1937087545907374  0.6031678597677512  1.0000
  S   S3        1.0  0.4083640734293399  0.6937136947512814  0.10317333122056031  1.0000
  S   S4        1.0  0.908356547066923  0.8062801816196057  0.3968296150210194  1.0000
  N   N1        1.0  0.6732208708908092  0.2873681969818733  0.0914645790873436  1.0000
  N   N2        1.0  0.17321169926312766  0.21263377211474221  0.4085318457272678  1.0000
  N   N3        1.0  0.3267826608282079  0.7126364134292658  0.9085346912973264  1.0000
  N   N4        1.0  0.8267780264237177  0.7873629824091637  0.5914653354433952  1.0000
  N   N5        1.0  0.4906277561293353  0.2434250681259158  0.0840759577651511  1.0000
  N   N6        1.0  0.990617549442348  0.256576589920833  0.4159339088178555  1.0000
  N   N7        1.0  0.5093785367990409  0.7565770071825639  0.9159279114007361  1.0000
  N   N8        1.0  0.009376318053171004  0.7434228500585293  0.5840682049067993  1.0000
  N   N9        1.0  0.24948307840195139  0.20997441798147068  0.9572796165930982  1.0000
  N   N10       1.0  0.7494825967422474  0.29001857872902553  0.5427208833108708  1.0000
  N   N11       1.0  0.7505245951339178  0.7900249342773692  0.04271693718429501  1.0000
  N   N12       1.0  0.25051679317628134  0.7099718004463399  0.45728541197861017  1.0000
  Cl  Cl1       1.0  0.09139137606490524  0.4901288790320919  0.2122170464993189  1.0000
  Cl  Cl2       1.0  0.5913885451144979  0.0098758605042804  0.2877811494723446  1.0000
  Cl  Cl3       1.0  0.9086093944440636  0.5098783291310839  0.7877815964940709  1.0000
  Cl  Cl4       1.0  0.4086053223794012  0.9901261271053343  0.7122171597488035  1.0000
  Cl  Cl5       1.0  0.06878716043280522  0.028039301719964303  0.1602992033215926  1.0000
  Cl  Cl6       1.0  0.5687862654092726  0.4719641699959639  0.339698913547771  1.0000
  Cl  Cl7       1.0  0.9312149906815252  0.9719665762425009  0.8396977676724617  1.0000
  Cl  Cl8       1.0  0.4312103632944045  0.5280352449213696  0.660301611620639  1.0000
