data_image0
_chemical_formula_structural       Cu4H28C20I4N8
_chemical_formula_sum              "Cu4 H28 C20 I4 N8"
_cell_length_a       4.3116366298672855
_cell_length_b       8.742824054300845
_cell_length_c       19.16795539517329
_cell_angle_alpha    89.99955919643833
_cell_angle_beta     90.00023402909474
_cell_angle_gamma    93.32494495216508

_space_group_name_H-M_alt    "P 1"
_space_group_IT_number       1

loop_
  _space_group_symop_operation_xyz
  'x, y, z'

loop_
  _atom_site_type_symbol
  _atom_site_label
  _atom_site_symmetry_multiplicity
  _atom_site_fract_x
  _atom_site_fract_y
  _atom_site_fract_z
  _atom_site_occupancy
  Cu  Cu1       1.0  0.6927590479548442  0.5358049275276431  0.5498984037541348  1.0000
  Cu  Cu2       1.0  0.3072363141661612  0.9641937110360317  0.04989735396157609  1.0000
  Cu  Cu3       1.0  0.3072446722058615  0.46419048843156957  0.4501083661482566  1.0000
  Cu  Cu4       1.0  0.6927494499085113  0.03580844909124182  0.950106807400452  1.0000
  H   H1        1.0  0.7876033923181183  0.9116098398505417  0.5160099790536206  1.0000
  H   H2        1.0  0.2123963685843719  0.5883928233466025  0.016007553320662293  1.0000
  H   H3        1.0  0.21240810639879018  0.08839478959748703  0.4839910520915964  1.0000
  H   H4        1.0  0.7875892934722728  0.41160819123108894  0.9839893041866004  1.0000
  H   H5        1.0  0.6726947089985912  0.07543522890586021  0.562443576889258  1.0000
  H   H6        1.0  0.327304227508911  0.4245644151718296  0.06244164133944709  1.0000
  H   H7        1.0  0.32731204580070283  0.9245682225595073  0.43755693255180006  1.0000
  H   H8        1.0  0.6726859745391706  0.5754354861781794  0.937554694467806  1.0000
  H   H9        1.0  0.18526213106826359  0.9305817238128213  0.5996523924314585  1.0000
  H   H10       1.0  0.8147408980890205  0.5694150022806852  0.09964902255584458  1.0000
  H   H11       1.0  0.8147396758830182  0.06941825846381992  0.4003460301972053  1.0000
  H   H12       1.0  0.18525394588822047  0.43058493147247395  0.900344183029176  1.0000
  H   H13       1.0  0.28086825217770445  0.7704800899083751  0.5483692092501398  1.0000
  H   H14       1.0  0.7191316251483215  0.72951746050196  0.04836623249995139  1.0000
  H   H15       1.0  0.7191473786867276  0.22951884388274388  0.4516302567948214  1.0000
  H   H16       1.0  0.280847175926958  0.2704846511274824  0.9516295815941261  1.0000
  H   H17       1.0  0.009898099578599304  0.5740122344405593  0.6984762062594212  1.0000
  H   H18       1.0  0.9901181355698794  0.9259829528925965  0.19847591909819323  1.0000
  H   H19       1.0  0.9901067421084662  0.4259957832439057  0.30152795510110036  1.0000
  H   H20       1.0  0.0098803308577757  0.07400555705810771  0.8015277205895968  1.0000
  H   H21       1.0  0.8485211513007584  0.7956546891692543  0.7928785511564838  1.0000
  H   H22       1.0  0.1514984244599518  0.7043332391095875  0.29287618385337305  1.0000
  H   H23       1.0  0.15148177721914638  0.20435789478989366  0.20712247997082756  1.0000
  H   H24       1.0  0.8485062911409573  0.29564730018827146  0.7071217171067159  1.0000
  H   H25       1.0  0.45737550360153273  0.9713755167674805  0.7164682437196388  1.0000
  H   H26       1.0  0.5426294181302397  0.5286192947665144  0.21646476669850753  1.0000
  H   H27       1.0  0.5426339799893398  0.02863253334578531  0.28352965719433587  1.0000
  H   H28       1.0  0.4573647121391886  0.4713726197162559  0.7835289606043216  1.0000
  C   C1        1.0  0.5864272929187421  0.974466214856122  0.532224338043747  1.0000
  C   C2        1.0  0.413572628718569  0.5255350369863125  0.032221796507435785  1.0000
  C   C3        1.0  0.4135816808947225  0.025536107192820602  0.46777564969625707  1.0000
  C   C4        1.0  0.5864153543068866  0.47446599378866966  0.9677740175927665  1.0000
  C   C5        1.0  0.37888144548139724  0.8695010867438173  0.5781390787886805  1.0000
  C   C6        1.0  0.6211213371035882  0.6304971375389885  0.07813740301937598  1.0000
  C   C7        1.0  0.6211321702823582  0.1305012676868885  0.42186038724935315  1.0000
  C   C8        1.0  0.3788618000538477  0.36950156963533953  0.921858932786726  1.0000
  C   C9        1.0  0.858048215486555  0.6675506113909935  0.6917855778029744  1.0000
  C   C10       1.0  0.1419657941972403  0.8324469606367447  0.19178431690907155  1.0000
  C   C11       1.0  0.1419606563934082  0.33245056502285325  0.3082175401633122  1.0000
  C   C12       1.0  0.8580289478845273  0.16755182744284275  0.8082167142386962  1.0000
  C   C13       1.0  0.7755481236458691  0.7809562793833112  0.7390439022537191  1.0000
  C   C14       1.0  0.22446190779429284  0.7190393400933603  0.23904520239467078  1.0000
  C   C15       1.0  0.22445449902702558  0.21905286771757915  0.2609607808078421  1.0000
  C   C16       1.0  0.7755320186461602  0.2809502830807419  0.7609594806971811  1.0000
  C   C17       1.0  0.5771710247736692  0.8705762968507075  0.7018727615862302  1.0000
  C   C18       1.0  0.42284929559225753  0.6294119935480752  0.20187090713558578  1.0000
  C   C19       1.0  0.42282705786131186  0.12943396352488892  0.2981267044307713  1.0000
  C   C20       1.0  0.5771648058638661  0.3705697561270399  0.7981254287145416  1.0000
  I   I1        1.0  0.8181164883747628  0.6404882582852313  0.4239803092964465  1.0000
  I   I2        1.0  0.1818788890871019  0.8595145111510976  0.9239802737402696  1.0000
  I   I3        1.0  0.1818850127590963  0.35950828710322474  0.5760254171948347  1.0000
  I   I4        1.0  0.8181096037918322  0.140492247611256  0.0760228442068325  1.0000
  N   N1        1.0  0.7183679629779006  0.6853302917001614  0.6297413062082027  1.0000
  N   N2        1.0  0.281637976611151  0.8146671030329034  0.12973971459683747  1.0000
  N   N3        1.0  0.2816389957560189  0.31467545096698774  0.37026129004513547  1.0000
  N   N4        1.0  0.7183540366579065  0.18532708642015192  0.8702613165577444  1.0000
  N   N5        1.0  0.5469615386739334  0.8099635783858619  0.6369786087884817  1.0000
  N   N6        1.0  0.453044416194075  0.6900325521380495  0.13697500412803268  1.0000
  N   N7        1.0  0.45304763905725304  0.19004103488196486  0.3630213789476001  1.0000
  N   N8        1.0  0.5469476989915875  0.30996278296720453  0.8630208099840714  1.0000
