data_image0
_chemical_formula_structural       Na8H16C32O16
_chemical_formula_sum              "Na8 H16 C32 O16"
_cell_length_a       3.5095190210863967
_cell_length_b       10.741698267508093
_cell_length_c       19.02433724622692
_cell_angle_alpha    90.00107024259464
_cell_angle_beta     90.00073865881862
_cell_angle_gamma    89.99968346066147

_space_group_name_H-M_alt    "P 1"
_space_group_IT_number       1

loop_
  _space_group_symop_operation_xyz
  'x, y, z'

loop_
  _atom_site_type_symbol
  _atom_site_label
  _atom_site_symmetry_multiplicity
  _atom_site_fract_x
  _atom_site_fract_y
  _atom_site_fract_z
  _atom_site_occupancy
  Na  Na1       1.0  0.040907252083776796  0.931256833468325  0.6755759203608636  1.0000
  Na  Na2       1.0  0.959091467326914  0.4312596553654729  0.6755780634416341  1.0000
  Na  Na3       1.0  0.040887214003824085  0.5687509294440787  0.17557183802638585  1.0000
  Na  Na4       1.0  0.959108471554167  0.0687481656688789  0.17557818626183772  1.0000
  Na  Na5       1.0  0.527839859600462  0.681611249139195  0.7718124424724027  1.0000
  Na  Na6       1.0  0.4721669794522895  0.18161401115749243  0.7718144761542691  1.0000
  Na  Na7       1.0  0.5278212614307094  0.8183885931250644  0.27180783327531094  1.0000
  Na  Na8       1.0  0.4721882729066919  0.31839042420848074  0.2718130208547579  1.0000
  H   H1        1.0  0.6027608219194535  0.08220569055995242  0.9238220322319537  1.0000
  H   H2        1.0  0.397241215675308  0.5822050241959432  0.9238275718983433  1.0000
  H   H3        1.0  0.6027405281161078  0.4177905180432903  0.4238226742030308  1.0000
  H   H4        1.0  0.3972294700830261  0.9177926445522502  0.4238297908217775  1.0000
  H   H5        1.0  0.4738099217063905  0.0380623505917157  0.04962772373799142  1.0000
  H   H6        1.0  0.5262059997638956  0.5380586606486802  0.04963146821320662  1.0000
  H   H7        1.0  0.4737895445499518  0.46194495530410523  0.5496263468918701  1.0000
  H   H8        1.0  0.5261998696338422  0.9619449891978606  0.5496327196161134  1.0000
  H   H9        1.0  0.9006797913006679  0.6667963736851092  0.023053479376550008  1.0000
  H   H10       1.0  0.0993035871071797  0.16679607891801856  0.02305672685191241  1.0000
  H   H11       1.0  0.9006986526207112  0.833202001189335  0.5230549529959206  1.0000
  H   H12       1.0  0.09928825584072597  0.3332054303372161  0.5230629312325308  1.0000
  H   H13       1.0  0.02845361137603669  0.7108475128105098  0.8971751067620777  1.0000
  H   H14       1.0  0.971561469883049  0.21084472669733864  0.897176753875897  1.0000
  H   H15       1.0  0.028444060349599495  0.7891452771453017  0.3971743950240026  1.0000
  H   H16       1.0  0.9715319732781821  0.2891499387751751  0.39718287550559966  1.0000
  C   C1        1.0  0.8326820398978965  0.9000497358663678  0.9023330879514692  1.0000
  C   C2        1.0  0.16732447448854507  0.4000493194389847  0.9023364975388831  1.0000
  C   C3        1.0  0.8326871143147797  0.5999380626239273  0.40233406471805483  1.0000
  C   C4        1.0  0.16730105505545373  0.09994509390365643  0.40234167945061483  1.0000
  C   C5        1.0  0.6717005955148211  0.9913890405646698  0.9455958561676642  1.0000
  C   C6        1.0  0.328307377202428  0.4913892671376346  0.9456012264164928  1.0000
  C   C7        1.0  0.6717015292429237  0.5086069970003707  0.44559482051985827  1.0000
  C   C8        1.0  0.32828551582319676  0.008609085522842003  0.4456017676787882  1.0000
  C   C9        1.0  0.5953787398166385  0.9664456076178708  0.0158854541964644  1.0000
  C   C10       1.0  0.40463606902819993  0.4664410428881495  0.0158904807128977  1.0000
  C   C11       1.0  0.5953685204174303  0.5335549376911715  0.5158879797094544  1.0000
  C   C12       1.0  0.4046258495416454  0.03356061342783791  0.5158930062797681  1.0000
  C   C13       1.0  0.6710520784010824  0.8489403867147801  0.0445203520581643  1.0000
  C   C14       1.0  0.32895818341233957  0.34893688829347275  0.04452414690851471  1.0000
  C   C15       1.0  0.6710427038714499  0.6510553869865134  0.5445246397025444  1.0000
  C   C16       1.0  0.32895735697527323  0.1510621290239484  0.5445284346169645  1.0000
  C   C17       1.0  0.8313211741990256  0.757543363303995  0.0012360313471902005  1.0000
  C   C18       1.0  0.16868192999179854  0.2575420134850361  0.0012389185270152002  1.0000
  C   C19       1.0  0.8313358847693094  0.7424581360235009  0.5012354987582059  1.0000
  C   C20       1.0  0.16866244797314067  0.24245864820781549  0.501242591046996  1.0000
  C   C21       1.0  0.9072640604392744  0.7824784179217875  0.9309401251127557  1.0000
  C   C22       1.0  0.09274645429116651  0.28247999680313274  0.9309428312930099  1.0000
  C   C23       1.0  0.9072585809485643  0.7175092647394905  0.4309418134321918  1.0000
  C   C24       1.0  0.09272102915117127  0.21752015324072005  0.430949776062562  1.0000
  C   C25       1.0  0.9422269696300916  0.9269193776418663  0.8272942149424767  1.0000
  C   C26       1.0  0.057776703509801984  0.4269219499815976  0.8272942095668443  1.0000
  C   C27       1.0  0.9422268036347033  0.5730694606271741  0.32729490895777513  1.0000
  C   C28       1.0  0.0577651399222674  0.0730785496549515  0.32729595488783053  1.0000
  C   C29       1.0  0.5680009253429004  0.8221517366773272  0.11984675967487851  1.0000
  C   C30       1.0  0.4319922504253669  0.3221499158023207  0.11984922322756122  1.0000
  C   C31       1.0  0.5680224367658155  0.6778597521527345  0.6198444959846159  1.0000
  C   C32       1.0  0.4319881175394399  0.17785234567887193  0.6198522159022418  1.0000
  O   O1        1.0  0.9504771096364805  0.0395463067434463  0.8065251005586164  1.0000
  O   O2        1.0  0.049540272214599695  0.5395453314009941  0.806527708826117  1.0000
  O   O3        1.0  0.9505472687087175  0.460445390541949  0.3065261915204759  1.0000
  O   O4        1.0  0.04952209993619049  0.9604565176217152  0.30652722281890743  1.0000
  O   O5        1.0  0.027650924446007304  0.8341828122907273  0.7880392327514161  1.0000
  O   O6        1.0  0.9723601419791591  0.33418561047161444  0.7880419330881596  1.0000
  O   O7        1.0  0.027603585940056505  0.6658138081207242  0.28803774876776345  1.0000
  O   O8        1.0  0.9723726409628881  0.16581753731286145  0.2880472825330926  1.0000
  O   O9        1.0  0.5676749380605984  0.7096270481228332  0.14087554633234595  1.0000
  O   O10       1.0  0.43230167808514613  0.20962988156764345  0.14088589530418016  1.0000
  O   O11       1.0  0.5677173252565666  0.7903730362422294  0.6408786718494924  1.0000
  O   O12       1.0  0.4322813786204803  0.29037680069460237  0.6408890207515158  1.0000
  O   O13       1.0  0.48228321057588625  0.9146266704662124  0.15922459992510343  1.0000
  O   O14       1.0  0.5177196814017647  0.4146349367540339  0.15922989607879864  1.0000
  O   O15       1.0  0.4822835046305372  0.5853806917272737  0.6592260938521477  1.0000
  O   O16       1.0  0.5177228249321857  0.0853749937227732  0.6592303386507867  1.0000
