data_image0
_chemical_formula_structural       Cu4H30C42N20
_chemical_formula_sum              "Cu4 H30 C42 N20"
_cell_length_a       8.20459888688376
_cell_length_b       10.046692894697296
_cell_length_c       13.797343599483819
_cell_angle_alpha    98.81406533758442
_cell_angle_beta     92.49958450158493
_cell_angle_gamma    102.28519582497869

_space_group_name_H-M_alt    "P 1"
_space_group_IT_number       1

loop_
  _space_group_symop_operation_xyz
  'x, y, z'

loop_
  _atom_site_type_symbol
  _atom_site_label
  _atom_site_symmetry_multiplicity
  _atom_site_fract_x
  _atom_site_fract_y
  _atom_site_fract_z
  _atom_site_occupancy
  Cu  Cu1       1.0  0.8219399707050601  0.1857867937076206  0.4010784040769408  1.0000
  Cu  Cu2       1.0  0.1780603695134317  0.8142134352582031  0.5989225660241215  1.0000
  Cu  Cu3       1.0  0.4059272477343684  0.7320720107868224  0.13585381834905516  1.0000
  Cu  Cu4       1.0  0.5940687372675556  0.26793026073622156  0.8641487026487623  1.0000
  H   H1        1.0  0.7993427883592618  0.45595262835184514  0.5269100606257523  1.0000
  H   H2        1.0  0.20066139215708031  0.5440435001664808  0.4730862136953816  1.0000
  H   H3        1.0  0.9035767789416836  0.5842030333705848  0.6934717726289392  1.0000
  H   H4        1.0  0.09642454748211551  0.4157961777232302  0.3065254883381882  1.0000
  H   H5        1.0  0.13683156741946334  0.24647859631333094  0.7359672831337889  1.0000
  H   H6        1.0  0.8631706705500831  0.7535195762231551  0.2640335120964181  1.0000
  H   H7        1.0  0.018093361609764706  0.1313992974889828  0.568343993481669  1.0000
  H   H8        1.0  0.9819103700178362  0.8685999129972544  0.4316569618374686  1.0000
  H   H9        1.0  0.2434962711839574  0.8187974754637677  0.9648575526486736  1.0000
  H   H10       1.0  0.7564998679175687  0.18120067480356988  0.035142336608068085  1.0000
  H   H11       1.0  0.11072906928057341  0.7055878964734602  0.7992593375830666  1.0000
  H   H12       1.0  0.8892653187035435  0.294408186898984  0.2007388191431545  1.0000
  H   H13       1.0  0.10711960019141031  0.31279225752795264  0.8920726005003131  1.0000
  H   H14       1.0  0.8928777676428654  0.6872058996754474  0.10792660074347539  1.0000
  H   H15       1.0  0.2442488963466758  0.4431034077403027  0.05245247430037378  1.0000
  H   H16       1.0  0.7557524076792531  0.5568957971479164  0.9475469596858515  1.0000
  H   H17       1.0  0.5517344108335251  0.736121582652899  0.9360079249897026  1.0000
  H   H18       1.0  0.44826469318625334  0.2638786373083306  0.0639944574640126  1.0000
  H   H19       1.0  0.8120508441003125  0.8449973147862619  0.87338767850931  1.0000
  H   H20       1.0  0.1879480173920243  0.1550018803668891  0.1266116828234161  1.0000
  H   H21       1.0  0.9681446446036759  0.06262104491143107  0.1713242637290335  1.0000
  H   H22       1.0  0.031864103792848694  0.9373740575836533  0.828676378175146  1.0000
  H   H23       1.0  0.6978131502496581  0.9484655217040298  0.21963508496109083  1.0000
  H   H24       1.0  0.30219857799702515  0.0515316546220035  0.7803666014606561  1.0000
  H   H25       1.0  0.46407670348021673  0.7726120851013148  0.5036329015669168  1.0000
  H   H26       1.0  0.5359178177274728  0.2273891567460992  0.4963665619831587  1.0000
  H   H27       1.0  0.6215529424652714  0.6925244225217637  0.4503911203411163  1.0000
  H   H28       1.0  0.3784440138100464  0.3074768269922003  0.5496091402021718  1.0000
  H   H29       1.0  0.4513745635975965  0.7137094479602053  0.37277669826099197  1.0000
  H   H30       1.0  0.54862321731747  0.28629490286890297  0.627223209229136  1.0000
  C   C1        1.0  0.15178699495988468  0.12064172882644188  0.33859048489741633  1.0000
  C   C2        1.0  0.8482060101918734  0.8793584688656461  0.6614109915828335  1.0000
  C   C3        1.0  0.3085796853932905  0.9673390906093713  0.27834692846084147  1.0000
  C   C4        1.0  0.6914220391793864  0.032666309973080794  0.7216524874320243  1.0000
  C   C5        1.0  0.5724186111276026  0.32956481871870835  0.30644893098529735  1.0000
  C   C6        1.0  0.42758337090442217  0.6704416108088935  0.6935520573491585  1.0000
  C   C7        1.0  0.45691446906955946  0.47998705879848547  0.23020073095579355  1.0000
  C   C8        1.0  0.5430861360742371  0.52001420118102  0.7698010872471528  1.0000
  C   C9        1.0  0.8736629287353566  0.41280072311823085  0.5763593958171426  1.0000
  C   C10       1.0  0.1263349988133626  0.587199504386646  0.4236386042716091  1.0000
  C   C11       1.0  0.932798224969538  0.48402713848164314  0.6698364270956886  1.0000
  C   C12       1.0  0.0672040204659652  0.5159710361233748  0.3301636437948119  1.0000
  C   C13       1.0  0.028714424036422808  0.4256387568028401  0.7312539511250831  1.0000
  C   C14       1.0  0.9712836277480719  0.5743573411722166  0.2687443145813972  1.0000
  C   C15       1.0  0.05988419267546869  0.2962331766548586  0.6933779183222626  1.0000
  C   C16       1.0  0.9401168464251483  0.7037649972196858  0.306620667562079  1.0000
  C   C17       1.0  0.9952656494435956  0.23186152026066503  0.599233101857905  1.0000
  C   C18       1.0  0.00473605120937747  0.76813458817994  0.4007667215082335  1.0000
  C   C19       1.0  0.21084738899595123  0.7065382497207365  0.945666298924614  1.0000
  C   C20       1.0  0.78914903742875  0.2934609377658646  0.05433226541489938  1.0000
  C   C21       1.0  0.1346212519758652  0.6425874395877854  0.8535918479925824  1.0000
  C   C22       1.0  0.8653746147343995  0.3574096775973458  0.14640791750196766  1.0000
  C   C23       1.0  0.09839554722564964  0.49775426204952544  0.8299841007610806  1.0000
  C   C24       1.0  0.9016000470933462  0.502241822053399  0.17001554097129903  1.0000
  C   C25       1.0  0.13698908317182656  0.4252154521175127  0.9040029065683439  1.0000
  C   C26       1.0  0.86300975592264  0.5747837368300424  0.09599862778348717  1.0000
  C   C27       1.0  0.2121536486388749  0.49710786544057567  0.9941929702614587  1.0000
  C   C28       1.0  0.7878479352442724  0.5028923745983814  0.005805863147251979  1.0000
  C   C29       1.0  0.6474519909433027  0.8096288671773733  0.9861015242596733  1.0000
  C   C30       1.0  0.3525495630760176  0.1903713645874632  0.013900206507841505  1.0000
  C   C31       1.0  0.7962405865537079  0.8715496673185609  0.9514147365416292  1.0000
  C   C32       1.0  0.20375703873992282  0.12844951882998856  0.04858603714374959  1.0000
  C   C33       1.0  0.9201793757100065  0.9653555389560181  0.01651730960276858  1.0000
  C   C34       1.0  0.07982098690634842  0.0346446962154019  0.9834814874791888  1.0000
  C   C35       1.0  0.8820537010111947  0.9909352649270601  0.11516576653094289  1.0000
  C   C36       1.0  0.1179463817479416  0.009063935093621496  0.8848336311285293  1.0000
  C   C37       1.0  0.7292951945991747  0.9263533210804055  0.14367953857587415  1.0000
  C   C38       1.0  0.27070891872356384  0.0736427888211466  0.8563232548025823  1.0000
  C   C39       1.0  0.6302421348244919  0.8935268826982249  0.4247749570001672  1.0000
  C   C40       1.0  0.36975658003419903  0.10647643577915028  0.5752263117339353  1.0000
  C   C41       1.0  0.5362168466416435  0.7604495035917651  0.4387478310706  1.0000
  C   C42       1.0  0.4637803894908927  0.23955278107293035  0.5612518288951661  1.0000
  N   N1        1.0  0.2854734153725929  0.07255437084792499  0.3388567250476484  1.0000
  N   N2        1.0  0.7145326121549473  0.927448972697611  0.6611462103263789  1.0000
  N   N3        1.0  0.03495556869226141  0.17256349993587608  0.3442249423952076  1.0000
  N   N4        1.0  0.9650496491274436  0.8274367464315657  0.6557768973525667  1.0000
  N   N5        1.0  0.341723808509336  0.872642501482538  0.22782463948999518  1.0000
  N   N6        1.0  0.6582723619778506  0.12736494299517886  0.7721741179537673  1.0000
  N   N7        1.0  0.4480050681609881  0.36626844076521076  0.2650425662158398  1.0000
  N   N8        1.0  0.5519995030382816  0.6337338751732274  0.7349565873707389  1.0000
  N   N9        1.0  0.6758210250126738  0.2855193491540575  0.344975264913991  1.0000
  N   N10       1.0  0.32418553236549036  0.7144860564188278  0.6550293666638041  1.0000
  N   N11       1.0  0.44768097122252476  0.5793140291664116  0.19628607007876295  1.0000
  N   N12       1.0  0.5523128511030251  0.42068926777229615  0.8037157776880263  1.0000
  N   N13       1.0  0.9029802394029431  0.28821199037287926  0.5405620206894497  1.0000
  N   N14       1.0  0.09702107955489941  0.7117872186524038  0.45943596461737707  1.0000
  N   N15       1.0  0.2519909247804506  0.6364177788883295  0.015698392062553496  1.0000
  N   N16       1.0  0.7480082165691114  0.36358245141555995  0.9843003686926506  1.0000
  N   N17       1.0  0.6120615005964183  0.8348338134241541  0.08090865237306835  1.0000
  N   N18       1.0  0.387941267223745  0.16516642113968766  0.9190938390608991  1.0000
  N   N19       1.0  0.7048331110996457  0.0010931721397184986  0.4121721043579143  1.0000
  N   N20       1.0  0.2951613877101664  0.9989080635021068  0.5878295322112734  1.0000
