data_image0
_chemical_formula_structural       Cu12H30C54S6N42O24
_chemical_formula_sum              "Cu12 H30 C54 S6 N42 O24"
_cell_length_a       12.994618253020274
_cell_length_b       20.24628597833266
_cell_length_c       20.250061473927943
_cell_angle_alpha    115.56252308423423
_cell_angle_beta     102.34693729300162
_cell_angle_gamma    102.3378421343121

_space_group_name_H-M_alt    "P 1"
_space_group_IT_number       1

loop_
  _space_group_symop_operation_xyz
  'x, y, z'

loop_
  _atom_site_type_symbol
  _atom_site_label
  _atom_site_symmetry_multiplicity
  _atom_site_fract_x
  _atom_site_fract_y
  _atom_site_fract_z
  _atom_site_occupancy
  Cu  Cu1       1.0  0.6998594659815609  0.3139839125548106  0.824296208317833  1.0000
  Cu  Cu2       1.0  0.5472821685083175  0.08776792353723549  0.6127170190279685  1.0000
  Cu  Cu3       1.0  0.3856269471512518  0.5104016430901481  0.6861514932068147  1.0000
  Cu  Cu4       1.0  0.4593836677286305  0.5249799188842419  0.91226069346547  1.0000
  Cu  Cu5       1.0  0.8753815401571144  0.17557053643367476  0.4894918228130295  1.0000
  Cu  Cu6       1.0  0.9344724594089655  0.3872605230883224  0.47506090427130243  1.0000
  Cu  Cu7       1.0  0.30014046525871396  0.6860182311600054  0.1757046512543566  1.0000
  Cu  Cu8       1.0  0.45271962907466456  0.9122348038078129  0.38728533661421244  1.0000
  Cu  Cu9       1.0  0.6143735966335484  0.4895969973737166  0.3138479399149361  1.0000
  Cu  Cu10      1.0  0.5406131412179248  0.4750175543564623  0.08773821636490442  1.0000
  Cu  Cu11      1.0  0.12461801345061468  0.8244292718546049  0.5105060023977828  1.0000
  Cu  Cu12      1.0  0.06553024291727631  0.6127392848215009  0.524939823050218  1.0000
  H   H1        1.0  0.8526773515694756  0.4845785120801905  0.9491022170659777  1.0000
  H   H2        1.0  0.0232182643466103  0.5802656259753434  0.9602357781414952  1.0000
  H   H3        1.0  0.10857378087967351  0.5363955363484008  0.8548462549374494  1.0000
  H   H4        1.0  0.023272729032058154  0.3980169890310917  0.7454132270728948  1.0000
  H   H5        1.0  0.6711901936506306  0.9993384523338802  0.3687906644512323  1.0000
  H   H6        1.0  0.3671589821575196  0.46441282331836925  0.5154822939714307  1.0000
  H   H7        1.0  0.44197772470151603  0.37989026262518155  0.41966270625360375  1.0000
  H   H8        1.0  0.5713066127375939  0.3182555566285856  0.4633288157287085  1.0000
  H   H9        1.0  0.6243931568351399  0.34710652592082164  0.6016761001450278  1.0000
  H   H10       1.0  0.6720041889787041  0.3694517249547786  0.0005571569874261944  1.0000
  H   H11       1.0  0.9033189462710496  0.0508682756523342  0.5354440294072306  1.0000
  H   H12       1.0  0.06257699037837479  0.03968865041218808  0.6200573403589047  1.0000
  H   H13       1.0  0.25338261208777607  0.14516245913020498  0.6817511847413726  1.0000
  H   H14       1.0  0.27741861690888203  0.25460238597698037  0.6527837022596331  1.0000
  H   H15       1.0  0.30206357773194253  0.6312262279770945  0.6308656861900914  1.0000
  H   H16       1.0  0.1473227838523101  0.5154224638843061  0.05089816702273712  1.0000
  H   H17       1.0  0.9767839112994849  0.419739436788781  0.0397691180923374  1.0000
  H   H18       1.0  0.891429475544129  0.4636101101125901  0.14515756020224294  1.0000
  H   H19       1.0  0.9767310242025572  0.6019880734878525  0.25458941694337506  1.0000
  H   H20       1.0  0.3288117200966382  0.0006613556947953998  0.6312109420942136  1.0000
  H   H21       1.0  0.632841474471192  0.5355840655645211  0.4845158779976091  1.0000
  H   H22       1.0  0.5580279520310611  0.6201060417442363  0.5803384008732169  1.0000
  H   H23       1.0  0.42869807209563504  0.6817419155950902  0.5366726585660688  1.0000
  H   H24       1.0  0.37560601397321836  0.6528909470304425  0.39832461594109236  1.0000
  H   H25       1.0  0.32799702549851856  0.6305498347364276  0.9994441210860359  1.0000
  H   H26       1.0  0.09667500400288281  0.9491297818198631  0.4645542452908343  1.0000
  H   H27       1.0  0.9374191184369919  0.9603105745059608  0.379942228538937  1.0000
  H   H28       1.0  0.7466134095715019  0.8548350142069765  0.31824712300375774  1.0000
  H   H29       1.0  0.7225786025535258  0.745392751725788  0.3472117877551709  1.0000
  H   H30       1.0  0.6979404975707411  0.3687747474453218  0.3691337581670666  1.0000
  C   C1        1.0  0.8932467144373392  0.4681391568029695  0.9054996615972185  1.0000
  C   C2        1.0  0.988303947985848  0.5206474428101869  0.911248924840642  1.0000
  C   C3        1.0  0.035942710731653386  0.4960314701334028  0.8531844073851007  1.0000
  C   C4        1.0  0.9877861368244111  0.4191782161791266  0.7913846033329506  1.0000
  C   C5        1.0  0.891942860114838  0.3700360264774504  0.7889767971132002  1.0000
  C   C6        1.0  0.8284564207542783  0.29013797135699076  0.7264926211884628  1.0000
  C   C7        1.0  0.754025575997275  0.1825133715627558  0.6240486351566616  1.0000
  C   C8        1.0  0.7126368585625186  0.11495723129522158  0.547187308148331  1.0000
  C   C9        1.0  0.6716144036825611  0.030357593874647596  0.42792849523469567  1.0000
  C   C10       1.0  0.4241010618441833  0.4371445269408268  0.5317904390976339  1.0000
  C   C11       1.0  0.46654180339627505  0.39033249740627696  0.4791980085339063  1.0000
  C   C12       1.0  0.538922541349933  0.35689087694944277  0.5037149333962248  1.0000
  C   C13       1.0  0.5677070354717982  0.37193418985076926  0.5805605741897396  1.0000
  C   C14       1.0  0.521136581277041  0.41874088405011617  0.629804841094753  1.0000
  C   C15       1.0  0.5377620724438684  0.4362439146440308  0.7097467065914033  1.0000
  C   C16       1.0  0.5714077115887193  0.4416025876271378  0.8174633988256589  1.0000
  C   C17       1.0  0.5976886282626238  0.4322834574845941  0.8850123549764177  1.0000
  C   C18       1.0  0.6414236557605191  0.39762806486607616  0.9695964622348399  1.0000
  C   C19       1.0  0.9874523302615401  0.09448327279548609  0.5627092618117616  1.0000
  C   C20       1.0  0.07669469199062458  0.08874759746716167  0.609538000455146  1.0000
  C   C21       1.0  0.18240183333588078  0.14678984466927864  0.6429979014189373  1.0000
  C   C22       1.0  0.19601221534315263  0.20860258421587463  0.6279570392007514  1.0000
  C   C23       1.0  0.10262462285565017  0.21096092216476584  0.581118127925251  1.0000
  C   C24       1.0  0.10164382241318748  0.273424830983231  0.5636669241449042  1.0000
  C   C25       1.0  0.1297355451825908  0.3758337527993447  0.5584144226045069  1.0000
  C   C26       1.0  0.16526308572602488  0.45273723247790787  0.5678136332210215  1.0000
  C   C27       1.0  0.24339605803005063  0.5720625872802712  0.6026775336884427  1.0000
  C   C28       1.0  0.10675508357621058  0.5318635705346111  0.09450220027524378  1.0000
  C   C29       1.0  0.011695662047500749  0.4793587879862429  0.08875414685121537  1.0000
  C   C30       1.0  0.9640588822392502  0.503972424969426  0.1468189175102879  1.0000
  C   C31       1.0  0.012217032012735272  0.5808256787083579  0.20861844442376307  1.0000
  C   C32       1.0  0.10805765552290586  0.6299672848688332  0.21102365871855258  1.0000
  C   C33       1.0  0.17154508592167872  0.7098641721499491  0.27350845501477045  1.0000
  C   C34       1.0  0.24597237359714788  0.8174911078232865  0.3759504899028271  1.0000
  C   C35       1.0  0.28736129435228  0.8850460803554155  0.4528123289671199  1.0000
  C   C36       1.0  0.3283836603538788  0.9696439662248579  0.5720718558069465  1.0000
  C   C37       1.0  0.575900269227894  0.5628541134265531  0.4682095961093609  1.0000
  C   C38       1.0  0.5334585630623748  0.6096626399478635  0.520802358670494  1.0000
  C   C39       1.0  0.46107762135777347  0.6431054281475566  0.4962854155219319  1.0000
  C   C40       1.0  0.4322929230543975  0.6280632829965496  0.41944025021189896  1.0000
  C   C41       1.0  0.47886151047588027  0.5812560051744311  0.3701949810066195  1.0000
  C   C42       1.0  0.4622319914109311  0.5637512235565507  0.29025378162825877  1.0000
  C   C43       1.0  0.42859586431973895  0.5583989717820826  0.1825401792732605  1.0000
  C   C44       1.0  0.40230444455396946  0.5677128485553309  0.11498751287175679  1.0000
  C   C45       1.0  0.3585762741880528  0.6023740788711152  0.03040587864651902  1.0000
  C   C46       1.0  0.012542906693880619  0.9055142005934228  0.4372854812297858  1.0000
  C   C47       1.0  0.923297975046367  0.9112510440286458  0.3904598557416534  1.0000
  C   C48       1.0  0.817593810260284  0.853205293248827  0.3569978657345416  1.0000
  C   C49       1.0  0.8039847119205206  0.7913919696711601  0.37203865268427455  1.0000
  C   C50       1.0  0.8973748427348553  0.7890371345574676  0.4188794236723083  1.0000
  C   C51       1.0  0.8983576278371428  0.7265708900155659  0.43632890557729104  1.0000
  C   C52       1.0  0.8702655821385362  0.6241660553108943  0.4415855943162442  1.0000
  C   C53       1.0  0.8347412804836837  0.547264326782617  0.43218709057508425  1.0000
  C   C54       1.0  0.7566027937242266  0.42793897271529596  0.3973229256687247  1.0000
  S   S1        1.0  0.4811529909460147  0.18319175471508234  0.7512323395502564  1.0000
  S   S2        1.0  0.2978916567028307  0.5682015283214454  0.8167855029502107  1.0000
  S   S3        1.0  0.7295248836185094  0.2485043145417833  0.43184295369441383  1.0000
  S   S4        1.0  0.5188476408560161  0.8168086373148282  0.2487673671847475  1.0000
  S   S5        1.0  0.7021099661374066  0.43179769586912187  0.1832148241562877  1.0000
  S   S6        1.0  0.270477237754818  0.7514943256769014  0.5681542272097673  1.0000
  N   N1        1.0  0.8456761675822477  0.39471340674453603  0.845522405041514  1.0000
  N   N2        1.0  0.7347606145608125  0.25218409023037214  0.7325669471864487  1.0000
  N   N3        1.0  0.6863155327348308  0.18270115847824533  0.666493135424716  1.0000
  N   N4        1.0  0.844212877428468  0.24793535128467423  0.6591134951595023  1.0000
  N   N5        1.0  0.6150133949317507  0.06034426646024119  0.5270984489164405  1.0000
  N   N6        1.0  0.5891387618893376  0.006201944640430701  0.45092909680748516  1.0000
  N   N7        1.0  0.7512365905615537  0.09808583900462509  0.48716655579288937  1.0000
  N   N8        1.0  0.4502477346961981  0.45069171465853214  0.6052438473595457  1.0000
  N   N9        1.0  0.4821942059963432  0.4803659009374358  0.747832598645694  1.0000
  N   N10       1.0  0.5035154924303171  0.4838905877222146  0.8173648815216127  1.0000
  N   N11       1.0  0.5958801560898123  0.4111028427073862  0.7519156095731887  1.0000
  N   N12       1.0  0.5546338616733023  0.46676218527893093  0.9396432658125706  1.0000
  N   N13       1.0  0.5830149352722671  0.4447407435944086  0.9937723953911617  1.0000
  N   N14       1.0  0.6532562172113714  0.38916477870505156  0.9018581850426914  1.0000
  N   N15       1.0  0.9998828587139174  0.15437296453226415  0.5491390317066662  1.0000
  N   N16       1.0  0.0019551329924140702  0.2673268719177314  0.5195264250647895  1.0000
  N   N17       1.0  0.01964054392123421  0.3333722087045459  0.5160575107985323  1.0000
  N   N18       1.0  0.18477073936659136  0.34080878817281496  0.588895524954431  1.0000
  N   N19       1.0  0.08776603305699382  0.4728405700760163  0.5332503960627619  1.0000
  N   N20       1.0  0.13799822192253675  0.5490591569132659  0.5554264164070375  1.0000
  N   N21       1.0  0.2637714711950848  0.5127908146776221  0.6111115668697098  1.0000
  N   N22       1.0  0.1543274980657116  0.6052899042008945  0.1544794715917702  1.0000
  N   N23       1.0  0.26524217578265297  0.7478174692454969  0.26743405374833157  1.0000
  N   N24       1.0  0.3136829123786953  0.8173027369881254  0.33350629982051316  1.0000
  N   N25       1.0  0.1557860636347357  0.7520679602545641  0.34088575650174846  1.0000
  N   N26       1.0  0.3849863325575879  0.9396590449974409  0.4729023923695052  1.0000
  N   N27       1.0  0.4108598861139965  0.9938007830979951  0.5490713442634314  1.0000
  N   N28       1.0  0.24876019152964796  0.9019163050961153  0.5128318954383175  1.0000
  N   N29       1.0  0.5497535963758722  0.5493069257088478  0.39475618784744876  1.0000
  N   N30       1.0  0.5177995660902964  0.5196286534399588  0.2521675976744717  1.0000
  N   N31       1.0  0.4964899506819832  0.5161115553023234  0.18263920510785425  1.0000
  N   N32       1.0  0.4041198887313371  0.5888963817358218  0.24808746352059802  1.0000
  N   N33       1.0  0.44535813208785396  0.5332335370342774  0.06035570805086367  1.0000
  N   N34       1.0  0.41698274768707216  0.5552584811382388  0.0062288714468932745  1.0000
  N   N35       1.0  0.34674283700213937  0.6108356135700319  0.09814377390988935  1.0000
  N   N36       1.0  0.00011345729694050868  0.8456250925833543  0.450856605319629  1.0000
  N   N37       1.0  0.9980469896726161  0.7326717682785713  0.48046927453022203  1.0000
  N   N38       1.0  0.9803611673667944  0.6666287670446138  0.48394259615150065  1.0000
  N   N39       1.0  0.8152310902385622  0.6591892682226825  0.4111013640502533  1.0000
  N   N40       1.0  0.9122348024959733  0.5271586542110354  0.4667493289584925  1.0000
  N   N41       1.0  0.861998761766756  0.45094181948191897  0.4445745219590337  1.0000
  N   N42       1.0  0.7362292499158726  0.48721132889595953  0.38888693216939174  1.0000
  O   O1        1.0  0.5899844123735318  0.23086190511116908  0.8218990026343465  1.0000
  O   O2        1.0  0.46543250074837056  0.22543534485260613  0.7087568668012665  1.0000
  O   O3        1.0  0.38954518551219747  0.1619473211397917  0.7771674081073954  1.0000
  O   O4        1.0  0.495875852459342  0.10630834134334317  0.6990833794936365  1.0000
  O   O5        1.0  0.3595134927665312  0.591429521453648  0.7694278329625774  1.0000
  O   O6        1.0  0.23984106846349104  0.4834722036318552  0.7742668713169891  1.0000
  O   O7        1.0  0.22746868172028198  0.6153560589574026  0.8380028276703017  1.0000
  O   O8        1.0  0.3891329290560178  0.5926932188809814  0.8936988067303134  1.0000
  O   O9        1.0  0.7681009989696007  0.17797985429584165  0.4086413720259828  1.0000
  O   O10       1.0  0.755822019987825  0.2905351585792316  0.5165122228856519  1.0000
  O   O11       1.0  0.6120446291353828  0.2224991371342071  0.38451677423992703  1.0000
  O   O12       1.0  0.7963632822671796  0.30111285259572174  0.40756947653532893  1.0000
  O   O13       1.0  0.41001551929731045  0.7691402385961864  0.17810136316811762  1.0000
  O   O14       1.0  0.534565885786698  0.774562128142918  0.2912397908115381  1.0000
  O   O15       1.0  0.6104573122019656  0.8380536545278046  0.22283428846733233  1.0000
  O   O16       1.0  0.5041266461159567  0.893692634309332  0.30091732954164746  1.0000
  O   O17       1.0  0.6404876345546027  0.4085702866565909  0.23057218395817364  1.0000
  O   O18       1.0  0.7601629149468535  0.5165270202916473  0.2257367433544175  1.0000
  O   O19       1.0  0.7725283322689122  0.38464024651806034  0.16199461913715402  1.0000
  O   O20       1.0  0.6108668252886744  0.4073054217166572  0.10630249315480711  1.0000
  O   O21       1.0  0.2319011236954296  0.822018785900461  0.5913543275690287  1.0000
  O   O22       1.0  0.24417648228095593  0.7094593951073803  0.4834841794001363  1.0000
  O   O23       1.0  0.3879562952959432  0.7775018387039763  0.6154822368551365  1.0000
  O   O24       1.0  0.20363764302528858  0.6988881232275403  0.5924285470202832  1.0000
