data_image0
_chemical_formula_structural       Zn4H12C24Br2O16
_chemical_formula_sum              "Zn4 H12 C24 Br2 O16"
_cell_length_a       10.815823221296238
_cell_length_b       10.92974277990629
_cell_length_c       19.5688758532152
_cell_angle_alpha    97.68080636378069
_cell_angle_beta     91.29825020111348
_cell_angle_gamma    98.39871299374208

_space_group_name_H-M_alt    "P 1"
_space_group_IT_number       1

loop_
  _space_group_symop_operation_xyz
  'x, y, z'

loop_
  _atom_site_type_symbol
  _atom_site_label
  _atom_site_symmetry_multiplicity
  _atom_site_fract_x
  _atom_site_fract_y
  _atom_site_fract_z
  _atom_site_occupancy
  Zn  Zn1       1.0  0.3943644416956289  0.5762010262095457  0.4409303811421595  1.0000
  Zn  Zn2       1.0  0.38372547919939143  0.3772053515202812  0.5509565320848537  1.0000
  Zn  Zn3       1.0  0.6055833179940465  0.6032053349075425  0.5628853894059918  1.0000
  Zn  Zn4       1.0  0.5828852365674918  0.37854896414113165  0.43571519912561046  1.0000
  H   H1        1.0  0.4889817238513814  0.6914758355796452  0.2590183930747899  1.0000
  H   H2        1.0  0.5508452576872287  0.9395041300594544  0.6233758397229112  1.0000
  H   H3        1.0  0.2405717993699383  0.35507162901153316  0.8606314368753022  1.0000
  H   H4        1.0  0.7329080588097484  0.6936353885867489  0.06131688166960462  1.0000
  H   H5        1.0  0.6917518841426968  0.6238102673365163  0.9019165805787143  1.0000
  H   H6        1.0  0.4615545353223355  0.9643876600759501  0.4297202919774607  1.0000
  H   H7        1.0  0.007139072639937213  0.632102751481824  0.4937678315293114  1.0000
  H   H8        1.0  0.9728861528980274  0.34526518396661743  0.49011719256693465  1.0000
  H   H9        1.0  0.3209250488306735  0.39959510969401174  0.7593228791705473  1.0000
  H   H10       1.0  0.6866820229006266  0.6189392401586672  0.7746847455163891  1.0000
  H   H11       1.0  0.4286565755975716  0.45008299023322706  0.9956378912522087  1.0000
  H   H12       1.0  0.6017156075503394  0.3628412085820684  0.08203417849574633  1.0000
  C   C1        1.0  0.47386538772303055  0.1526567962136198  0.48601244399081633  1.0000
  C   C2        1.0  0.5879852620690188  0.5731638620354075  0.029566751077972214  1.0000
  C   C3        1.0  0.5075659046134007  0.5102422769937008  0.9782617821765458  1.0000
  C   C4        1.0  0.5033918521932605  0.8170378452301819  0.5198021407406588  1.0000
  C   C5        1.0  0.5035240913988304  0.5089140223543325  0.7592601583765843  1.0000
  C   C6        1.0  0.49874724695321504  0.9549590951313006  0.5336748214849296  1.0000
  C   C7        1.0  0.47373509761535354  0.017575575003576205  0.4810958664499908  1.0000
  C   C8        1.0  0.9588097391092492  0.5367215025014431  0.4914855893235598  1.0000
  C   C9        1.0  0.021821024176404108  0.4394255285462306  0.488648361351949  1.0000
  C   C10       1.0  0.16040108502170372  0.45424224116570133  0.489287630467871  1.0000
  C   C11       1.0  0.8208365374434762  0.5198490412194444  0.4967948550562797  1.0000
  C   C12       1.0  0.5687765306510004  0.5532936448312428  0.10227713311147822  1.0000
  C   C13       1.0  0.5001349995404282  0.5038421063092998  0.6831242991446944  1.0000
  C   C14       1.0  0.509038604267566  0.48786101303028323  0.31342395436516324  1.0000
  C   C15       1.0  0.5293662303219193  0.5036376588917832  0.23935471754298027  1.0000
  C   C16       1.0  0.5168561200208259  0.6207571554096204  0.22030687704719304  1.0000
  C   C17       1.0  0.5385710498655527  0.6460174632169783  0.15354709973048136  1.0000
  C   C18       1.0  0.5789639254582681  0.43567758681690094  0.12124371346428126  1.0000
  C   C19       1.0  0.56140351040127  0.41099054666102575  0.18876569669870955  1.0000
  C   C20       1.0  0.4042666215050019  0.4518346037749623  0.8625015333989768  1.0000
  C   C21       1.0  0.4017534290338034  0.4487604816147909  0.7912431670309349  1.0000
  C   C22       1.0  0.6078002374533327  0.572590399622584  0.7997841213756448  1.0000
  C   C23       1.0  0.6102130877464305  0.5750199987426753  0.8709282047968262  1.0000
  C   C24       1.0  0.509538121081988  0.5145349739559821  0.9045943516565916  1.0000
  Br  Br1       1.0  0.5768295633895946  0.2469715798916212  0.20657922228061665  1.0000
  Br  Br2       1.0  0.5189199246339626  0.8070807740007095  0.1316661412572913  1.0000
  O   O1        1.0  0.4910758766177851  0.4869272661573448  0.49714220686141913  1.0000
  O   O2        1.0  0.40234451019150436  0.4431157747455572  0.6493219862035178  1.0000
  O   O3        1.0  0.5810561783416047  0.42583359276777333  0.3418990957586488  1.0000
  O   O4        1.0  0.5954979098793771  0.5608190851690154  0.6564601012718116  1.0000
  O   O5        1.0  0.422439470130648  0.5419936363512788  0.341684776189716  1.0000
  O   O6        1.0  0.5269711811286513  0.007112637395891901  0.5995964693571028  1.0000
  O   O7        1.0  0.3053785046507187  0.3944879933160125  0.8952222360137231  1.0000
  O   O8        1.0  0.690636021477026  0.655889825275395  0.017424046816991303  1.0000
  O   O9        1.0  0.21765807065325055  0.5464879146703013  0.4629730800476467  1.0000
  O   O10       1.0  0.7591635618877036  0.4152000153788081  0.4702272030892588  1.0000
  O   O11       1.0  0.4322123305112271  0.20976434623972293  0.5398605010397973  1.0000
  O   O12       1.0  0.5524564843332129  0.7726650601508498  0.5695660047248128  1.0000
  O   O13       1.0  0.5158691941939891  0.2026620863701182  0.43358814710651244  1.0000
  O   O14       1.0  0.4587128189877774  0.7573857334853997  0.4624302210943086  1.0000
  O   O15       1.0  0.2094647304161938  0.37199977073517954  0.5166022040561843  1.0000
  O   O16       1.0  0.7761806236370106  0.6129382230868998  0.528500203101274  1.0000
