data_image0
_chemical_formula_structural       Fe2H4C6O14
_chemical_formula_sum              "Fe2 H4 C6 O14"
_cell_length_a       4.883114639947052
_cell_length_b       6.6912113603508985
_cell_length_c       8.746062628044495
_cell_angle_alpha    90.66857191904336
_cell_angle_beta     97.91895848806647
_cell_angle_gamma    94.4660135756564

_space_group_name_H-M_alt    "P 1"
_space_group_IT_number       1

loop_
  _space_group_symop_operation_xyz
  'x, y, z'

loop_
  _atom_site_type_symbol
  _atom_site_label
  _atom_site_symmetry_multiplicity
  _atom_site_fract_x
  _atom_site_fract_y
  _atom_site_fract_z
  _atom_site_occupancy
  Fe  Fe1       1.0  0.503368582675826  0.2985536691042725  0.24684805680506375  1.0000
  Fe  Fe2       1.0  0.4953469544316604  0.6998065108371349  0.7547151961626073  1.0000
  H   H1        1.0  0.9320567902881578  0.16807125622701594  0.3750304129100571  1.0000
  H   H2        1.0  0.06968456898628261  0.8356768519244896  0.6230602566372953  1.0000
  H   H3        1.0  0.7760052231857627  0.0017901381676849993  0.252525382556243  1.0000
  H   H4        1.0  0.22676317366679652  1.6109707132986815e-06  0.7459567299886418  1.0000
  C   C1        1.0  0.1362561138344205  0.07035306534588412  0.009992081105252702  1.0000
  C   C2        1.0  0.8647386498845365  0.9278675120181887  0.9894149177172056  1.0000
  C   C3        1.0  0.3693509394561119  0.4398726474527664  0.5144990619176897  1.0000
  C   C4        1.0  0.6311066552515001  0.5602033553638749  0.48633450869373024  1.0000
  C   C5        1.0  0.3783755357558078  0.5528115452441896  0.02099222651497001  1.0000
  C   C6        1.0  0.6182293216289666  0.44520580112545366  0.979961245977407  1.0000
  O   O1        1.0  0.2302658887690043  0.14342655971919532  0.8955752638130436  1.0000
  O   O2        1.0  0.7693265584888208  0.8568196219209838  0.10373433741821  1.0000
  O   O3        1.0  0.2370345969588854  0.0989872127067102  0.15314793962053844  1.0000
  O   O4        1.0  0.7622672627258923  0.8993931089360246  0.8458136426757792  1.0000
  O   O5        1.0  0.2802722400462159  0.29932167312521335  0.4160399647614882  1.0000
  O   O6        1.0  0.7149750729565341  0.705000634895697  0.5817895185488666  1.0000
  O   O7        1.0  0.2603938652258861  0.4868791989145008  0.6317337594438686  1.0000
  O   O8        1.0  0.7445715515715747  0.5083239092080588  0.37193751226762123  1.0000
  O   O9        1.0  0.2938839219922258  0.5100244701108849  0.148484082831061  1.0000
  O   O10       1.0  0.7010719733968358  0.4875694525811127  0.8518149371150872  1.0000
  O   O11       1.0  0.2813177487834793  0.6777492635739932  0.9235935721041033  1.0000
  O   O12       1.0  0.7206462686897197  0.32432046754019694  0.07873411159124542  1.0000
  O   O13       1.0  0.7460939281249139  0.1018910983907659  0.3363167398253709  1.0000
  O   O14       1.0  0.2565793682770945  0.900082379659047  0.6619476583102539  1.0000
