data_image0
_chemical_formula_structural       Zn8H36C88N16O26
_chemical_formula_sum              "Zn8 H36 C88 N16 O26"
_cell_length_a       15.116600700120356
_cell_length_b       26.114042203045027
_cell_length_c       28.224783496422226
_cell_angle_alpha    89.94738478843524
_cell_angle_beta     82.30842062631464
_cell_angle_gamma    89.32378986651638

_space_group_name_H-M_alt    "P 1"
_space_group_IT_number       1

loop_
  _space_group_symop_operation_xyz
  'x, y, z'

loop_
  _atom_site_type_symbol
  _atom_site_label
  _atom_site_symmetry_multiplicity
  _atom_site_fract_x
  _atom_site_fract_y
  _atom_site_fract_z
  _atom_site_occupancy
  Zn  Zn1       1.0  0.5723942874773013  0.9368211163628711  0.49472248680617537  1.0000
  Zn  Zn2       1.0  0.576319308099343  0.06091657502219048  0.49620509049907474  1.0000
  Zn  Zn3       1.0  0.5736252273734904  0.4366879581044855  0.9960186803761956  1.0000
  Zn  Zn4       1.0  0.5765818504227124  0.5608549127368363  0.9962313207642026  1.0000
  Zn  Zn5       1.0  0.4200206234706627  0.0005085818719336997  0.561607045439402  1.0000
  Zn  Zn6       1.0  0.41900037801798357  0.5007946997395435  0.06086913441500031  1.0000
  Zn  Zn7       1.0  0.43425671659812776  7.947044022670024e-05  0.4451057484902777  1.0000
  Zn  Zn8       1.0  0.43498901990281513  0.4997427746228168  0.9452008554378964  1.0000
  H   H1        1.0  0.5772109433379384  0.8054121515992348  0.4107149212723726  1.0000
  H   H2        1.0  0.5101595588847941  0.7299119914778344  0.6390618832738326  1.0000
  H   H3        1.0  0.5038718751708159  0.7688953453489872  0.1388830518802422  1.0000
  H   H4        1.0  0.3347998194340461  0.29672673413302414  0.20692937003534692  1.0000
  H   H5        1.0  0.4247934327858827  0.9042564797490797  0.3295099271213928  1.0000
  H   H6        1.0  0.4081160759063279  0.1043088024942236  0.3395420226463415  1.0000
  H   H7        1.0  0.4227327441254189  0.4029133365551871  0.8321256066715677  1.0000
  H   H8        1.0  0.4334920170818179  0.5947024653072717  0.8295643399114923  1.0000
  H   H9        1.0  0.0104203548531885  0.9175930872386501  0.43713943403481187  1.0000
  H   H10       1.0  0.011323395779456298  0.4172938250099491  0.9368541174756616  1.0000
  H   H11       1.0  0.9882081069524274  0.08346431031539941  0.5627534058140569  1.0000
  H   H12       1.0  0.630995000900782  0.17548717514930703  0.39187450600221757  1.0000
  H   H13       1.0  0.9879591923564843  0.5830878935561472  0.06255024739090942  1.0000
  H   H14       1.0  0.8467361308087644  0.05802399513412839  0.5336121218835715  1.0000
  H   H15       1.0  0.8468642116852365  0.5576895917595053  0.033043651250977704  1.0000
  H   H16       1.0  0.4641848188547967  0.15444159566155238  0.7481756647061103  1.0000
  H   H17       1.0  0.4620377078068926  0.8451576688514422  0.7484916162184662  1.0000
  H   H18       1.0  0.4632920211954568  0.6541429902669975  0.2486096942899323  1.0000
  H   H19       1.0  0.6211652847943935  0.28458407788423296  0.18622156799674636  1.0000
  H   H20       1.0  0.5765220503084121  0.7365692583487299  0.3480300667441085  1.0000
  H   H21       1.0  0.6382375084299098  0.24020288966496392  0.32505345207354003  1.0000
  H   H22       1.0  0.5832338992659273  0.2371712944634083  0.8461780090704707  1.0000
  H   H23       1.0  0.5849080165237905  0.30565083533426224  0.9092016470510771  1.0000
  H   H24       1.0  0.573836267318292  0.7632897408147059  0.8499035165486931  1.0000
  H   H25       1.0  0.8457521630115676  0.9271416935991182  0.44139021765769115  1.0000
  H   H26       1.0  0.8467969070405628  0.42705810613048106  0.9403639727094132  1.0000
  H   H27       1.0  0.45881072425662944  0.08739704209889959  0.684705953668761  1.0000
  H   H28       1.0  0.4576751222910642  0.9124779900156456  0.6851644763438857  1.0000
  H   H29       1.0  0.4585696673861078  0.586591265080969  0.18553167636133588  1.0000
  H   H30       1.0  0.6269991594590676  0.3479870276435051  0.11884555200459353  1.0000
  H   H31       1.0  0.5785908379501021  0.6942589782683087  0.912081768051472  1.0000
  H   H32       1.0  0.4258827063919027  0.8360777737219962  0.2664575822220954  1.0000
  H   H33       1.0  0.4128338072492283  0.1699764488390301  0.27415110643459434  1.0000
  H   H34       1.0  0.4235073651051948  0.33543697816461543  0.7685178314947478  1.0000
  H   H35       1.0  0.4320122676654563  0.6626544927025363  0.7666152761082897  1.0000
  H   H36       1.0  0.5033925879819989  0.270019328245901  0.6392313819908325  1.0000
  C   C1        1.0  0.48751412647565207  0.09858211093379049  0.5901626617783009  1.0000
  C   C2        1.0  0.11822733357656288  0.4767301362256616  0.9838901606572676  1.0000
  C   C3        1.0  0.11489828549645144  0.046581454446204915  0.5417799119821893  1.0000
  C   C4        1.0  0.11497943701807148  0.5468127786518479  0.04114547138950541  1.0000
  C   C5        1.0  0.023714788368913293  0.05312716092583259  0.5412233711022267  1.0000
  C   C6        1.0  0.023656655652693804  0.5529109346868991  0.0408720439154493  1.0000
  C   C7        1.0  0.5027784040367819  0.8589487150544739  0.3728323293576637  1.0000
  C   C8        1.0  0.5194703158166191  0.13620192645694829  0.3692032650494284  1.0000
  C   C9        1.0  0.5047484135747665  0.3581971114028449  0.8737851563965364  1.0000
  C   C10       1.0  0.50810258031332  0.640262558127823  0.8735914538044867  1.0000
  C   C11       1.0  0.458920267873175  0.867695261518719  0.33262215669814316  1.0000
  C   C12       1.0  0.49139982655553627  0.9017672166728945  0.5906344802917403  1.0000
  C   C13       1.0  0.4575842339366857  0.13453384290242806  0.3361640644123014  1.0000
  C   C14       1.0  0.4586161050069393  0.3667764545664909  0.8343540456723558  1.0000
  C   C15       1.0  0.4652693612339504  0.6314748294905215  0.8330847281243265  1.0000
  C   C16       1.0  0.4592909794240541  0.8302259233719909  0.297927573537649  1.0000
  C   C17       1.0  0.4600565885218442  0.1706772336228539  0.3000870742028212  1.0000
  C   C18       1.0  0.45880641211473255  0.32965260831807086  0.7993293901962986  1.0000
  C   C19       1.0  0.4641508194887222  0.6689036430150637  0.7984039911479783  1.0000
  C   C20       1.0  0.5030236951535869  0.7831710206351872  0.3035921581733306  1.0000
  C   C21       1.0  0.5256251655980434  0.20883958787499776  0.29641553612323424  1.0000
  C   C22       1.0  0.5047703738097338  0.28309680590442804  0.8037781717776654  1.0000
  C   C23       1.0  0.48869822708265775  0.5971761165967208  0.09091881858596912  1.0000
  C   C24       1.0  0.5048050574381974  0.7162577435841228  0.8044737667510091  1.0000
  C   C25       1.0  0.5445622169272891  0.7737569009359219  0.34442266000912275  1.0000
  C   C26       1.0  0.5880843086013525  0.2102897431797857  0.3290020197938262  1.0000
  C   C27       1.0  0.5491472911678699  0.2739037541397167  0.8436502106662261  1.0000
  C   C28       1.0  0.5446402421792482  0.7258403432928662  0.845757272122448  1.0000
  C   C29       1.0  0.5038972678450975  0.9001083405632498  0.4091565178806533  1.0000
  C   C30       1.0  0.5161605880750527  0.0965642326121099  0.4074712220464178  1.0000
  C   C31       1.0  0.5051140099966531  0.39894266528396827  0.9107004858744574  1.0000
  C   C32       1.0  0.5101056909294427  0.5986888467732497  0.909691170075071  1.0000
  C   C33       1.0  0.5452632608426665  0.8117721401117493  0.37880909642637317  1.0000
  C   C34       1.0  0.4925807568205156  0.40123934884124407  0.08965585740315872  1.0000
  C   C35       1.0  0.5842657318027873  0.1744788990356483  0.36569534575389184  1.0000
  C   C36       1.0  0.5499811203642152  0.3116180397660313  0.8782879472088538  1.0000
  C   C37       1.0  0.5475745324925895  0.6876561036612046  0.879954413690065  1.0000
  C   C38       1.0  0.4732117879816967  0.1642967301147421  0.7103336838840448  1.0000
  C   C39       1.0  0.4732243198761806  0.8353721387918397  0.710622380473275  1.0000
  C   C40       1.0  0.47262949270680105  0.6637245721999533  0.2107035640524089  1.0000
  C   C41       1.0  0.5605553531424404  0.302056032673093  0.17620741441991333  1.0000
  C   C42       1.0  0.4707176151512725  0.12740656746616708  0.6752084635570129  1.0000
  C   C43       1.0  0.4712878321274799  0.8724781820157331  0.6755308583067788  1.0000
  C   C44       1.0  0.4704260439582199  0.6265485121307391  0.17580438572916532  1.0000
  C   C45       1.0  0.976195290159012  0.0210837483435142  0.5134131033577418  1.0000
  C   C46       1.0  0.563520276216856  0.3372220958660819  0.1391283676683557  1.0000
  C   C47       1.0  0.4867145657222378  0.21575884958130584  0.6969311117848278  1.0000
  C   C48       1.0  0.489101070730264  0.7839026024584541  0.6971688449382683  1.0000
  C   C49       1.0  0.4864763589199085  0.7150732691382443  0.1969700253662197  1.0000
  C   C50       1.0  0.4775276227552466  0.28829137474195216  0.2012577905490289  1.0000
  C   C51       1.0  0.4845070944737913  0.14030028953077078  0.6265358183397325  1.0000
  C   C52       1.0  0.48811198964009594  0.8598108275467168  0.6268651311572953  1.0000
  C   C53       1.0  0.48470905390257  0.6390764562520984  0.1270703307603256  1.0000
  C   C54       1.0  0.48545413809659266  0.36061860794963246  0.1272507248011436  1.0000
  C   C55       1.0  0.49724930783617066  0.19219685615384205  0.6130949080415178  1.0000
  C   C56       1.0  0.9763696714449068  0.5208028118484548  0.012998917736929582  1.0000
  C   C57       1.0  0.5030737615360078  0.807951162108644  0.6132966213604406  1.0000
  C   C58       1.0  0.4975598531912481  0.690884915715344  0.11325915568352939  1.0000
  C   C59       1.0  0.4018169643592698  0.3460999600780781  0.15198349613852713  1.0000
  C   C60       1.0  0.4959756318196468  0.22969839612832738  0.6486661845656628  1.0000
  C   C61       1.0  0.501167388163843  0.7702009641310497  0.6487555712093069  1.0000
  C   C62       1.0  0.49615138695504146  0.7286452851608088  0.14858602965999523  1.0000
  C   C63       1.0  0.3986281875567385  0.3091037926036933  0.18813934023995674  1.0000
  C   C64       1.0  0.2627044702335013  0.0035963059623113996  0.5102822348668568  1.0000
  C   C65       1.0  0.26303152798804763  0.5045453682343677  0.009344783262655209  1.0000
  C   C66       1.0  0.7378647325437483  0.9972647414354511  0.4904824452731305  1.0000
  C   C67       1.0  0.0230468426261012  0.9811411530557519  0.4851667022000683  1.0000
  C   C68       1.0  0.7386369125147921  0.4974258610911234  0.9887650867797078  1.0000
  C   C69       1.0  0.16314424863408306  0.0083906862490153  0.5124155094567371  1.0000
  C   C70       1.0  0.16354620341657977  0.5089076259265184  0.011535914323424405  1.0000
  C   C71       1.0  0.8371796488977024  0.9933329812222597  0.487943115733998  1.0000
  C   C72       1.0  0.8377641290738109  0.4932639792280467  0.9869066029058473  1.0000
  C   C73       1.0  0.9747382686753026  0.9478428133976633  0.45874031424491335  1.0000
  C   C74       1.0  0.9754248974921395  0.44760566058860707  0.9582672653768468  1.0000
  C   C75       1.0  0.8836357473230121  0.9532805404452487  0.46077298855380633  1.0000
  C   C76       1.0  0.8844172584497583  0.4531157406210014  0.9599759380671814  1.0000
  C   C77       1.0  0.8829335117613724  0.027109795257914  0.5131776812429294  1.0000
  C   C78       1.0  0.02351563487425779  0.48100279410139984  0.984695201667833  1.0000
  C   C79       1.0  0.8831641762277441  0.5268269317971743  0.012565620787732724  1.0000
  C   C80       1.0  0.16383024089851259  0.9372950230328382  0.4554097197327209  1.0000
  C   C81       1.0  0.16436286695353164  0.437522763303292  0.9546854086515353  1.0000
  C   C82       1.0  0.5084614399014241  0.20900649115629483  0.5644141658464576  1.0000
  C   C83       1.0  0.5167228835430036  0.791962338229048  0.5643436756573976  1.0000
  C   C84       1.0  0.5092578146484213  0.7073854887247464  0.0644565938561144  1.0000
  C   C85       1.0  0.3186373438807805  0.3659662569687113  0.1405673911866714  1.0000
  C   C86       1.0  0.159617830429191  0.08011533384556907  0.5705331847966804  1.0000
  C   C87       1.0  0.15907668647632525  0.5809233952237706  0.06969478949636  1.0000
  C   C88       1.0  0.11767512685004528  0.9765097239422713  0.4845723067887562  1.0000
  N   N1        1.0  0.5063991449564824  0.7426985434533006  0.2702826217631086  1.0000
  N   N2        1.0  0.19658993956985427  0.404013277274444  0.9306668129217216  1.0000
  N   N3        1.0  0.5168318262749024  0.22641328163181376  0.5259530989868466  1.0000
  N   N4        1.0  0.5267635603606136  0.7760984248301669  0.5252820787208776  1.0000
  N   N5        1.0  0.5181080023959836  0.7245291781774056  0.02588191564831281  1.0000
  N   N6        1.0  0.24764975010351975  0.3789588514851373  0.13301510411625372  1.0000
  N   N7        1.0  0.19357151350840232  0.10875641398065028  0.5940486617687669  1.0000
  N   N8        1.0  0.1917085550599609  0.610499384259839  0.0928813947970113  1.0000
  N   N9        1.0  0.5346567959397105  0.2466616056746815  0.2603550197932876  1.0000
  N   N10       1.0  0.50801944534755  0.2428935018596974  0.770181102920077  1.0000
  N   N11       1.0  0.5071682674535509  0.7566241415412023  0.7710222819400486  1.0000
  N   N12       1.0  0.48879734065916114  0.25642856501479366  0.7296498621548936  1.0000
  N   N13       1.0  0.49119984298310004  0.7431152123273392  0.7299216273656626  1.0000
  N   N14       1.0  0.4885617571961659  0.7560035080920927  0.22940572690274763  1.0000
  N   N15       1.0  0.4665812988364592  0.2525275832287902  0.2390870873949424  1.0000
  N   N16       1.0  0.19680042429295236  0.9039255345295627  0.43145630632710663  1.0000
  O   O1        1.0  0.49963991208507946  2.192188876650023e-05  0.5007718524836164  1.0000
  O   O2        1.0  0.5653358260500879  0.6030280760297015  0.9399187265636968  1.0000
  O   O3        1.0  0.43718305238891725  0.9392333988914884  0.6004167624251125  1.0000
  O   O4        1.0  0.443164480686299  0.05835624495031059  0.6025416250229371  1.0000
  O   O5        1.0  0.431478409424919  0.4354714760620126  0.0942176638702037  1.0000
  O   O6        1.0  0.4452944778781926  0.5565614785627275  0.10324048414543091  1.0000
  O   O7        1.0  0.45582151801848875  0.0627059867385924  0.40765664962506787  1.0000
  O   O8        1.0  0.4601291806836441  0.9412725763311298  0.4030198023508262  1.0000
  O   O9        1.0  0.4564855535162025  0.5616785450982461  0.9069081387267773  1.0000
  O   O10       1.0  0.46452267964511396  0.44079730958911506  0.9035019280483071  1.0000
  O   O11       1.0  0.293577733209041  0.0025578282572809  0.5500103126612997  1.0000
  O   O12       1.0  0.5008055185280894  0.49966106074889877  0.0005693915053229143  1.0000
  O   O13       1.0  0.29383195301838316  0.5067494992085031  0.04898158333949001  1.0000
  O   O14       1.0  0.7010675463610594  0.04052560365260399  0.5019409266637922  1.0000
  O   O15       1.0  0.6987250474975821  0.9562062989636074  0.481117971056058  1.0000
  O   O16       1.0  0.7019474600447564  0.5407583707124316  8.514612805042144e-05  1.0000
  O   O17       1.0  0.6993235545264296  0.4565559502950407  0.9789280564678934  1.0000
  O   O18       1.0  0.30531696593943985  0.0014034286973441  0.4684670354967153  1.0000
  O   O19       1.0  0.30585440255287466  0.499534863872988  0.9677164117009909  1.0000
  O   O20       1.0  0.5356055055626427  0.1065975721620518  0.5503422971627003  1.0000
  O   O21       1.0  0.5493621084405544  0.8964613925763486  0.5538344235419999  1.0000
  O   O22       1.0  0.5368386211489665  0.6054487968572673  0.0511897311425002  1.0000
  O   O23       1.0  0.5596733370644386  0.398548394019862  0.056969172785727586  1.0000
  O   O24       1.0  0.5493525199920127  0.8913727232832966  0.44335553775345465  1.0000
  O   O25       1.0  0.5735330869523594  0.09928602366770888  0.436770348953992  1.0000
  O   O26       1.0  0.5464609970482144  0.38912055431683973  0.9464059483225924  1.0000
