data_image0
_chemical_formula_structural       Sm2H18C18N6O18
_chemical_formula_sum              "Sm2 H18 C18 N6 O18"
_cell_length_a       6.1775951835989895
_cell_length_b       7.698989852546152
_cell_length_c       13.436036790980545
_cell_angle_alpha    81.17770431775104
_cell_angle_beta     85.88233545110205
_cell_angle_gamma    77.01035150462688

_space_group_name_H-M_alt    "P 1"
_space_group_IT_number       1

loop_
  _space_group_symop_operation_xyz
  'x, y, z'

loop_
  _atom_site_type_symbol
  _atom_site_label
  _atom_site_symmetry_multiplicity
  _atom_site_fract_x
  _atom_site_fract_y
  _atom_site_fract_z
  _atom_site_occupancy
  Sm  Sm1       1.0  0.27578149240456906  0.29152396555848276  0.26840550221942994  1.0000
  Sm  Sm2       1.0  0.7242182350902767  0.7084794477196186  0.7315898167178645  1.0000
  H   H1        1.0  0.40209860794308133  0.4040916817012317  0.004606976201877404  1.0000
  H   H2        1.0  0.5978874036835152  0.5959033084796985  0.9953894304597097  1.0000
  H   H3        1.0  0.6193099169656622  0.6128995981698468  0.3303787676034274  1.0000
  H   H4        1.0  0.3807063404737364  0.38710808362788646  0.6696209126419744  1.0000
  H   H5        1.0  0.653025899113324  0.20921170513966564  0.9564384940320988  1.0000
  H   H6        1.0  0.34696736325656735  0.790769896173103  0.043558737623079866  1.0000
  H   H7        1.0  0.006379922912998443  0.6634769189286871  0.3077011819342914  1.0000
  H   H8        1.0  0.9936298808744723  0.3365252488555442  0.692297643056143  1.0000
  H   H9        1.0  0.061066298924615195  0.7011750982913509  0.19067582808816746  1.0000
  H   H10       1.0  0.9389451137988517  0.29882166441336006  0.8093241153378867  1.0000
  H   H11       1.0  0.3473241520975705  0.8947833269020579  0.2643079396159321  1.0000
  H   H12       1.0  0.6526783963322985  0.10522143675277111  0.7356894186946332  1.0000
  H   H13       1.0  0.13572210122151057  0.9109454368249887  0.34400575677639  1.0000
  H   H14       1.0  0.8642780278245967  0.08905660891490902  0.6559904013451499  1.0000
  H   H15       1.0  0.683845277655067  0.9923374432135146  0.36279425092404677  1.0000
  H   H16       1.0  0.31615565771102894  0.0076672856398616014  0.6372031603086725  1.0000
  H   H17       1.0  0.7305232160086778  0.1869462754880189  0.3308048739638564  1.0000
  H   H18       1.0  0.26947046126887403  0.813060984162668  0.6691933088903639  1.0000
  C   C1        1.0  0.7575470778950406  0.40705461445932656  0.18049082989812593  1.0000
  C   C2        1.0  0.2424441722297176  0.592944400631083  0.8195103085266664  1.0000
  C   C3        1.0  0.8830868975757085  0.4622837634467558  0.08547739182367307  1.0000
  C   C4        1.0  0.11692209667430832  0.5377103030341175  0.9145206053129012  1.0000
  C   C5        1.0  0.22250997657863544  0.44763842509270546  0.0021985600769553943  1.0000
  C   C6        1.0  0.7774929729159653  0.552359617907321  0.9977978243737976  1.0000
  C   C7        1.0  0.17722077315132623  0.28170640114464607  0.5153881451603295  1.0000
  C   C8        1.0  0.8227789379578854  0.7182966216937673  0.484620603585192  1.0000
  C   C9        1.0  0.3498591368380632  0.3960196697580258  0.5085117078344366  1.0000
  C   C10       1.0  0.6501502621806808  0.6039784473745299  0.49148670322906424  1.0000
  C   C11       1.0  0.5664471269871214  0.5614360914317729  0.4061584699858613  1.0000
  C   C12       1.0  0.4335594497625055  0.43856598505846023  0.5938412069493424  1.0000
  C   C13       1.0  0.6196533500386183  0.9793755394573013  0.13471084333348662  1.0000
  C   C14       1.0  0.3803302363185566  0.020621934087650104  0.8652913988863346  1.0000
  C   C15       1.0  0.8208656322136607  0.9866531440594671  0.0631663973919316  1.0000
  C   C16       1.0  0.17912479605303847  0.013332134626765007  0.9368417994408841  1.0000
  C   C17       1.0  0.809349207269456  0.11643889813121432  0.9769832864659659  1.0000
  C   C18       1.0  0.19063920638221526  0.883547713291769  0.023024124104757997  1.0000
  N   N1        1.0  0.10552545978801935  0.41098889307728836  0.08714200360895319  1.0000
  N   N2        1.0  0.8944920040630463  0.5890040449459235  0.9128543297997139  1.0000
  N   N3        1.0  0.4175847067124965  0.4570928894564972  0.41500982061648256  1.0000
  N   N4        1.0  0.5824250988956052  0.5429093217099209  0.5849875121730361  1.0000
  N   N5        1.0  0.9859898977475868  0.13039251159341353  0.9150764700191726  1.0000
  N   N6        1.0  0.013996095186222095  0.8695966916490504  0.0849330456074995  1.0000
  O   O1        1.0  0.876231506901185  0.31363274937523766  0.2518848589289958  1.0000
  O   O2        1.0  0.123789994922042  0.6863737560530225  0.748112517332359  1.0000
  O   O3        1.0  0.5483969619190108  0.44966732772395795  0.18166742361312055  1.0000
  O   O4        1.0  0.4515914814746936  0.5503467000148348  0.8183266691641717  1.0000
  O   O5        1.0  0.10567486928091095  0.2607918219546761  0.4331787484225415  1.0000
  O   O6        1.0  0.8943220286623093  0.7392153771523552  0.566823805190104  1.0000
  O   O7        1.0  0.11479445061758753  0.2150481269566384  0.6024007922538883  1.0000
  O   O8        1.0  0.8852076875816765  0.7849524558999477  0.3976006287324835  1.0000
  O   O9        1.0  0.4814694890676137  0.13052589297675612  0.13446487138974558  1.0000
  O   O10       1.0  0.5185290310424977  0.8694815578426612  0.8655301682961747  1.0000
  O   O11       1.0  0.6034382232972462  0.8325049343940305  0.18679465407698356  1.0000
  O   O12       1.0  0.39653205566440874  0.1674989380119243  0.8132104775808099  1.0000
  O   O13       1.0  0.10028502582710525  0.6102222459968448  0.25213585539045613  1.0000
  O   O14       1.0  0.8997239670888179  0.38977713021844107  0.7478654469910779  1.0000
  O   O15       1.0  0.2320290233006619  0.9779281834047211  0.30002406159262307  1.0000
  O   O16       1.0  0.7679719093344987  0.02207648037537521  0.6999755879414591  1.0000
  O   O17       1.0  0.6102315830798732  0.1209995405189304  0.3541953403580677  1.0000
  O   O18       1.0  0.38976813895309437  0.8790037426126106  0.6458044551819667  1.0000
