data_image0
_chemical_formula_structural       Cd3H36C36Br6N10O4
_chemical_formula_sum              "Cd3 H36 C36 Br6 N10 O4"
_cell_length_a       7.855675948634519
_cell_length_b       8.56242011199876
_cell_length_c       19.16020754997709
_cell_angle_alpha    98.28281647746368
_cell_angle_beta     91.5662143224033
_cell_angle_gamma    100.98694828616995

_space_group_name_H-M_alt    "P 1"
_space_group_IT_number       1

loop_
  _space_group_symop_operation_xyz
  'x, y, z'

loop_
  _atom_site_type_symbol
  _atom_site_label
  _atom_site_symmetry_multiplicity
  _atom_site_fract_x
  _atom_site_fract_y
  _atom_site_fract_z
  _atom_site_occupancy
  Cd  Cd1       1.0  0.49999915494657904  0.4999987917659542  0.4999993964744292  1.0000
  Cd  Cd2       1.0  0.5970897953296942  0.6054918750424748  0.27289344873634047  1.0000
  Cd  Cd3       1.0  0.4029149837252177  0.39450084705695343  0.7271093114125267  1.0000
  H   H1        1.0  0.25087718685640686  0.5696039226224914  0.3605510054219111  1.0000
  H   H2        1.0  0.7491213217090192  0.43039484101301895  0.6394489143967663  1.0000
  H   H3        1.0  0.39754982872342043  0.8811405684917021  0.5535154907755173  1.0000
  H   H4        1.0  0.6024512537302584  0.11885822262153312  0.4464839556130543  1.0000
  H   H5        1.0  0.1658439303194683  0.004385622349459997  0.4771349343126659  1.0000
  H   H6        1.0  0.8341591676202145  0.9956167874966938  0.5228647916369981  1.0000
  H   H7        1.0  0.931346279582627  0.8182576344070684  0.3647639225239488  1.0000
  H   H8        1.0  0.06865227717374013  0.18174115274962332  0.6352349557189783  1.0000
  H   H9        1.0  0.039550208458848636  0.6957389365409343  0.30610308526524943  1.0000
  H   H10       1.0  0.9604518779325417  0.3042586470454794  0.6938968202960114  1.0000
  H   H11       1.0  0.43074348236056176  0.1731946708618111  0.3572195834196706  1.0000
  H   H12       1.0  0.569257401420856  0.8268029401478146  0.6427787360990893  1.0000
  H   H13       1.0  0.05629737697256589  0.37125542658529304  0.47558392092203416  1.0000
  H   H14       1.0  0.9437037460614732  0.6287373542625688  0.5244151226750803  1.0000
  H   H15       1.0  0.8880744093239769  0.10782469671302411  0.37900926941055973  1.0000
  H   H16       1.0  0.11192644275138268  0.8921668687494633  0.6209902096803577  1.0000
  H   H17       1.0  0.25222451301151244  0.9365875945716198  0.2835773330358577  1.0000
  H   H18       1.0  0.7477771037489376  0.0634075935258167  0.7164218811493941  1.0000
  H   H19       1.0  0.03124947763607375  0.9463591944913291  0.26244915901883564  1.0000
  H   H20       1.0  0.9687529038094667  0.0536396162410568  0.7375497902607437  1.0000
  H   H21       1.0  0.19593802610557987  0.07646076893324501  0.12481756644087483  1.0000
  H   H22       1.0  0.8040658530040831  0.9235392415219084  0.8751820125995381  1.0000
  H   H23       1.0  0.8875073217012854  0.9249622582396243  0.09321795222223983  1.0000
  H   H24       1.0  0.1124968266649731  0.0750340198332324  0.9067871232814328  1.0000
  H   H25       1.0  0.519173563636848  0.03541932216406711  0.18223335933587495  1.0000
  H   H26       1.0  0.48082695280400856  0.9645770264178137  0.8177674788281737  1.0000
  H   H27       1.0  0.6090511755335726  0.8615219431852169  0.15294266633727466  1.0000
  H   H28       1.0  0.39094563839754676  0.13847938839159474  0.8470495648936949  1.0000
  H   H29       1.0  0.5513602227643093  0.7424610426226935  0.03414660042275842  1.0000
  H   H30       1.0  0.44864042640925555  0.2575605741666323  0.9658548926254585  1.0000
  H   H31       1.0  0.4591654288254717  0.753441419666821  0.9096812197845169  1.0000
  H   H32       1.0  0.5408350863516561  0.24657301851412694  0.09031822281455253  1.0000
  H   H33       1.0  0.69030449855007  0.24155324755706437  0.23948243349381942  1.0000
  H   H34       1.0  0.3096926869280239  0.7584454846986974  0.7605185042217144  1.0000
  H   H35       1.0  0.9871704732020633  0.4068702748926755  0.27483726125154123  1.0000
  H   H36       1.0  0.012824704400607352  0.5931308724167155  0.7251627581186144  1.0000
  C   C1        1.0  0.26076975270571984  0.6682701232060779  0.4037640651667688  1.0000
  C   C2        1.0  0.7392315525156903  0.3317298597713502  0.5962359873037429  1.0000
  C   C3        1.0  0.3332938395391808  0.832715980810292  0.5021223363514695  1.0000
  C   C4        1.0  0.6667018482747906  0.1672815517227023  0.49787797160324493  1.0000
  C   C5        1.0  0.21982511022242335  0.8970267081208693  0.4645331821674362  1.0000
  C   C6        1.0  0.7801764900531297  0.10297450200252463  0.5354659140214012  1.0000
  C   C7        1.0  0.05838815555190993  0.8068619980267967  0.3442794011893399  1.0000
  C   C8        1.0  0.9416094454576865  0.19313802017789075  0.6557179763051622  1.0000
  C   C9        1.0  0.3084480974174966  0.1939246640434291  0.3777973827950661  1.0000
  C   C10       1.0  0.6915527863639143  0.8060729469661966  0.6222009367236938  1.0000
  C   C11       1.0  0.10981669157361303  0.2913118361428958  0.43695621439172794  1.0000
  C   C12       1.0  0.8901834275227145  0.7086821522317736  0.5630423700326901  1.0000
  C   C13       1.0  0.024468064648594603  0.1620638899172135  0.3897945220862909  1.0000
  C   C14       1.0  0.9755332811531758  0.8379300827948484  0.6102051275927567  1.0000
  C   C15       1.0  0.12689266963216284  0.948093232950477  0.3055311455348645  1.0000
  C   C16       1.0  0.8731099827720499  0.051906793167283596  0.694467368250912  1.0000
  C   C17       1.0  0.29781981413600533  0.34702450106538413  0.22254879232433925  1.0000
  C   C18       1.0  0.7021752911802538  0.6529766109622274  0.7774527894094378  1.0000
  C   C19       1.0  0.11486534155596223  0.25516582092834034  0.20170160215769786  1.0000
  C   C20       1.0  0.8851303779640602  0.7448377571517993  0.798297546224859  1.0000
  C   C21       1.0  0.0865279199985238  0.11740699182155374  0.1501041424190532  1.0000
  C   C22       1.0  0.9134730660732658  0.8825917522493186  0.8498973871210115  1.0000
  C   C23       1.0  0.9194253342206906  0.03321158983757751  0.13223037440508287  1.0000
  C   C24       1.0  0.08057052817007104  0.9667871110384425  0.8677715812073078  1.0000
  C   C25       1.0  0.6055177135067851  0.9854915221842264  0.14507832281214667  1.0000
  C   C26       1.0  0.39448406134557246  0.01451085628218609  0.8549224210343741  1.0000
  C   C27       1.0  0.5516766663378551  0.9934996725549826  0.06990816550791124  1.0000
  C   C28       1.0  0.4483256956569903  0.006518302034756098  0.9300952021673511  1.0000
  C   C29       1.0  0.5283912933281201  0.8551807791970918  0.018948979761404423  1.0000
  C   C30       1.0  0.47161935634429863  0.14483972035716164  0.9810515758480708  1.0000
  C   C31       1.0  0.47690682928084277  0.8612875275000678  0.9493141578107825  1.0000
  C   C32       1.0  0.5231029111336627  0.138729278855692  0.05068978743158682  1.0000
  C   C33       1.0  0.8066471447463996  0.21163348152661143  0.21581376419482728  1.0000
  C   C34       1.0  0.19335051036264167  0.7883676462181343  0.7841878648967155  1.0000
  C   C35       1.0  0.9719788849629724  0.3018035601918784  0.23424651787306774  1.0000
  C   C36       1.0  0.028017567536082293  0.6981975949760724  0.7657535251759742  1.0000
  Br  Br1       1.0  0.7206627100636781  0.4816862298487337  0.3778514896436463  1.0000
  Br  Br2       1.0  0.2793357456660318  0.5182933346476517  0.6221455741429625  1.0000
  Br  Br3       1.0  0.5993802782526887  0.9097804371532735  0.32036198517128883  1.0000
  Br  Br4       1.0  0.4006196180758934  0.09021235935720281  0.6796359931711964  1.0000
  Br  Br5       1.0  0.7817129077639747  0.6066099703065718  0.16157180436106705  1.0000
  Br  Br6       1.0  0.21827933157569387  0.393376745265961  0.8384266706923926  1.0000
  N   N1        1.0  0.3571671735909305  0.689874062443714  0.46389706656306373  1.0000
  N   N2        1.0  0.6428331035972975  0.31012711629993817  0.53610304752263  1.0000
  N   N3        1.0  0.1750710841862287  0.7912211638103205  0.40206561673048224  1.0000
  N   N4        1.0  0.8249292411929402  0.20878003845451334  0.597933455779476  1.0000
  N   N5        1.0  0.2865820680931179  0.310068705864758  0.4288898193470417  1.0000
  N   N6        1.0  0.713418767497359  0.6899288816236863  0.5711095417474611  1.0000
  N   N7        1.0  0.15231737657676805  0.1014706295157453  0.35263132465524194  1.0000
  N   N8        1.0  0.8476835313001204  0.8985269932544642  0.6473664740756393  1.0000
  N   N9        1.0  0.7831438108144013  0.08120661256315032  0.16514819314350865  1.0000
  N   N10       1.0  0.2168545049872607  0.9187920569876342  0.8348558929781408  1.0000
  O   O1        1.0  0.3107062214981796  0.4945874529522315  0.2507983361781641  1.0000
  O   O2        1.0  0.6892949150549371  0.505412447701062  0.7492053618074481  1.0000
  O   O3        1.0  0.4206913563229194  0.274067698398362  0.2113447135675913  1.0000
  O   O4        1.0  0.5793035744165422  0.7259322452862308  0.7886552205085027  1.0000
