data_image0
_chemical_formula_structural       H40Pd4C48S8
_chemical_formula_sum              "H40 Pd4 C48 S8"
_cell_length_a       6.699878306086509
_cell_length_b       14.352886279686608
_cell_length_c       12.98043176240785
_cell_angle_alpha    90.00243576305928
_cell_angle_beta     89.99962345923701
_cell_angle_gamma    89.99827577384367

_space_group_name_H-M_alt    "P 1"
_space_group_IT_number       1

loop_
  _space_group_symop_operation_xyz
  'x, y, z'

loop_
  _atom_site_type_symbol
  _atom_site_label
  _atom_site_symmetry_multiplicity
  _atom_site_fract_x
  _atom_site_fract_y
  _atom_site_fract_z
  _atom_site_occupancy
  H   H1        1.0  0.3461661607023103  0.8803780961388127  0.1767670310353324  1.0000
  H   H2        1.0  0.3462188108522568  0.11963702875414131  0.17677506522157674  1.0000
  H   H3        1.0  0.8461687083166184  0.8803829993354811  0.8232339353907959  1.0000
  H   H4        1.0  0.8461691192059533  0.1196217276412455  0.8232203976095106  1.0000
  H   H5        1.0  0.34920370350744895  0.744467535752477  0.2959002656051979  1.0000
  H   H6        1.0  0.34925407025699673  0.2555491479074519  0.2959096762097104  1.0000
  H   H7        1.0  0.8491783345460461  0.7444764164130291  0.7040915831815653  1.0000
  H   H8        1.0  0.8491451187392515  0.2555238898843157  0.7040848138073769  1.0000
  H   H9        1.0  0.22994523171143297  0.5904013068518239  0.2363417561233589  1.0000
  H   H10       1.0  0.22990395222309698  0.40961536864523396  0.23638580715135762  1.0000
  H   H11       1.0  0.7298554609537432  0.5904075032908764  0.7636261848878334  1.0000
  H   H12       1.0  0.7298694068698595  0.409597179953714  0.7636371071404255  1.0000
  H   H13       1.0  0.10304762907645679  0.5719948790977939  0.055690921073796994  1.0000
  H   H14       1.0  0.10298562657342811  0.42801686864272176  0.0557420759889027  1.0000
  H   H15       1.0  0.6029781321183452  0.5720082821758651  0.9442861360571086  1.0000
  H   H16       1.0  0.603011653919289  0.42801215703478596  0.9442933769026779  1.0000
  H   H17       1.0  0.1078388739619172  0.7059441528957963  0.9359094715561226  1.0000
  H   H18       1.0  0.10776558119641778  0.2940653222002254  0.9359625960923027  1.0000
  H   H19       1.0  0.6078073074126918  0.7059576784054044  0.0640732597990734  1.0000
  H   H20       1.0  0.6078250610090307  0.2940656102353215  0.0640755371088417  1.0000
  H   H21       1.0  0.845885776425483  0.3802724246509186  0.3232576839565482  1.0000
  H   H22       1.0  0.8458742068114303  0.6196828087236241  0.32322066700110236  1.0000
  H   H23       1.0  0.34584613664720365  0.38031144526588895  0.6767567500272449  1.0000
  H   H24       1.0  0.34585844906665386  0.619704410498741  0.6767551697069364  1.0000
  H   H25       1.0  0.8490640666335098  0.2442808385513686  0.2042231796210103  1.0000
  H   H26       1.0  0.849089014588692  0.7556762384283927  0.2041983352514265  1.0000
  H   H27       1.0  0.3490672667221233  0.24431936871416582  0.7957890568147549  1.0000
  H   H28       1.0  0.34907878234502476  0.755698047068023  0.7957780784288175  1.0000
  H   H29       1.0  0.7303158332697136  0.0901791730804078  0.2639218686912912  1.0000
  H   H30       1.0  0.7303476408966175  0.9097892360282033  0.2638946909342934  1.0000
  H   H31       1.0  0.23035059597216898  0.09020785166588041  0.7360934114106428  1.0000
  H   H32       1.0  0.2302973281491489  0.909802586946583  0.7360824113491586  1.0000
  H   H33       1.0  0.6037773163062284  0.07181060438339411  0.44466117002556166  1.0000
  H   H34       1.0  0.6038107910025233  0.9281784310996813  0.444624144045477  1.0000
  H   H35       1.0  0.10382464065745009  0.0718111770934158  0.5553609133190776  1.0000
  H   H36       1.0  0.1037939352308896  0.9281803973491877  0.5553423772026775  1.0000
  H   H37       1.0  0.6082574503816361  0.20585618257100435  0.5643002518826776  1.0000
  H   H38       1.0  0.6082781487972185  0.7941378606325175  0.5642559383541865  1.0000
  H   H39       1.0  0.10829475873278939  0.2058475115691678  0.435724440656557  1.0000
  H   H40       1.0  0.10825276992766669  0.7941291892628257  0.4357255805524218  1.0000
  Pd  Pd1       1.0  0.9858867709847062  7.842507564199994e-06  0.9984614113562316  1.0000
  Pd  Pd2       1.0  0.48589242380019465  6.002114510300001e-06  0.0015416035772090999  1.0000
  Pd  Pd3       1.0  0.9860067931701549  0.4999936764207575  0.4983653742880279  1.0000
  Pd  Pd4       1.0  0.48601117910335745  0.4999932559942195  0.5016187688636435  1.0000
  C   C1        1.0  0.2279296494543885  0.8016427994660873  0.04878443685305459  1.0000
  C   C2        1.0  0.22792292123813945  0.1983745889087629  0.0488077098232935  1.0000
  C   C3        1.0  0.727933435944955  0.8016503974574788  0.9512089290366886  1.0000
  C   C4        1.0  0.7279356635677275  0.19836337564414208  0.9512114001421635  1.0000
  C   C5        1.0  0.29357482333458756  0.8125263035250969  0.1507536344477032  1.0000
  C   C6        1.0  0.2936166380666947  0.1874771077893769  0.1507700460120134  1.0000
  C   C7        1.0  0.7935838959014277  0.8125449695064759  0.8492442329299195  1.0000
  C   C8        1.0  0.7935779491578998  0.1874727825502234  0.8492383019205008  1.0000
  C   C9        1.0  0.2956484532447448  0.7362589889586104  0.2171414948964596  1.0000
  C   C10       1.0  0.2956877838248175  0.2637456639809912  0.21714970034993536  1.0000
  C   C11       1.0  0.7956307350981717  0.7362819615727079  0.7828560789956923  1.0000
  C   C12       1.0  0.7956312599961209  0.26373658777842485  0.7828496451129681  1.0000
  C   C13       1.0  0.2290380622770343  0.6491931626778965  0.1831733799228488  1.0000
  C   C14       1.0  0.22903980568630536  0.3508127580244462  0.18320411028992112  1.0000
  C   C15       1.0  0.7290031584939598  0.6492094277867865  0.8168140555283969  1.0000
  C   C16       1.0  0.7290168429476224  0.3508046382597811  0.8168124277803558  1.0000
  C   C17       1.0  0.15898384394066062  0.638977124557826  0.08258941675332918  1.0000
  C   C18       1.0  0.1589505253958023  0.36103790498403754  0.082615362263347  1.0000
  C   C19       1.0  0.6589451169784508  0.6389879415472848  0.917402907240799  1.0000
  C   C20       1.0  0.6589685161855527  0.3610313040219566  0.9173988059973935  1.0000
  C   C21       1.0  0.15959087271681946  0.7145010393122745  0.0149203302407912  1.0000
  C   C22       1.0  0.1595644627753217  0.2855106677604198  0.0149538115363441  1.0000
  C   C23       1.0  0.659584934005487  0.7145089003351401  0.985070612850471  1.0000
  C   C24       1.0  0.6595973309097474  0.2855045945761673  0.9850732773487324  1.0000
  C   C25       1.0  0.728004241843493  0.3015655978756938  0.45132127203036276  1.0000
  C   C26       1.0  0.7280094157097211  0.6984119123418608  0.4512748384021208  1.0000
  C   C27       1.0  0.22799172136839727  0.3015698768652157  0.5487040475134606  1.0000
  C   C28       1.0  0.22799241795213734  0.6984168874017342  0.5486984446512011  1.0000
  C   C29       1.0  0.793426340023352  0.3124316063598727  0.34931497434028813  1.0000
  C   C30       1.0  0.7934308010862594  0.6875317719606998  0.3492732378177124  1.0000
  C   C31       1.0  0.293401070289427  0.31245825884518313  0.6507102256464918  1.0000
  C   C32       1.0  0.2934249357836336  0.6875396121218176  0.6507077776450245  1.0000
  C   C33       1.0  0.7955552713638453  0.23615326912519663  0.2829784350174975  1.0000
  C   C34       1.0  0.7955662028087715  0.7638199608975  0.28295160610686304  1.0000
  C   C35       1.0  0.2955314175477283  0.23617561701345832  0.7170372238668108  1.0000
  C   C36       1.0  0.29555429001430156  0.7638318576459042  0.717022720423536  1.0000
  C   C37       1.0  0.729329196511607  0.1490486823242207  0.3170088235834356  1.0000
  C   C38       1.0  0.7293607475709863  0.8509305079242679  0.3169783314923578  1.0000
  C   C39       1.0  0.2293165570844735  0.14906659234451075  0.6830113242348971  1.0000
  C   C40       1.0  0.2293257201660523  0.8509407537860554  0.683000861917094  1.0000
  C   C41       1.0  0.65950250313162  0.138826496940986  0.4176562234765413  1.0000
  C   C42       1.0  0.6595258578889868  0.8611627452601951  0.41761786569171727  1.0000
  C   C43       1.0  0.1594921939678287  0.13882686503767158  0.5823757418784794  1.0000
  C   C44       1.0  0.15949465299559756  0.8611638099025071  0.5823558736404735  1.0000
  C   C45       1.0  0.6599781354063624  0.21440598245388287  0.4852707771179965  1.0000
  C   C46       1.0  0.6599875066391193  0.7855816934923752  0.4852260808475534  1.0000
  C   C47       1.0  0.1599708607894783  0.2144051242267864  0.5147567352058573  1.0000
  C   C48       1.0  0.15995784395084908  0.7855801381022262  0.5147467065959574  1.0000
  S   S1        1.0  0.23672576814225718  0.8932913772632675  0.9570507954630472  1.0000
  S   S2        1.0  0.23671814943215  0.1067164818764255  0.9570593996024002  1.0000
  S   S3        1.0  0.7367280797682839  0.8933000341558638  0.042955588231542705  1.0000
  S   S4        1.0  0.7367085206186773  0.106720958615341  0.0429572586499489  1.0000
  S   S5        1.0  0.7368797046111553  0.3932800605143427  0.5429653375798082  1.0000
  S   S6        1.0  0.7368735442995276  0.6067110006970395  0.5429388954264169  1.0000
  S   S7        1.0  0.23688463147826866  0.393277645035596  0.4570398802348876  1.0000
  S   S8        1.0  0.2368799641029398  0.6067044045179201  0.4570342383311115  1.0000
