data_image0
_chemical_formula_structural       Al4H30C44Cl6O20
_chemical_formula_sum              "Al4 H30 C44 Cl6 O20"
_cell_length_a       6.735337316614417
_cell_length_b       17.929376547163095
_cell_length_c       20.789146324146806
_cell_angle_alpha    72.42231106026246
_cell_angle_beta     89.99842530231457
_cell_angle_gamma    89.99948697114088

_space_group_name_H-M_alt    "P 1"
_space_group_IT_number       1

loop_
  _space_group_symop_operation_xyz
  'x, y, z'

loop_
  _atom_site_type_symbol
  _atom_site_label
  _atom_site_symmetry_multiplicity
  _atom_site_fract_x
  _atom_site_fract_y
  _atom_site_fract_z
  _atom_site_occupancy
  Al  Al1       1.0  0.09961040522220088  0.5001528807684965  0.49892400301882117  1.0000
  Al  Al2       1.0  0.5996105144108697  0.4998486333998216  0.5010786111985155  1.0000
  Al  Al3       1.0  0.6589988990616221  0.9998790640492744  0.0009451098718003037  1.0000
  Al  Al4       1.0  0.1589985516451407  0.0001253382164421062  0.9990499289549463  1.0000
  H   H1        1.0  0.8306110436805839  0.11200231104341192  0.297258900429803  1.0000
  H   H2        1.0  0.3306119785624517  0.8879986924636541  0.7027377296748226  1.0000
  H   H3        1.0  0.19959569220183226  0.24571579307865224  0.2008347301033737  1.0000
  H   H4        1.0  0.6995899720849224  0.7542856610047013  0.7991454188288785  1.0000
  H   H5        1.0  0.1569813104005178  0.15649345511457116  0.2642162789537821  1.0000
  H   H6        1.0  0.6569940705745978  0.8435088646489747  0.7357667366572755  1.0000
  H   H7        1.0  0.11004410563567292  0.22047002052741504  0.3446498918560579  1.0000
  H   H8        1.0  0.610016157051156  0.779528519611944  0.655336581958565  1.0000
  H   H9        1.0  0.6596915809967072  0.2831323018729607  0.1540845211492439  1.0000
  H   H10       1.0  0.1597059472433813  0.71687180711578  0.8459296156319099  1.0000
  H   H11       1.0  0.6615689534284499  0.36688795649634204  0.2207048091398462  1.0000
  H   H12       1.0  0.1615581578752554  0.6331143015295598  0.7793098350319667  1.0000
  H   H13       1.0  0.5675075777046459  0.24485618359093317  0.3017600285859174  1.0000
  H   H14       1.0  0.0674908712877738  0.7551434712591604  0.6982534356367083  1.0000
  H   H15       1.0  0.9167459947201593  0.38797394717541783  0.20381540803587236  1.0000
  H   H16       1.0  0.41673714528491257  0.6120287665689051  0.7961834848862565  1.0000
  H   H17       1.0  0.3998688171244851  0.15885550246319724  0.40336781580612785  1.0000
  H   H18       1.0  0.5149381791613337  0.07866490868212143  0.3849520129504782  1.0000
  H   H19       1.0  0.5410119188678664  0.09065733977649168  0.4663900570510719  1.0000
  H   H20       1.0  0.8530491201780563  0.13593661972928572  0.40129159995429825  1.0000
  H   H21       1.0  0.7294858259575037  0.21471383302513664  0.41832482618657  1.0000
  H   H22       1.0  0.8998357618324208  0.8411256748058735  0.5966455352933764  1.0000
  H   H23       1.0  0.014871774504214797  0.921323779377481  0.6150564926042462  1.0000
  H   H24       1.0  0.0409676565430956  0.909330767031456  0.5336182326856972  1.0000
  H   H25       1.0  0.3530135271839399  0.8640695236095939  0.598702771194354  1.0000
  H   H26       1.0  0.2294681875793003  0.785283586915057  0.581680245476143  1.0000
  H   H27       1.0  0.35071234490106923  0.4020895606388493  0.5009349515249255  1.0000
  H   H28       1.0  0.85070613962165  0.5979106605614746  0.49907207164842055  1.0000
  H   H29       1.0  0.4078434281487375  0.09745030590256222  0.00045203484133790026  1.0000
  H   H30       1.0  0.9078410487452758  0.9025538744547248  0.9995459122751316  1.0000
  C   C1        1.0  0.3471677236972113  0.5781080007329892  0.5761720744204055  1.0000
  C   C2        1.0  0.8471805878290724  0.4218812965251218  0.4238376138992662  1.0000
  C   C3        1.0  0.3516783253903313  0.606886478709612  0.3962267111748972  1.0000
  C   C4        1.0  0.8516821558254364  0.39311360810383195  0.6037707548961677  1.0000
  C   C5        1.0  0.8579143129896352  0.33210651853250545  0.6675377512394505  1.0000
  C   C6        1.0  0.3579147346968555  0.6678893730699614  0.33245719522563644  1.0000
  C   C7        1.0  0.8721746373097616  0.27969216473434233  0.7209609226336653  1.0000
  C   C8        1.0  0.37218007881755716  0.7203043761950882  0.2790369109357798  1.0000
  C   C9        1.0  0.8872365237461253  0.22173621321294953  0.7798609009838272  1.0000
  C   C10       1.0  0.3872354664564952  0.7782662538005953  0.2201357328949101  1.0000
  C   C11       1.0  0.9011999145887941  0.16911524047694126  0.8331521697563743  1.0000
  C   C12       1.0  0.40117713672066924  0.83089488374808  0.1668447625061162  1.0000
  C   C13       1.0  0.7557691472171016  0.16626310902618266  0.26852611672505583  1.0000
  C   C14       1.0  0.2557702059533469  0.8337394475737342  0.7314766630121312  1.0000
  C   C15       1.0  0.0965333686304888  0.21514124828827624  0.24081437829166666  1.0000
  C   C16       1.0  0.5965334426725093  0.7848604924509746  0.759172677513007  1.0000
  C   C17       1.0  0.0761159083094967  0.2586492611226703  0.2938122804380612  1.0000
  C   C18       1.0  0.5761021693453401  0.741352496345272  0.7061749492387719  1.0000
  C   C19       1.0  0.8442760198398319  0.376567341268107  0.37720135924949016  1.0000
  C   C20       1.0  0.3442507568503005  0.6234209397228413  0.6228113810972928  1.0000
  C   C21       1.0  0.8940821289270814  0.20762832556933125  0.2085492871164405  1.0000
  C   C22       1.0  0.3940847953001096  0.7923761550464408  0.7914462606630791  1.0000
  C   C23       1.0  0.7157181602362571  0.21872484505642126  0.3139715170842692  1.0000
  C   C24       1.0  0.21570345344281347  0.7812766751415484  0.6860331235384862  1.0000
  C   C25       1.0  0.8618431443464658  0.29027942901532816  0.29318540237677126  1.0000
  C   C26       1.0  0.3618236693242309  0.7097202412787457  0.706816505649499  1.0000
  C   C27       1.0  0.8083265475750209  0.3404421252268293  0.2205234872773829  1.0000
  C   C28       1.0  0.3083181575818799  0.6595612191137618  0.7794813490623369  1.0000
  C   C29       1.0  0.8091769234650954  0.2899936736929902  0.1723259254140856  1.0000
  C   C30       1.0  0.3091811331831735  0.7100105693831155  0.8276778883087417  1.0000
  C   C31       1.0  0.8455786912280845  0.33723285856546426  0.3388217894788355  1.0000
  C   C32       1.0  0.3455581998972406  0.6627623278646554  0.6611853336308401  1.0000
  C   C33       1.0  0.9108499166829843  0.16134604475914932  0.162310782710847  1.0000
  C   C34       1.0  0.4108580151806791  0.8386582017843128  0.8376836194605914  1.0000
  C   C35       1.0  0.9135155446069305  0.12195456435495801  0.12404091729300148  1.0000
  C   C36       1.0  0.41353733103540685  0.8780451322526163  0.8759570313654308  1.0000
  C   C37       1.0  0.4072071585643045  0.8923900619464008  0.10326327937521282  1.0000
  C   C38       1.0  0.9072257106087348  0.10761691835723039  0.8967346418615706  1.0000
  C   C39       1.0  0.41119790046637666  0.9228183048256258  0.9230632815785781  1.0000
  C   C40       1.0  0.9111707258553849  0.07718538156051122  0.07693112402204601  1.0000
  C   C41       1.0  0.7186936993098386  0.17271583337736024  0.3893162235055669  1.0000
  C   C42       1.0  0.5338324131165919  0.12202336849531296  0.4121735784675877  1.0000
  C   C43       1.0  0.2186637715713076  0.8272802552973674  0.6106879497242588  1.0000
  C   C44       1.0  0.033791533818615  0.8779669837386809  0.5878347474080314  1.0000
  Cl  Cl1       1.0  0.5303091265436422  0.13376576300454704  0.2395638159523514  1.0000
  Cl  Cl2       1.0  0.0303099742413551  0.866240709599964  0.760446370661704  1.0000
  Cl  Cl3       1.0  0.2559597027588651  0.33652993464871633  0.2798779789441852  1.0000
  Cl  Cl4       1.0  0.7559434044976143  0.6634722534968208  0.720102686807337  1.0000
  Cl  Cl5       1.0  0.9500753617294747  0.3368617996921729  0.097570186081704  1.0000
  Cl  Cl6       1.0  0.4501008005464868  0.6631464531377419  0.9024218264768465  1.0000
  O   O1        1.0  0.5199050810236869  0.5835723586323668  0.4225964819842787  1.0000
  O   O2        1.0  0.0199103109822545  0.4164294086839534  0.5774012795107738  1.0000
  O   O3        1.0  0.17921132858050018  0.5612617616627066  0.5561038433609014  1.0000
  O   O4        1.0  0.6792250761273311  0.43873013304398983  0.44390825263935346  1.0000
  O   O5        1.0  0.18070317840687977  0.5834712680476387  0.41998628628667944  1.0000
  O   O6        1.0  0.6807174868372242  0.41652899126894033  0.5800191693184543  1.0000
  O   O7        1.0  0.017570118558595  0.43974793260731104  0.4413512969581674  1.0000
  O   O8        1.0  0.517558054373076  0.5602482702303108  0.5586530809734924  1.0000
  O   O9        1.0  0.3496158700237046  0.45400464232027826  0.5060879276818113  1.0000
  O   O10       1.0  0.8496126723674281  0.545997497865308  0.4939150622411431  1.0000
  O   O11       1.0  0.2409753289976848  0.9404017957825557  0.9409407263712168  1.0000
  O   O12       1.0  0.7409604585564794  0.05959634440792883  0.05906373668710779  1.0000
  O   O13       1.0  0.5780739161657138  0.9159473423887339  0.0796036560183708  1.0000
  O   O14       1.0  0.07810684342106812  0.08405558379102024  0.9203850516909782  1.0000
  O   O15       1.0  0.5792552616404905  0.9397432685102843  0.9429738082160029  1.0000
  O   O16       1.0  0.0792446098568007  0.0602712120970708  0.057008729022165  1.0000
  O   O17       1.0  0.7388219783128989  0.08411589274963664  0.9227616056718801  1.0000
  O   O18       1.0  0.23878737405294706  0.915892106837902  0.0772417606149887  1.0000
  O   O19       1.0  0.4089679425418637  0.04595784066288647  0.9943548960924745  1.0000
  O   O20       1.0  0.9089673495962458  0.9540456091106653  0.005643552226153801  1.0000
