data_image0
_chemical_formula_structural       Zn6H24C44N12O24
_chemical_formula_sum              "Zn6 H24 C44 N12 O24"
_cell_length_a       7.893768519
_cell_length_b       9.104056027812913
_cell_length_c       19.041
_cell_angle_alpha    90.0
_cell_angle_beta     90.0
_cell_angle_gamma    110.4782028473245

_space_group_name_H-M_alt    "P 1"
_space_group_IT_number       1

loop_
  _space_group_symop_operation_xyz
  'x, y, z'

loop_
  _atom_site_type_symbol
  _atom_site_label
  _atom_site_symmetry_multiplicity
  _atom_site_fract_x
  _atom_site_fract_y
  _atom_site_fract_z
  _atom_site_occupancy
  Zn  Zn1       1.0  7.937259240902945e-07  0.99999882749227  0.5000005251825002  1.0000
  Zn  Zn2       1.0  0.49999866667122467  1.17250773e-06  0.9999994748174998  1.0000
  Zn  Zn3       1.0  0.8328826323936485  0.3051533447305914  0.4708802058715377  1.0000
  Zn  Zn4       1.0  0.6671155944455833  0.6948515319635646  0.9708781051415372  1.0000
  Zn  Zn5       1.0  0.1671254748988886  0.6948527044713018  0.5291208444934625  1.0000
  Zn  Zn6       1.0  0.332875891694016  0.30515099971512427  0.0291234704059633  1.0000
  H   H1        1.0  0.9593909774489475  0.8798099366092487  0.3033438369833519  1.0000
  H   H2        1.0  0.5406066238278341  0.1201902500539802  0.8033433118008517  1.0000
  H   H3        1.0  0.04060795715660959  0.1201890775462502  0.6966545874691477  1.0000
  H   H4        1.0  0.45940053727245805  0.8798134541324458  0.196655637834148  1.0000
  H   H5        1.0  0.9322097851933437  0.7884610317397716  0.1792159025261313  1.0000
  H   H6        1.0  0.5677836949874973  0.2115414999389174  0.6792180032561319  1.0000
  H   H7        1.0  0.06778866061893749  0.21154618996984445  0.8207804211963676  1.0000
  H   H8        1.0  0.43221049295967623  0.7884551692011144  0.3207825219263682  1.0000
  H   H9        1.0  0.8152662015969838  0.1957677534242777  0.11544456698702989  1.0000
  H   H10       1.0  0.6847252180358865  0.8042359507621484  0.6154424662570221  1.0000
  H   H11       1.0  0.1847295581048769  0.8042359507621484  0.8845559581954703  1.0000
  H   H12       1.0  0.3152627882673684  0.1957642359010876  0.3845564833779704  1.0000
  H   H13       1.0  0.8371541700621917  0.2851093250570784  0.2402063967228614  1.0000
  H   H14       1.0  0.6628399513782526  0.7148885165906902  0.7402048211753609  1.0000
  H   H15       1.0  0.16283400440454443  0.7148849990674933  0.7597946536421389  1.0000
  H   H16       1.0  0.3371645236116265  0.2851116700725385  0.2597941284596388  1.0000
  H   H17       1.0  0.3821695336670885  0.2231973992998064  0.5764445144687755  1.0000
  H   H18       1.0  0.11783277911806075  0.7768086499020797  0.0764460900162831  1.0000
  H   H19       1.0  0.6178409548032207  0.7768051323788825  0.4235570610787248  1.0000
  H   H20       1.0  0.882157760829287  0.2231915367611492  0.9235570610787249  1.0000
  H   H21       1.0  0.4514140204021757  0.5451187771015285  0.5942660574549663  1.0000
  H   H22       1.0  0.04858813991666011  0.4548837545771676  0.0942697337324745  1.0000
  H   H23       1.0  0.5486012147265313  0.4548860995926346  0.4057313166325329  1.0000
  H   H24       1.0  0.951403666852741  0.5451164320860613  0.9057292159025251  1.0000
  C   C1        1.0  0.8997610110220009  0.1293428454076775  0.3556814242949429  1.0000
  C   C2        1.0  0.6002353234327344  0.8706573412555514  0.8556782731999347  1.0000
  C   C3        1.0  0.10024141911706148  0.8706491337014342  0.6443243527125659  1.0000
  C   C4        1.0  0.3997567725721467  0.1293592605159191  0.1443264534425737  1.0000
  C   C5        1.0  0.8956771044415107  0.08599757958197068  0.2796607321044036  1.0000
  C   C6        1.0  0.604321595493843  0.9140084696199151  0.7796586313744029  1.0000
  C   C7        1.0  0.10431944898627421  0.9140049520967253  0.7203397930780966  1.0000
  C   C8        1.0  0.3956811395778601  0.0859905445355835  0.22033821753058896  1.0000
  C   C9        1.0  0.9267829991756572  0.9479279457904397  0.2619274197783739  1.0000
  C   C10       1.0  0.573208741087015  0.05207341338052628  0.7619253190483661  1.0000
  C   C11       1.0  0.0732083344976147  0.0520710683650591  0.7380731054041263  1.0000
  C   C12       1.0  0.426788910999342  0.9479349808368269  0.2380731054041263  1.0000
  C   C13       1.0  0.9119845352225369  0.8974467979095735  0.1926553227246472  1.0000
  C   C14       1.0  0.5880144853426187  0.1025569062768525  0.6926558479071474  1.0000
  C   C15       1.0  0.0880175585895628  0.1025569062768525  0.8073436269103524  1.0000
  C   C16       1.0  0.4119869829070382  0.8974421078786463  0.3073431017278523  1.0000
  C   C17       1.0  0.8676518322197992  0.9849451873881279  0.1397300561945301  1.0000
  C   C18       1.0  0.6323432354128898  0.015054999275100999  0.6397305813770302  1.0000
  C   C19       1.0  0.1323439274820615  0.0150585167982982  0.8602704689879702  1.0000
  C   C20       1.0  0.3676567978512395  0.9849498774190549  0.3602720445354776  1.0000
  C   C21       1.0  0.8491210599394209  0.128495122317652  0.1568966966020682  1.0000
  C   C22       1.0  0.6508774875296126  0.871507409361044  0.6568951210545677  1.0000
  C   C23       1.0  0.150875493488364  0.871507409361044  0.8431054041279324  1.0000
  C   C24       1.0  0.3491209739798293  0.12849043228672485  0.3431048789454323  1.0000
  C   C25       1.0  0.8609800889003266  0.1778952180698852  0.22647234914132497  1.0000
  C   C26       1.0  0.6390132388141866  0.8221037960856137  0.726469198046324  1.0000
  C   C27       1.0  0.1390099779508986  0.8221037960856137  0.7735292264061755  1.0000
  C   C28       1.0  0.3609855276278893  0.17790108060854234  0.2735287012236753  1.0000
  C   C29       1.0  0.8185589988940549  0.9183256430880604  0.0678693345937731  1.0000
  C   C30       1.0  0.6814378086568027  0.0816757160829056  0.5678698597762732  1.0000
  C   C31       1.0  0.1814343796300335  0.0816815786215628  0.9321290898587264  1.0000
  C   C32       1.0  0.31856176720835805  0.9183186080416661  0.4321290898587264  1.0000
  C   C33       1.0  0.30225694635110767  0.2944671092638202  0.5627230712672642  1.0000
  C   C34       1.0  0.19774252785730081  0.7055319048916786  0.0627251719972719  1.0000
  C   C35       1.0  0.6977468873791608  0.7055377674303358  0.4372758783677355  1.0000
  C   C36       1.0  0.8022503932678191  0.29446476424836016  0.9372758783677355  1.0000
  C   C37       1.0  0.33776218517306944  0.4539961662242646  0.5706160390735775  1.0000
  C   C38       1.0  0.1622379145977888  0.5460075379621614  0.0706170894385778  1.0000
  C   C39       1.0  0.662241343624558  0.5460016754234971  0.4293818601964148  1.0000
  C   C40       1.0  0.8377583182001942  0.4539973387320018  0.9293839609264225  1.0000
  C   C41       1.0  0.12276320669348449  0.53213208146515  0.3198624021847607  1.0000
  C   C42       1.0  0.3772525994323815  0.46785403510529716  0.8198497978047357  1.0000
  C   C43       1.0  0.8772560284591506  0.4678481725666401  0.6801433748227481  1.0000
  C   C44       1.0  0.6227552186246683  0.5321355989883472  0.180142849640248  1.0000
  N   N1        1.0  0.14211763440212616  0.23448630374067383  0.5291901685835825  1.0000
  N   N2        1.0  0.3578777187103412  0.7655150554302921  0.029191218948582797  1.0000
  N   N3        1.0  0.8578830401216068  0.765513882922555  0.47081193214641803  1.0000
  N   N4        1.0  0.6421056934008504  0.23448630374067383  0.9708066803214095  1.0000
  N   N5        1.0  0.08104397729137246  0.3505024262697772  0.5163809673861692  1.0000
  N   N6        1.0  0.41895264264314147  0.6494989329011815  0.0163809673861692  1.0000
  N   N7        1.0  0.9189571703284827  0.6494989329011815  0.48362113334383855  1.0000
  N   N8        1.0  0.5810315631939673  0.3505012537620473  0.9836153563363298  1.0000
  N   N9        1.0  0.19806971795943443  0.4853173652613307  0.5414048631899604  1.0000
  N   N10       1.0  0.3019269019750865  0.5146839939096353  0.0414059135549607  1.0000
  N   N11       1.0  0.8019352301265669  0.5146839939096353  0.45859408644503935  1.0000
  N   N12       1.0  0.698062844246344  0.4853173652613307  0.958593036080039  1.0000
  O   O1        1.0  0.9706544595035851  0.05987058979636829  0.3971015177774291  1.0000
  O   O2        1.0  0.5293445610615706  0.9401331143900578  0.8971009925949288  1.0000
  O   O3        1.0  0.029333546799669735  0.9401295968668605  0.6028969066750705  1.0000
  O   O4        1.0  0.4706730552449089  0.0598682447809082  0.10289533112757  1.0000
  O   O5        1.0  0.8313933089232819  0.2339094299366735  0.3732004621606038  1.0000
  O   O6        1.0  0.6686096645743405  0.7660977917729495  0.8732004621606038  1.0000
  O   O7        1.0  0.168610677273314  0.7660989642806797  0.626801638569404  1.0000
  O   O8        1.0  0.3313963978673868  0.23390004987481916  0.1268000630219035  1.0000
  O   O9        1.0  0.8232482342647669  0.780305067958025  0.0554256604169936  1.0000
  O   O10       1.0  0.6767428804354552  0.2196916011820065  0.5554225093219927  1.0000
  O   O11       1.0  0.1767378796539916  0.2196904286742765  0.9445753899480067  1.0000
  O   O12       1.0  0.323261273924615  0.7803109304966895  0.4445759151305069  1.0000
  O   O13       1.0  0.7638220305343921  0.9924902746416535  0.0221469460637564  1.0000
  O   O14       1.0  0.7361773106605654  0.0075110845293054  0.5221469460637564  1.0000
  O   O15       1.0  0.2361781708932114  0.007508739513845299  0.977854629483744  1.0000
  O   O16       1.0  0.263817182219249  0.9924926196571207  0.4778530539362436  1.0000
  O   O17       1.0  0.2278090962801045  0.4757966024798748  0.3392011974161022  1.0000
  O   O18       1.0  0.2721972008318261  0.5241942041214998  0.8391875426710769  1.0000
  O   O19       1.0  0.772203789065138  0.5241930316137697  0.6608187595189321  1.0000
  O   O20       1.0  0.7278107696915442  0.4757989474953419  0.1608192847014323  1.0000
  O   O21       1.0  0.018729485396860864  0.5889541511590863  0.3000315109500562  1.0000
  O   O22       1.0  0.4812795135226438  0.4110307929036381  0.8000241583950398  1.0000
  O   O23       1.0  0.9812978394813427  0.4110178953185866  0.699956409852426  1.0000
  O   O24       1.0  0.5187209928376076  0.5889752562982551  0.1999616616774347  1.0000
