data_image0
_chemical_formula_structural       Cd4H40C64S4N8O16
_chemical_formula_sum              "Cd4 H40 C64 S4 N8 O16"
_cell_length_a       9.661011805
_cell_length_b       9.673806182709155
_cell_length_c       19.3846
_cell_angle_alpha    90.0
_cell_angle_beta     90.0
_cell_angle_gamma    105.13447341934342

_space_group_name_H-M_alt    "P 1"
_space_group_IT_number       1

loop_
  _space_group_symop_operation_xyz
  'x, y, z'

loop_
  _atom_site_type_symbol
  _atom_site_label
  _atom_site_symmetry_multiplicity
  _atom_site_fract_x
  _atom_site_fract_y
  _atom_site_fract_z
  _atom_site_occupancy
  Cd  Cd1       1.0  0.8929026473348857  0.1070690003753825  0.5555430599548075  1.0000
  Cd  Cd2       1.0  0.6070983852869459  0.3929322229230721  0.0555430599548075  1.0000
  Cd  Cd3       1.0  0.10709819657439822  0.8929313044988375  0.4444569400451925  1.0000
  Cd  Cd4       1.0  0.3929014235340702  0.6070680819511551  0.9444569400451925  1.0000
  H   H1        1.0  0.7520835863577489  0.8430880633555375  0.6569988547609924  1.0000
  H   H2        1.0  0.7479171619620429  0.6569123939557997  0.1569983388875684  1.0000
  H   H3        1.0  0.8429753153748363  0.7519074327050035  0.3430609865563383  1.0000
  H   H4        1.0  0.6570243978566809  0.7480930246063338  0.8430609865563383  1.0000
  H   H5        1.0  0.24791650241974847  0.1569133123800341  0.3430016611124316  1.0000
  H   H6        1.0  0.2520836819472407  0.3430879109184204  0.8430016611124317  1.0000
  H   H7        1.0  0.1570252485779662  0.2480918013078792  0.6569390134436618  1.0000
  H   H8        1.0  0.3429756909208166  0.2519083511292308  0.1569384975702377  1.0000
  H   H9        1.0  0.5443990584209643  0.6303411114874606  0.6638909237229527  1.0000
  H   H10       1.0  0.9556016898988275  0.8696593458238766  0.16389143959638372  1.0000
  H   H11       1.0  0.6302054168516307  0.5442759854656032  0.3360770921246754  1.0000
  H   H12       1.0  0.8697940164234055  0.9557234009843896  0.8360776079980995  1.0000
  H   H13       1.0  0.4556007504000519  0.3696591933867595  0.33610907627704734  1.0000
  H   H14       1.0  0.044398874053968  0.1303398881890061  0.8361090762770473  1.0000
  H   H15       1.0  0.36979439196938557  0.45572431940862407  0.6639229078753246  1.0000
  H   H16       1.0  0.1302068274858783  0.0442769038898305  0.1639223920019006  1.0000
  H   H17       1.0  0.4243283836112822  0.7395175669830536  0.4591247691466407  1.0000
  H   H18       1.0  0.07567358663020941  0.7604828903282836  0.9591247691466408  1.0000
  H   H19       1.0  0.7396203580717754  0.4244508847894579  0.5408478895618174  1.0000
  H   H20       1.0  0.7603790795488122  0.0755481967863147  0.04084840543524141  1.0000
  H   H21       1.0  0.5756734953862689  0.2604827378911665  0.5408752308533593  1.0000
  H   H22       1.0  0.9243269773225864  0.23951634368459912  0.0408752308533593  1.0000
  H   H23       1.0  0.26037945074923396  0.5755494200847693  0.45915211043818266  1.0000
  H   H24       1.0  0.23962148440398326  0.9244510372265681  0.9591515945647586  1.0000
  H   H25       1.0  0.6355528953467129  0.947149014222454  0.462527986133324  1.0000
  H   H26       1.0  0.864447852973079  0.5528514430888833  0.962527986133324  1.0000
  H   H27       1.0  0.9473254644660756  0.635661150632373  0.5375215377155058  1.0000
  H   H28       1.0  0.5526739688089606  0.8643382358176197  0.0375220535889298  1.0000
  H   H29       1.0  0.36444691347430347  0.0528512906517733  0.537472013866676  1.0000
  H   H30       1.0  0.13555195584793722  0.44714886178534397  0.03747201386667601  1.0000
  H   H31       1.0  0.05267509948672711  0.3643380833805097  0.4624784622844942  1.0000
  H   H32       1.0  0.4473258400120486  0.1356620690566075  0.9624784622844942  1.0000
  H   H33       1.0  0.5110519669561526  0.4889552885601773  0.7871495929758653  1.0000
  H   H34       1.0  0.9889464355761671  0.0110437930155953  0.2871495929758652  1.0000
  H   H35       1.0  0.4889465268201008  0.5110439454527054  0.2128498911507037  1.0000
  H   H36       1.0  0.01105337324484891  0.988956511858632  0.7128504070241348  1.0000
  H   H37       1.0  0.5954611020514023  0.4045457141723787  0.6655375916964986  1.0000
  H   H38       1.0  0.9045373004809107  0.0954533674033939  0.1655375916964985  1.0000
  H   H39       1.0  0.4045373917248511  0.595453519840504  0.3344624083035015  1.0000
  H   H40       1.0  0.09546250834009844  0.9045469374708334  0.8344624083035016  1.0000
  C   C1        1.0  0.6770451097370582  0.8141266183728106  0.6140905667385468  1.0000
  C   C2        1.0  0.8229556385827337  0.6858738389385195  0.1140905667385468  1.0000
  C   C3        1.0  0.8140456665859546  0.6769300050137446  0.3859532825026051  1.0000
  C   C4        1.0  0.6859548017773491  0.8230693814362553  0.8859532825026052  1.0000
  C   C5        1.0  0.32295441912746975  0.185872615640065  0.3859099491348772  1.0000
  C   C6        1.0  0.1770452053265501  0.3141264659357006  0.8859099491348773  1.0000
  C   C7        1.0  0.1859541422350546  0.3230702998604826  0.6140472333708189  1.0000
  C   C8        1.0  0.31404500704365995  0.1769309234379719  0.1140467174973949  1.0000
  C   C9        1.0  0.5604733767309824  0.6943411395663048  0.6169985452369389  1.0000
  C   C10       1.0  0.9395266164570227  0.8056603886063769  0.1169985452369389  1.0000
  C   C11       1.0  0.6942366750770574  0.5603613936773044  0.3829932007882562  1.0000
  C   C12       1.0  0.8057627581979787  0.9396379927726883  0.8829937166616801  1.0000
  C   C13       1.0  0.4395264320900338  0.3056591653079224  0.3830014547630611  1.0000
  C   C14       1.0  0.06047319236398611  0.1943399162678503  0.8830014547630611  1.0000
  C   C15       1.0  0.3057620986556842  0.4396389111969228  0.6170067992117438  1.0000
  C   C16       1.0  0.1942370506230375  0.060362312101531805  0.1170062833383199  1.0000
  C   C17       1.0  0.46558467461107256  0.6604965668660299  0.5608147704879158  1.0000
  C   C18       1.0  0.03441419036560942  0.8395038904453074  0.0608137387410608  1.0000
  C   C19       1.0  0.66047469635636  0.4655655351376354  0.43917491204358333  1.0000
  C   C20       1.0  0.8395254963960141  0.0344324755767929  0.9391749120435833  1.0000
  C   C21       1.0  0.5344151342099365  0.3395037380081902  0.43918574538551525  1.0000
  C   C22       1.0  0.9655853384989185  0.1604953435675753  0.9391862612589393  1.0000
  C   C23       1.0  0.3395248325081681  0.5344336988752474  0.5608250879564167  1.0000
  C   C24       1.0  0.16047534751326964  0.9655678292974272  0.06082508795641671  1.0000
  C   C25       1.0  0.49452965290156925  0.7537771566073772  0.5039742888684842  1.0000
  C   C26       1.0  0.005470247163380318  0.7462233007039529  0.0039742888684842  1.0000
  C   C27       1.0  0.7538569633262213  0.49459016093950947  0.496017457156711  1.0000
  C   C28       1.0  0.7461435093826339  0.0054089206362633  0.996018488903566  1.0000
  C   C29       1.0  0.5054701559194398  0.2462231482668429  0.49602622700493987  1.0000
  C   C30       1.0  0.9945292817011476  0.2537759333089298  0.9960262270049399  1.0000
  C   C31       1.0  0.2461438805830554  0.5054101439347178  0.5039820269698652  1.0000
  C   C32       1.0  0.25385629943837534  0.994591384237964  0.0039815110964341  1.0000
  C   C33       1.0  0.6126485082668296  0.8716490061965062  0.5053862344335158  1.0000
  C   C34       1.0  0.8873519600964742  0.6283503802534867  0.0053867503069469  1.0000
  C   C35       1.0  0.8717375982140396  0.6127029543304872  0.4946576148076289  1.0000
  C   C36       1.0  0.6282628701492641  0.8872964321195056  0.994657098934205  1.0000
  C   C37       1.0  0.3873510205976984  0.1283502278163766  0.49461376556648423  1.0000
  C   C38       1.0  0.11264756876805389  0.371648853759396  0.9946137655664843  1.0000
  C   C39       1.0  0.1282632456952442  0.3872973505437329  0.505342901065795  1.0000
  C   C40       1.0  0.3717369386717451  0.1127038727547145  0.005342901065795  1.0000
  C   C41       1.0  0.6228888257138153  0.3771391598576201  0.9098727856133237  1.0000
  C   C42       1.0  0.8771119269515282  0.122860992579497  0.4098727856133237  1.0000
  C   C43       1.0  0.3771109831071939  0.622861145016607  0.0901272143866763  1.0000
  C   C44       1.0  0.12288891695775563  0.8771393122947302  0.5901272143866763  1.0000
  C   C45       1.0  0.6394304538551694  0.3605729349035514  0.8352795518091654  1.0000
  C   C46       1.0  0.8605692637218995  0.1394272175335587  0.3352795518091654  1.0000
  C   C47       1.0  0.3605693549658398  0.6394273699706687  0.1647204481908346  1.0000
  C   C48       1.0  0.13943054509910982  0.8605730873406614  0.6647204481908346  1.0000
  C   C49       1.0  0.5815875904527417  0.4184262188817911  0.7801486747211683  1.0000
  C   C50       1.0  0.918411847167846  0.0815728626939816  0.2801486747211683  1.0000
  C   C51       1.0  0.41841193841177937  0.5815730151310916  0.2198508094054077  1.0000
  C   C52       1.0  0.08158768169668211  0.9184263713189013  0.7198513252788318  1.0000
  C   C53       1.0  0.6257456554795766  0.3742606845714818  0.7162979891253869  1.0000
  C   C54       1.0  0.8742537821410111  0.1257383970042909  0.2162979891253869  1.0000
  C   C55       1.0  0.37425387338494426  0.625738549441401  0.2837020108746131  1.0000
  C   C56       1.0  0.12574602668000523  0.8742619078699363  0.7837020108746131  1.0000
  C   C57       1.0  0.7156400538493769  0.2843608040854662  0.7238730745024426  1.0000
  C   C58       1.0  0.7843606988159664  0.215639348351651  0.22387307450244257  1.0000
  C   C59       1.0  0.284359475015151  0.7156384299274166  0.27612692549755746  1.0000
  C   C60       1.0  0.21564042504979852  0.7843620273839207  0.7761269254975575  1.0000
  C   C61       1.0  0.7820777809995362  0.21791385784113967  0.668899022935733  1.0000
  C   C62       1.0  0.7179219365775324  0.2820862945959703  0.168898507062309  1.0000
  C   C63       1.0  0.21792278295325926  0.782085376171743  0.331101492937691  1.0000
  C   C64       1.0  0.2820778722434767  0.7179140102782497  0.831100977064267  1.0000
  S   S1        1.0  0.7461081450592602  0.2538830194430801  0.8086563560764759  1.0000
  S   S2        1.0  0.7538912925613274  0.24611606213268536  0.3086563560764759  1.0000
  S   S3        1.0  0.2538913838052608  0.7461162145698026  0.1913436439235241  1.0000
  S   S4        1.0  0.24610851625968877  0.7538842427415346  0.6913436439235241  1.0000
  N   N1        1.0  0.703525791869083  0.901781973486905  0.5591237373997942  1.0000
  N   N2        1.0  0.7964742013189225  0.5982195546857767  0.05912373739979421  1.0000
  N   N3        1.0  0.9017624042579087  0.7035098543728111  0.4409335245504167  1.0000
  N   N4        1.0  0.598236273885334  0.7964906029385261  0.9409335245504167  1.0000
  N   N5        1.0  0.2964750520402006  0.0982183313873222  0.4408762626002058  1.0000
  N   N6        1.0  0.20352485237030749  0.4017818210497879  0.9408762626002058  1.0000
  N   N7        1.0  0.098236649431314  0.2964915213627535  0.5590664754495833  1.0000
  N   N8        1.0  0.4017635349356752  0.2035097019357011  0.0590664754495833  1.0000
  O   O1        1.0  0.6889161215815988  0.311109849536507  0.9498761903779283  1.0000
  O   O2        1.0  0.8110835959954699  0.1888903029006102  0.44987619037792836  1.0000
  O   O3        1.0  0.3110836872394104  0.6888904553377202  0.0501238096220717  1.0000
  O   O4        1.0  0.18891621282553933  0.811110001973617  0.5501238096220717  1.0000
  O   O5        1.0  0.5450646853343457  0.45498328336025656  0.9330102246112874  1.0000
  O   O6        1.0  0.9549360673309977  0.0450168690768535  0.4330102246112872  1.0000
  O   O7        1.0  0.4549358786184499  0.5450159506526262  0.0669897753887128  1.0000
  O   O8        1.0  0.045063741490011536  0.9549834357973666  0.5669897753887128  1.0000
  O   O9        1.0  0.8625773757845323  0.1374279194088501  0.6849989166658048  1.0000
  O   O10       1.0  0.6374217818795741  0.362570091305578  0.1849984007923808  1.0000
  O   O11       1.0  0.1374229082117822  0.8625702437426881  0.3150015992076192  1.0000
  O   O12       1.0  0.3625777469849539  0.6374291427073047  0.8150010833341952  1.0000
  O   O13       1.0  0.7541023465307148  0.2458622679947382  0.6067001640477514  1.0000
  O   O14       1.0  0.7458984061346285  0.2541378844423789  0.10670016404775141  1.0000
  O   O15       1.0  0.24589925251034836  0.7541369660181445  0.3932998359522486  1.0000
  O   O16       1.0  0.25410140268638776  0.7458624204318482  0.8932998359522486  1.0000
