data_image0
_chemical_formula_structural       Zn4H32C76N8Cl8O16F8
_chemical_formula_sum              "Zn4 H32 C76 N8 Cl8 O16 F8"
_cell_length_a       21.727206049553445
_cell_length_b       21.97461365531328
_cell_length_c       21.889618665525635
_cell_angle_alpha    59.91668506268719
_cell_angle_beta     63.19988033014145
_cell_angle_gamma    89.99817374153805

_space_group_name_H-M_alt    "P 1"
_space_group_IT_number       1

loop_
  _space_group_symop_operation_xyz
  'x, y, z'

loop_
  _atom_site_type_symbol
  _atom_site_label
  _atom_site_symmetry_multiplicity
  _atom_site_fract_x
  _atom_site_fract_y
  _atom_site_fract_z
  _atom_site_occupancy
  Zn  Zn1       1.0  0.5414207693538415  0.045363169233063196  0.9091705592342125  1.0000
  Zn  Zn2       1.0  0.45856327174296757  0.9546176600384302  0.09093166232717195  1.0000
  Zn  Zn3       1.0  0.962396615082838  0.45662826108698334  0.08682658471762031  1.0000
  Zn  Zn4       1.0  0.0378759814367768  0.5434706290901374  0.9130485231820417  1.0000
  H   H1        1.0  0.8141377523915169  0.39285985550552033  0.214708587859313  1.0000
  H   H2        1.0  0.7325616441817644  0.31460669947124853  0.3711179973248803  1.0000
  H   H3        1.0  0.5763301608524357  0.19526058349846662  0.6101344514147229  1.0000
  H   H4        1.0  0.7753894891282301  0.19513251979217475  0.6091230476048891  1.0000
  H   H5        1.0  0.18622063802067151  0.6075040980702442  0.7850024068220377  1.0000
  H   H6        1.0  0.2675785229969563  0.6857104659139425  0.6285284456863067  1.0000
  H   H7        1.0  0.4233208874776793  0.8050665001452091  0.3897775646568674  1.0000
  H   H8        1.0  0.22426825019432073  0.8046336830869906  0.3907950677238644  1.0000
  H   H9        1.0  0.7002593614167837  0.20724257107368524  0.8659804403149564  1.0000
  H   H10       1.0  0.7956666529505299  0.2884805266556541  0.14132996687169422  1.0000
  H   H11       1.0  0.9193652879326067  0.42483396661940287  0.8757707756776438  1.0000
  H   H12       1.0  0.8417270699438433  0.3476551549446754  0.8723323291804591  1.0000
  H   H13       1.0  0.5768851835899583  0.07217484819975793  0.1315663459447832  1.0000
  H   H14       1.0  0.6551725207972369  0.14945403346300173  0.13416591961200194  1.0000
  H   H15       1.0  0.42323674373854214  0.9280477956564331  0.8684424442971518  1.0000
  H   H16       1.0  0.08087383800942406  0.5747028728154577  0.12432061646180859  1.0000
  H   H17       1.0  0.20471203199024052  0.7114508718126376  0.8587349321014343  1.0000
  H   H18       1.0  0.2817773306749771  0.788116986304388  0.8631268918126339  1.0000
  H   H19       1.0  0.300099166903003  0.7923353711153285  0.1339604907904571  1.0000
  H   H20       1.0  0.22225620876604782  0.7152483572410022  0.13055175385485987  1.0000
  H   H21       1.0  0.4236974608767099  0.20380115826801418  0.868411030703328  1.0000
  H   H22       1.0  0.0798909901779368  0.3002961714353063  0.12415702768142009  1.0000
  H   H23       1.0  0.20410384444915053  0.4289951135362032  0.8586064746058427  1.0000
  H   H24       1.0  0.2812203404181872  0.3479793212857203  0.8630602168705721  1.0000
  H   H25       1.0  0.2997156110409022  0.0735736928465656  0.13394933486939922  1.0000
  H   H26       1.0  0.2214722224594041  0.15368873012222653  0.1304901369070208  1.0000
  H   H27       1.0  0.6994662454762661  0.9257667253553453  0.865943166561351  1.0000
  H   H28       1.0  0.7946727020923703  0.5694665174765915  0.14145048024514753  1.0000
  H   H29       1.0  0.9190420084220677  0.6988604714549069  0.8758859211252243  1.0000
  H   H30       1.0  0.8406008676254262  0.778685427042646  0.8723920067103773  1.0000
  H   H31       1.0  0.5761397440179152  0.7957894921712382  0.1315113008979196  1.0000
  H   H32       1.0  0.6538667675893494  0.715350254098162  0.1341745377548804  1.0000
  C   C1        1.0  0.41554230224035393  0.9139772249275139  0.0024271674877452466  1.0000
  C   C2        1.0  0.41576504189363567  0.08385394076809402  0.0023917054528012505  1.0000
  C   C3        1.0  0.5843641134706133  0.08583387363628961  0.9979510366318395  1.0000
  C   C4        1.0  0.5840337571106815  0.9159018024591886  0.9978102237011512  1.0000
  C   C5        1.0  0.08900471518887802  0.4205234926774751  0.9889073989512768  1.0000
  C   C6        1.0  0.08962150978729264  0.58980233053871  0.98908665158325  1.0000
  C   C7        1.0  0.9109305630605251  0.579301441471415  0.01071473797109207  1.0000
  C   C8        1.0  0.9107333773790032  0.4102804469356158  0.010623918503377015  1.0000
  C   C9        1.0  0.835261228179938  0.37220732447489985  0.25575872718037834  1.0000
  C   C10       1.0  0.7910466843552301  0.32963795607351193  0.3408456548404429  1.0000
  C   C11       1.0  0.8227450655813938  0.30527164684462355  0.3892600151844335  1.0000
  C   C12       1.0  0.8984972143968336  0.32490841808763804  0.3496950211702411  1.0000
  C   C13       1.0  0.9394067973353302  0.36868197191462576  0.26217557064702407  1.0000
  C   C14       1.0  0.6056536870903458  0.17901382449376516  0.6423239430483534  1.0000
  C   C15       1.0  0.6807937097846093  0.20073800509358364  0.5985697871071024  1.0000
  C   C16       1.0  0.7168573453975781  0.1788939014757603  0.641834401960878  1.0000
  C   C17       1.0  0.6756580759945123  0.13589924374939247  0.7277024103885312  1.0000
  C   C18       1.0  0.569116999516517  0.13576824056868736  0.7287330236313209  1.0000
  C   C19       1.0  0.16499163679711165  0.6279938809564386  0.7440534417395952  1.0000
  C   C20       1.0  0.20907810798545515  0.6705338813358781  0.6589478097140355  1.0000
  C   C21       1.0  0.1772119405412269  0.6946660210319635  0.6107025665738279  1.0000
  C   C22       1.0  0.10145858418810157  0.6748440611257751  0.6504251377814042  1.0000
  C   C23       1.0  0.060681042500839076  0.6311454676224173  0.7379378203589299  1.0000
  C   C24       1.0  0.394017555859243  0.8211931387000035  0.357569066136044  1.0000
  C   C25       1.0  0.31889148515578825  0.7993336004297192  0.40130621255099164  1.0000
  C   C26       1.0  0.28279947914128206  0.8209828725916851  0.35806600477003764  1.0000
  C   C27       1.0  0.3239954957428779  0.8639278002676889  0.2721881708587403  1.0000
  C   C28       1.0  0.43055587636988696  0.8644298918086833  0.271166793630698  1.0000
  C   C29       1.0  0.6324649275359562  0.1336788031466725  0.9990661888245143  1.0000
  C   C30       1.0  0.8634143919214807  0.3628511912889395  0.008413407409655113  1.0000
  C   C31       1.0  0.6897229013512032  0.1938664424823529  0.9255467745472147  1.0000
  C   C32       1.0  0.7336948001488255  0.23723822294468289  0.9279370878404406  1.0000
  C   C33       1.0  0.8063879108361293  0.30229691977192624  0.08157690405011656  1.0000
  C   C34       1.0  0.7629638910500276  0.2589134092770351  0.07872283013332994  1.0000
  C   C35       1.0  0.8749212387761532  0.37783118290109746  0.9333935064852668  1.0000
  C   C36       1.0  0.83056331147786  0.3336354947694958  0.9320351237550144  1.0000
  C   C37       1.0  0.621395960866579  0.11898283419953515  0.07378398266101266  1.0000
  C   C38       1.0  0.6661540748922903  0.16319680845167991  0.0746504011707428  1.0000
  C   C39       1.0  0.7250228517513548  0.2250683286003934  0.0017420275857630801  1.0000
  C   C40       1.0  0.7718196866373007  0.2714579462947952  0.004692398654704236  1.0000
  C   C41       1.0  0.36736746965476647  0.8658199977314142  0.001706564722304896  1.0000
  C   C42       1.0  0.13724469091246047  0.6373510240673639  0.9908509238749019  1.0000
  C   C43       1.0  0.3790845850918246  0.8812995831658555  0.9266195441431578  1.0000
  C   C44       1.0  0.3346412696988565  0.8371784618536182  0.9256131610399764  1.0000
  C   C45       1.0  0.1251069929492985  0.621507334056254  0.06627854165667905  1.0000
  C   C46       1.0  0.16935278784657024  0.6653996248994717  0.06779214586063621  1.0000
  C   C47       1.0  0.1946169058478446  0.6982080870163543  0.9181162874769271  1.0000
  C   C48       1.0  0.23815875048924806  0.7415347192370306  0.9211656326824099  1.0000
  C   C49       1.0  0.30994129991785263  0.8051545266690641  0.07480284750216946  1.0000
  C   C50       1.0  0.2659862851911967  0.7616432590833356  0.07228293957965791  1.0000
  C   C51       1.0  0.2757449622092097  0.7750350594109751  0.9974433212654573  1.0000
  C   C52       1.0  0.22820683412027887  0.7277292769332676  0.9962014564269807  1.0000
  C   C53       1.0  0.3674471002112156  0.1325863659697504  0.0016807891479046157  1.0000
  C   C54       1.0  0.1364922994858873  0.3710776424154716  0.9907028414430529  1.0000
  C   C55       1.0  0.3792740556093577  0.19219138680310982  0.9265828686610432  1.0000
  C   C56       1.0  0.3345483791652626  0.2370339679396025  0.9255672450191811  1.0000
  C   C57       1.0  0.1242223098894257  0.31149215108357003  0.06614914280441299  1.0000
  C   C58       1.0  0.16847863817945813  0.26610050872768204  0.0677048093115999  1.0000
  C   C59       1.0  0.1939386695087606  0.38290267244993714  0.9179951369375488  1.0000
  C   C60       1.0  0.23751889684151453  0.3365610401815644  0.9210858617841781  1.0000
  C   C61       1.0  0.3096722447932478  0.11992068031023714  0.07477454256124359  1.0000
  C   C62       1.0  0.2654747506217632  0.1657212267143038  0.07223671952553443  1.0000
  C   C63       1.0  0.2752932182743919  0.22710762116633285  0.9973952599750435  1.0000
  C   C64       1.0  0.2275343888602848  0.2754311830219933  0.9961329778408726  1.0000
  C   C65       1.0  0.6317522768829846  0.8665673623437657  0.9990028344243382  1.0000
  C   C66       1.0  0.8629961641265284  0.6283297674511632  0.008528642432153595  1.0000
  C   C67       1.0  0.688826171132213  0.8795720218168844  0.9255113393322602  1.0000
  C   C68       1.0  0.732493671879638  0.833511051814611  0.9279325179588437  1.0000
  C   C69       1.0  0.8054496763331472  0.6153327802917306  0.08167410301261656  1.0000
  C   C70       1.0  0.7614862356382162  0.6610448652416921  0.07879455583448443  1.0000
  C   C71       1.0  0.8743202496473046  0.6880738423824724  0.9334946581408018  1.0000
  C   C72       1.0  0.8295064901737705  0.7331719628792968  0.9321042614778533  1.0000
  C   C73       1.0  0.6205102629102229  0.8065096376689598  0.07374729260821758  1.0000
  C   C74       1.0  0.6649429945617769  0.7611073293746247  0.07464785112477289  1.0000
  C   C75       1.0  0.7236693047416907  0.7718658964774718  0.0017594302593053376  1.0000
  C   C76       1.0  0.7704365816231586  0.7224971361643568  0.004756664278303681  1.0000
  N   N1        1.0  0.9081095022911823  0.3912726467700551  0.2173596020859349  1.0000
  N   N2        1.0  0.7841916326654186  0.26166486875708733  0.47636139768857066  1.0000
  N   N3        1.0  0.7163363219954847  0.24473051006791025  0.5107609582296959  1.0000
  N   N4        1.0  0.6025014595014753  0.1138964699571829  0.7720613025377788  1.0000
  N   N5        1.0  0.0921353635524866  0.608781443455193  0.7825812210208484  1.0000
  N   N6        1.0  0.21559355286876072  0.7381934167739602  0.5236130332206557  1.0000
  N   N7        1.0  0.2834570117341499  0.7554349966346267  0.48908622064204366  1.0000
  N   N8        1.0  0.39715867832484986  0.8860964570747503  0.22786522926239852  1.0000
  Cl  Cl1       1.0  0.031109801251197704  0.3937312271756  0.21163778829186697  1.0000
  Cl  Cl2       1.0  0.9402880776879319  0.29716308654465723  0.4048577703796636  1.0000
  Cl  Cl3       1.0  0.47700651315502535  0.1096446567354974  0.7814447559344871  1.0000
  Cl  Cl4       1.0  0.7207734976157738  0.10970237804393432  0.7794356243361734  1.0000
  Cl  Cl5       1.0  0.968984403906241  0.6059393496628829  0.7886538793255863  1.0000
  Cl  Cl6       1.0  0.05949482188471222  0.7023236082642229  0.5954378359721132  1.0000
  Cl  Cl7       1.0  0.5226469544361976  0.8908190831657169  0.2184736749859223  1.0000
  Cl  Cl8       1.0  0.2788853219448768  0.8898039734564237  0.22044902971089897  1.0000
  O   O1        1.0  0.4656880501193328  0.9682201061273334  0.9322647477364968  1.0000
  O   O2        1.0  0.40201956489922014  0.8968351834129537  0.07296451697310145  1.0000
  O   O3        1.0  0.40174544105006765  0.03007144727583721  0.07293413803265028  1.0000
  O   O4        1.0  0.4664666432549609  0.10021269772727952  0.9322265272635306  1.0000
  O   O5        1.0  0.5336353216698769  0.0321526099636245  0.06801516217372237  1.0000
  O   O6        1.0  0.5984741634360446  0.1025868077825649  0.9273122074099475  1.0000
  O   O7        1.0  0.5977561426855615  0.969289406624327  0.9271615241428961  1.0000
  O   O8        1.0  0.5339628933651851  0.9002932979866427  0.06784907370840908  1.0000
  O   O9        1.0  0.0367432460637573  0.40333704386588926  0.05876045800859225  1.0000
  O   O10       1.0  0.10427625369836593  0.47568004332769936  0.9184183918162033  1.0000
  O   O11       1.0  0.10492459367821286  0.6050035813743622  0.9185995011441294  1.0000
  O   O12       1.0  0.03719979861958224  0.5374130015197239  0.05892642378871207  1.0000
  O   O13       1.0  0.963598268759405  0.596815830158768  0.9409728164623347  1.0000
  O   O14       1.0  0.89568147787044  0.5242236465585038  0.08127769232809344  1.0000
  O   O15       1.0  0.8954387254823076  0.3948523331668882  0.08121126354938454  1.0000
  O   O16       1.0  0.962999608368719  0.46287005689840294  0.9408673524471779  1.0000
  F   F1        1.0  0.7879608270652554  0.2946714243573966  0.8515270753954028  1.0000
  F   F2        1.0  0.7090837782204673  0.20105764593853345  0.15510547044643627  1.0000
  F   F3        1.0  0.35228825051692075  0.8585782393863967  0.8476251568529847  1.0000
  F   F4        1.0  0.151716558536414  0.6437452728785402  0.1458047217956349  1.0000
  F   F5        1.0  0.3522673476658227  0.2935707944515826  0.8475768893913694  1.0000
  F   F6        1.0  0.1506644725314601  0.2097126714430146  0.14573764909594902  1.0000
  F   F7        1.0  0.7866503296174089  0.8522346883342851  0.851532274825871  1.0000
  F   F8        1.0  0.7069267586780866  0.6419767268496699  0.15517343492227556  1.0000
