data_image0
_chemical_formula_structural       Zn2H18C47N12O14
_chemical_formula_sum              "Zn2 H18 C47 N12 O14"
_cell_length_a       12.4837884616075
_cell_length_b       13.551670960389595
_cell_length_c       19.111956325773946
_cell_angle_alpha    88.7605502988168
_cell_angle_beta     74.3731916822683
_cell_angle_gamma    80.208361771879

_space_group_name_H-M_alt    "P 1"
_space_group_IT_number       1

loop_
  _space_group_symop_operation_xyz
  'x, y, z'

loop_
  _atom_site_type_symbol
  _atom_site_label
  _atom_site_symmetry_multiplicity
  _atom_site_fract_x
  _atom_site_fract_y
  _atom_site_fract_z
  _atom_site_occupancy
  Zn  Zn1       1.0  0.6114602200524645  0.5126740539465616  0.48462660733108015  1.0000
  Zn  Zn2       1.0  0.3809838474032503  0.49398705044541197  0.5237718942729614  1.0000
  H   H1        1.0  0.6431432319808082  0.5769003722549897  0.6954393467187785  1.0000
  H   H2        1.0  0.6276051043456192  0.6151393840367021  0.825833069648283  1.0000
  H   H3        1.0  0.30562472526399626  0.5159611450000696  0.8887877378188803  1.0000
  H   H4        1.0  0.3201544502390519  0.4825398304568011  0.7578050199447832  1.0000
  H   H5        1.0  0.6153976468492174  0.6434445244722441  0.13597853102654517  1.0000
  H   H6        1.0  0.6346304112590389  0.6058482902746716  0.2613404250624072  1.0000
  H   H7        1.0  0.3362300564234459  0.48191379688692126  0.177276511634311  1.0000
  H   H8        1.0  0.2361220955809812  0.8073103029119223  0.48241545143490333  1.0000
  H   H9        1.0  0.28879589918140175  0.1423905558196736  0.4310186726543535  1.0000
  H   H10       1.0  0.21297705940565242  0.9891316031871185  0.45372358307368194  1.0000
  H   H11       1.0  0.5547574966111241  0.8189057620825009  0.5194536999200495  1.0000
  H   H12       1.0  0.7434896865534738  0.21365845358852908  0.5378464013289063  1.0000
  H   H13       1.0  0.42629980784507626  0.24669068530363347  0.4407958919805638  1.0000
  H   H14       1.0  0.9212141446976572  0.7295499239693157  0.37758655727674306  1.0000
  H   H15       1.0  0.8085553071092376  0.4482717123575099  0.5296227187858948  1.0000
  H   H16       1.0  0.27126775358897964  0.339221987297506  0.6024848174484845  1.0000
  H   H17       1.0  0.07818469363220969  0.2899678070902069  0.6435759874763252  1.0000
  H   H18       1.0  0.2535663639537448  0.5966227509645915  0.44907200192300684  1.0000
  C   C1        1.0  0.5688745737435995  0.3108937547363482  0.4983576879094401  1.0000
  C   C2        1.0  0.4892402396243228  0.5096199546370953  0.6410853688040348  1.0000
  C   C3        1.0  0.42308785391412573  0.6951383738603736  0.5100019154243753  1.0000
  C   C4        1.0  0.5077942127824359  0.5067929855046458  0.3652214748032351  1.0000
  C   C5        1.0  0.5695618124359427  0.564438636523505  0.7382819018645961  1.0000
  C   C6        1.0  0.5610891494592066  0.5852210610802684  0.8106736508273614  1.0000
  C   C7        1.0  0.46550654131374364  0.5680643427002393  0.8652722649164204  1.0000
  C   C8        1.0  0.37902111738041105  0.529522108880279  0.8461646278342841  1.0000
  C   C9        1.0  0.3872043990137612  0.5106207223576149  0.7736541587137894  1.0000
  C   C10       1.0  0.482398607540091  0.5278541758189802  0.7192573452217631  1.0000
  C   C11       1.0  0.46076295587808147  0.5869434333955468  0.0757063998163972  1.0000
  C   C12       1.0  0.4562468526833354  0.5885120978655748  0.9417809958370215  1.0000
  C   C13       1.0  0.5600583336911811  0.5988728412721898  0.17209919381861036  1.0000
  C   C14       1.0  0.5717920824802221  0.5769030426564257  0.24138258696083884  1.0000
  C   C15       1.0  0.5008861821610394  0.5198927204528373  0.288393912930026  1.0000
  C   C16       1.0  0.41761397447265847  0.4858292637079913  0.2630577926158467  1.0000
  C   C17       1.0  0.40253739956178686  0.508453014223697  0.19495441752420822  1.0000
  C   C18       1.0  0.47483594773417076  0.5653196074461704  0.14855437769771382  1.0000
  C   C19       1.0  0.2863651726344685  0.9526819806351835  0.4708233838737995  1.0000
  C   C20       1.0  0.39890046924774936  0.8058365826318125  0.5024982026122871  1.0000
  C   C21       1.0  0.688744141335931  0.16297031673249757  0.529665548111737  1.0000
  C   C22       1.0  0.7090767489038753  0.06171011201407588  0.548237542654789  1.0000
  C   C23       1.0  0.6342766846959336  0.9989663775573232  0.5408523396437347  1.0000
  C   C24       1.0  0.5421113548093287  0.030068547854064306  0.5110384965233763  1.0000
  C   C25       1.0  0.5241907828355609  0.13390663100228284  0.4920332585828718  1.0000
  C   C26       1.0  0.46465978526502727  0.9660624214006857  0.49993027471665397  1.0000
  C   C27       1.0  0.36813785716793024  0.0105607317894894  0.47626682125140724  1.0000
  C   C28       1.0  0.3577888757889056  0.1123040111153486  0.4545535504817765  1.0000
  C   C29       1.0  0.434003300712412  0.17059500806306  0.4601735785592425  1.0000
  C   C30       1.0  0.4794200087529675  0.8617115357680586  0.5089497429053794  1.0000
  C   C31       1.0  0.2992890173603726  0.8520414261225041  0.48577174479396495  1.0000
  C   C32       1.0  0.5959964914491139  0.19913164075980916  0.5045390956868091  1.0000
  C   C33       1.0  0.8997709388360917  0.6668959517507245  0.4121460980217009  1.0000
  C   C34       1.0  0.20072852663054871  0.3780244385987216  0.5834971998364653  1.0000
  C   C35       1.0  0.09394512559209997  0.35036078254355374  0.605674379293859  1.0000
  C   C36       1.0  0.008313029346346899  0.4036084579679695  0.5799827614610962  1.0000
  C   C37       1.0  0.027285931633762993  0.47958944521806046  0.5283887748783658  1.0000
  C   C38       1.0  0.13887495195631058  0.5031296262999021  0.5106270904355554  1.0000
  C   C39       1.0  0.9470407477857419  0.5339413508822445  0.49260328118165125  1.0000
  C   C40       1.0  0.9781698762502696  0.6136865699301878  0.4458128031053051  1.0000
  C   C41       1.0  0.09019461063084586  0.6366771527250277  0.43167985703713907  1.0000
  C   C42       1.0  0.16792235742354228  0.5814190417907952  0.461850374546728  1.0000
  C   C43       1.0  0.8391379062761501  0.5103531145399742  0.49809433524519153  1.0000
  C   C44       1.0  0.7954352759432909  0.6384225686021524  0.42232758425911493  1.0000
  C   C45       1.0  0.8027593426690913  0.0270699686177096  0.5768084031643143  1.0000
  C   C46       1.0  0.7181847442349749  0.6928773599531365  0.3860624755116078  1.0000
  C   C47       1.0  0.12168438657812423  0.7152793237248787  0.38374492075271865  1.0000
  N   N1        1.0  0.3629436065875923  0.5706090730877662  0.9927178521785152  1.0000
  N   N2        1.0  0.3651216062371175  0.5699073954971468  0.061119579045453114  1.0000
  N   N3        1.0  0.5380591724280633  0.6312468499124859  0.027843198971226016  1.0000
  N   N4        1.0  0.5354464648264994  0.6328743193986879  0.9593849324350926  1.0000
  N   N5        1.0  0.7667670364801111  0.5592816844920064  0.46417908280326275  1.0000
  N   N6        1.0  0.22151086689718377  0.45381277822988136  0.539291599533307  1.0000
  N   N7        1.0  0.6556526810316398  0.8982461021680662  0.5712337393251232  1.0000
  N   N8        1.0  0.8808671818642466  0.0014514063520393945  0.5995120906366014  1.0000
  N   N9        1.0  0.6641775514383852  0.7419300883265476  0.35277876234830796  1.0000
  N   N10       1.0  0.14597824765063191  0.7804666262006917  0.34492657031449175  1.0000
  N   N11       1.0  0.8946016803066711  0.3795943146651766  0.6136013354474414  1.0000
  N   N12       1.0  0.343693001797007  0.4197633890593335  0.30691225713364645  1.0000
  O   O1        1.0  0.6507276084249654  0.358626996437003  0.477646991695437  1.0000
  O   O2        1.0  0.46456639354661167  0.3490334751981337  0.5181023679342973  1.0000
  O   O3        1.0  0.5860264801420242  0.5019534817025572  0.5955778391983416  1.0000
  O   O4        1.0  0.39644855667056317  0.5043209145827133  0.6262305025149504  1.0000
  O   O5        1.0  0.5250950688524368  0.6558247991249644  0.5048541882742941  1.0000
  O   O6        1.0  0.34104401410077406  0.6469240877898128  0.5199291284432307  1.0000
  O   O7        1.0  0.6001525806925513  0.5141817763896765  0.3786860903559912  1.0000
  O   O8        1.0  0.41709654414262326  0.4931166596636771  0.4114288496996394  1.0000
  O   O9        1.0  0.5943884953716818  0.8841359229430452  0.6316839783743263  1.0000
  O   O10       1.0  0.7354170507659744  0.8369108637959569  0.5346955418441725  1.0000
  O   O11       1.0  0.8315667982647881  0.4406612027666695  0.6599015773991823  1.0000
  O   O12       1.0  0.8739021844776644  0.3001042754041946  0.5942791113499624  1.0000
  O   O13       1.0  0.3893539660171896  0.33725630019515046  0.3226212603031797  1.0000
  O   O14       1.0  0.24040877239374228  0.4503290241939979  0.32217191497243663  1.0000
