data_image0
_chemical_formula_structural       K4Nd4H16C20O36
_chemical_formula_sum              "K4 Nd4 H16 C20 O36"
_cell_length_a       7.341405695009584
_cell_length_b       9.026959505022885
_cell_length_c       16.717140582039043
_cell_angle_alpha    89.99978374842019
_cell_angle_beta     90.00012025116386
_cell_angle_gamma    90.00014098920497

_space_group_name_H-M_alt    "P 1"
_space_group_IT_number       1

loop_
  _space_group_symop_operation_xyz
  'x, y, z'

loop_
  _atom_site_type_symbol
  _atom_site_label
  _atom_site_symmetry_multiplicity
  _atom_site_fract_x
  _atom_site_fract_y
  _atom_site_fract_z
  _atom_site_occupancy
  K   K1        1.0  0.9999998113397479  0.960241876887821  0.7762039968086258  1.0000
  K   K2        1.0  7.406931672399999e-06  0.039763437050538614  0.22380737331558725  1.0000
  K   K3        1.0  0.9999993399029918  0.5397642824234483  0.2761876932111137  1.0000
  K   K4        1.0  0.999994843354635  0.46023760150022514  0.7238073873425039  1.0000
  Nd  Nd1       1.0  0.5000044622397154  0.010767382148991101  0.8806484330848863  1.0000
  Nd  Nd2       1.0  0.5000068424067335  0.9892312850747946  0.11935216965632382  1.0000
  Nd  Nd3       1.0  0.4999971773128991  0.4892292362269616  0.3806479631584737  1.0000
  Nd  Nd4       1.0  0.49999369527611043  0.5107683231857507  0.6193520413860514  1.0000
  H   H1        1.0  0.8960912250109346  0.7526231384050777  0.6179725546287715  1.0000
  H   H2        1.0  0.8960898958646268  0.24739183094968104  0.3820331977698857  1.0000
  H   H3        1.0  0.10391339249210317  0.747406389949042  0.11796144578751473  1.0000
  H   H4        1.0  0.10390221536493272  0.25259702316486715  0.8820381945818954  1.0000
  H   H5        1.0  0.10390918257215989  0.24739214568811022  0.3820310390326328  1.0000
  H   H6        1.0  0.10391459814201197  0.7526289921049101  0.6179721904530311  1.0000
  H   H7        1.0  0.8960815665415112  0.2526144331169178  0.8820379605467681  1.0000
  H   H8        1.0  0.8960954679267984  0.747410506384938  0.11796300633245244  1.0000
  H   H9        1.0  0.38082977161099046  0.424993753441612  0.06461246676786203  1.0000
  H   H10       1.0  0.380830722198631  0.5750002440020482  0.9353862318411006  1.0000
  H   H11       1.0  0.619166267415977  0.07499399706066612  0.5646111208476015  1.0000
  H   H12       1.0  0.6191686052877899  0.9249949386378521  0.435383609578473  1.0000
  H   H13       1.0  0.6191747223368154  0.5750004826149535  0.935385145032605  1.0000
  H   H14       1.0  0.6191737717704484  0.4249995309992799  0.06461676364955343  1.0000
  H   H15       1.0  0.38082460514292654  0.9249969156250157  0.4353805090657375  1.0000
  H   H16       1.0  0.3808249915497868  0.0749915428629677  0.5646128058480359  1.0000
  C   C1        1.0  0.8930580018846754  0.9999954099130618  2.9811455278000012e-06  1.0000
  C   C2        1.0  0.10694332611780058  0.49999395505205513  0.49999832611698747  1.0000
  C   C3        1.0  0.1069496951395337  0.9999946229337343  2.0215777781000006e-06  1.0000
  C   C4        1.0  0.893050270718099  0.4999914186560446  0.49999808931064404  1.0000
  C   C5        1.0  0.6059645443247063  0.7168771573625178  0.7732639674328612  1.0000
  C   C6        1.0  0.6059666656661947  0.2831261532020619  0.22673254540588064  1.0000
  C   C7        1.0  0.3940380928785955  0.783124697960915  0.27326501631728217  1.0000
  C   C8        1.0  0.3940287879704201  0.21687929603618272  0.7267384799281233  1.0000
  C   C9        1.0  0.39403313894432296  0.2831248332446137  0.22673125160287816  1.0000
  C   C10       1.0  0.39403237974862293  0.7168769451886945  0.7732656645714828  1.0000
  C   C11       1.0  0.6059650389525826  0.21687729263075542  0.7267361846052155  1.0000
  C   C12       1.0  0.6059716195909032  0.7831215867516761  0.27326511374794654  1.0000
  C   C13       1.0  0.5000119214532786  0.28994078663044587  0.9751559380509538  1.0000
  C   C14       1.0  0.500002107461107  0.7100567728096294  0.02484287012736531  1.0000
  C   C15       1.0  0.4999969815652959  0.21005406305378221  0.4751584295725238  1.0000
  C   C16       1.0  0.4999911667414239  0.789937957392617  0.5248415749763853  1.0000
  C   C17       1.0  0.5000057692085419  0.4293631466104416  0.024749240442680807  1.0000
  C   C18       1.0  0.5000041732894687  0.5706288738577712  0.9752507641162469  1.0000
  C   C19       1.0  0.4999941652484238  0.0706248826617113  0.5247477938524201  1.0000
  C   C20       1.0  0.4999953451723157  0.9293604910485701  0.4752468270080571  1.0000
  O   O1        1.0  0.8161661440668269  0.0313846415073797  0.9342498294634826  1.0000
  O   O2        1.0  0.8161695672201006  0.968605796384651  0.06575584947798062  1.0000
  O   O3        1.0  0.18383439012335853  0.4686016319090598  0.43424552173137  1.0000
  O   O4        1.0  0.1838334379384392  0.5313875399439214  0.5657500048188739  1.0000
  O   O5        1.0  0.18384652269406834  0.9685963010280219  0.06575256786168641  1.0000
  O   O6        1.0  0.1838444617129156  0.031391763028239  0.9342507351498671  1.0000
  O   O7        1.0  0.8161551203055095  0.5313881729699974  0.5657496973130166  1.0000
  O   O8        1.0  0.8161547103427012  0.468592294793041  0.43424700880031963  1.0000
  O   O9        1.0  0.6842903919088952  0.8110239528930806  0.8175262618884889  1.0000
  O   O10       1.0  0.6842920164748703  0.18897729890498033  0.182472117531404  1.0000
  O   O11       1.0  0.31571381946960025  0.6889731617488338  0.31752264504074657  1.0000
  O   O12       1.0  0.31570594939836377  0.3110306754271691  0.6824807791929148  1.0000
  O   O13       1.0  0.3157127399048393  0.1889769299288773  0.18246835896245273  1.0000
  O   O14       1.0  0.3157111153565424  0.8110257994815058  0.8175284852015426  1.0000
  O   O15       1.0  0.684285225947846  0.3110288288429289  0.6824773595030181  1.0000
  O   O16       1.0  0.684293096027197  0.688969099562428  0.31752401086050963  1.0000
  O   O17       1.0  0.5000240048602435  0.2934505383618529  0.899540730206809  1.0000
  O   O18       1.0  0.500000921159831  0.7065536678454407  0.10045807796974773  1.0000
  O   O19       1.0  0.49999815728496333  0.2065592414220561  0.3995432288577734  1.0000
  O   O20       1.0  0.4999845425036041  0.7934505036981818  0.6004579720474299  1.0000
  O   O21       1.0  0.6842531172072482  0.6228767479136933  0.7288145118478868  1.0000
  O   O22       1.0  0.6842530115036993  0.37712893499351463  0.2711796802134501  1.0000
  O   O23       1.0  0.3157533934786016  0.877135388371727  0.22881948457736467  1.0000
  O   O24       1.0  0.3157426550679289  0.12287066445770728  0.7711863324428166  1.0000
  O   O25       1.0  0.31574320391884914  0.37712413490563534  0.2711789126230784  1.0000
  O   O26       1.0  0.3157405853635423  0.6228752711865937  0.7288179315718539  1.0000
  O   O27       1.0  0.6842524626248049  0.12286549442995211  0.7711817163475134  1.0000
  O   O28       1.0  0.684263201042164  0.877128002743895  0.22881905580329234  1.0000
  O   O29       1.0  0.5000053375288117  0.16416869276679344  0.011942894555524204  1.0000
  O   O30       1.0  0.5000059671176372  0.8358299744569994  0.988057708185686  1.0000
  O   O31       1.0  0.49999181131627063  0.3358260728057516  0.5119438986797464  1.0000
  O   O32       1.0  0.4999963369847222  0.6641659476490107  0.4880537131154627  1.0000
  O   O33       1.0  2.1376095600001174e-08  0.815469490691939  0.6314343091884353  1.0000
  O   O34       1.0  0.9999990240750734  0.18454911677803662  0.3685692844689542  1.0000
  O   O35       1.0  2.7120965029e-06  0.6845655891596607  0.13142488891241305  1.0000
  O   O36       1.0  0.9999990576101679  0.31544747936409584  0.8685745174328973  1.0000
