data_image0
_chemical_formula_structural       Cd2H40C46Br6N8O12
_chemical_formula_sum              "Cd2 H40 C46 Br6 N8 O12"
_cell_length_a       10.084205522581167
_cell_length_b       11.6556300571996
_cell_length_c       13.694979989910006
_cell_angle_alpha    68.5803947823114
_cell_angle_beta     70.43231981443363
_cell_angle_gamma    70.37391608792693

_space_group_name_H-M_alt    "P 1"
_space_group_IT_number       1

loop_
  _space_group_symop_operation_xyz
  'x, y, z'

loop_
  _atom_site_type_symbol
  _atom_site_label
  _atom_site_symmetry_multiplicity
  _atom_site_fract_x
  _atom_site_fract_y
  _atom_site_fract_z
  _atom_site_occupancy
  Cd  Cd1       1.0  0.41181898124733607  0.692056241650853  0.5733169560578162  1.0000
  Cd  Cd2       1.0  0.5881836752053928  0.30794491765679055  0.42668386512443857  1.0000
  H   H1        1.0  0.7807925944731623  0.3918093056021306  0.13456606284100303  1.0000
  H   H2        1.0  0.21920830791484752  0.6081870463552904  0.8654345215437899  1.0000
  H   H3        1.0  0.3376016585305877  0.5926826293798868  0.42085855449389  1.0000
  H   H4        1.0  0.6623994563775994  0.40731659181722085  0.5791418013075501  1.0000
  H   H5        1.0  0.7603682530488456  0.1518494928217393  0.24612008047541417  1.0000
  H   H6        1.0  0.23962971349407516  0.8481496769530992  0.7538796134968706  1.0000
  H   H7        1.0  0.133231469206244  0.5279308695272321  0.6799057275398255  1.0000
  H   H8        1.0  0.8667636461187769  0.47208164783612727  0.3200948416069238  1.0000
  H   H9        1.0  0.5091492709208794  0.3639343160923971  0.8928984120175727  1.0000
  H   H10       1.0  0.4908498187746559  0.6360610806481193  0.10710584526572124  1.0000
  H   H11       1.0  0.7757902005962193  0.7402694815046474  0.584760746763216  1.0000
  H   H12       1.0  0.2242109156416561  0.259729745159369  0.4152403371909231  1.0000
  H   H13       1.0  0.8130558952493769  0.7003001614707572  0.4651493734740982  1.0000
  H   H14       1.0  0.18694570997534748  0.29970097340692803  0.5348502562281752  1.0000
  H   H15       1.0  0.06264226273625442  0.798657149729948  0.6908848188850387  1.0000
  H   H16       1.0  0.9373573119570793  0.2013401388235323  0.3091157996882857  1.0000
  H   H17       1.0  0.8912793803809723  0.8303139686471043  0.6652256379324869  1.0000
  H   H18       1.0  0.10872075256445159  0.16968141972196088  0.33477544191459435  1.0000
  H   H19       1.0  0.008018462716037738  0.9334578025842931  0.585656067011854  1.0000
  H   H20       1.0  0.991982441001653  0.0665385548400366  0.4143452455256381  1.0000
  H   H21       1.0  0.5914299641616765  0.895915663677343  0.650071003401614  1.0000
  H   H22       1.0  0.4085706564409151  0.10408162743848243  0.3499278940409027  1.0000
  H   H23       1.0  0.6853345538828535  0.0038544901744757  0.6437785124812052  1.0000
  H   H24       1.0  0.3146639722418527  0.9961427848828491  0.3562223709175357  1.0000
  H   H25       1.0  0.5137397438813665  0.0620992451051023  0.6120893343787727  1.0000
  H   H26       1.0  0.4862580167898045  0.9378970827645645  0.38791422894035327  1.0000
  H   H27       1.0  0.20653035547143622  0.1620532972574651  0.002542117240750507  1.0000
  H   H28       1.0  0.7934703990782946  0.8379506332278199  0.9974495390239042  1.0000
  H   H29       1.0  0.12413107437588172  0.6453074712286763  0.2724576477703878  1.0000
  H   H30       1.0  0.8758677322045475  0.3546888592033426  0.7275441944179305  1.0000
  H   H31       1.0  0.9933000368202584  0.5698498088875397  0.37540014718996434  1.0000
  H   H32       1.0  0.006700593090130296  0.4301475204966109  0.6246038473214384  1.0000
  H   H33       1.0  0.1817887646251606  0.4946778767042801  0.36025724951085186  1.0000
  H   H34       1.0  0.8182110931832796  0.5053184781577046  0.6397457841574479  1.0000
  H   H35       1.0  0.027010476081926645  0.8793982759867018  0.239803596561103  1.0000
  H   H36       1.0  0.9729888208150471  0.12059996812589452  0.7601975195280418  1.0000
  H   H37       1.0  0.884583149851018  0.8185794624402973  0.24507633485767852  1.0000
  H   H38       1.0  0.11541537893305791  0.18141782355083788  0.7549260048464532  1.0000
  H   H39       1.0  0.8987077834437542  0.9749041344529202  0.1617758134070614  1.0000
  H   H40       1.0  0.10129074268095199  0.025093140604404596  0.8382250699916796  1.0000
  C   C1        1.0  0.48219266568833064  0.6297526923752984  0.9539879908567102  1.0000
  C   C2        1.0  0.5178067004738836  0.3702417433392071  0.04601504075805711  1.0000
  C   C3        1.0  0.6880863401703152  0.9949806989066377  0.48917050035115034  1.0000
  C   C4        1.0  0.3119126789302982  0.005018500765068301  0.5108311132538148  1.0000
  C   C5        1.0  0.4702691851116754  0.609897766248544  0.7777755544375822  1.0000
  C   C6        1.0  0.5297259228295135  0.39010044574704494  0.22222953356400416  1.0000
  C   C7        1.0  0.283640217080162  0.35799783195380996  0.7456817926012037  1.0000
  C   C8        1.0  0.716357330476555  0.642009899242524  0.2543131115302444  1.0000
  C   C9        1.0  0.48808169599692514  0.5548987283336118  0.8919919514607031  1.0000
  C   C10       1.0  0.5119139675369909  0.44509757254375165  0.10801214150924915  1.0000
  C   C11       1.0  0.782700850157788  0.8976293835920469  0.4427231435821641  1.0000
  C   C12       1.0  0.21730103685236202  0.10237081212723348  0.5572781730623859  1.0000
  C   C13       1.0  0.15004904053946433  0.44716939796148125  0.7503502896218989  1.0000
  C   C14       1.0  0.8499458569466399  0.5528402282945777  0.2496475954974074  1.0000
  C   C15       1.0  0.9970338391448551  0.7228546591107587  0.4939452736121909  1.0000
  C   C16       1.0  0.0029699324823724044  0.2771426943611459  0.506055741964886  1.0000
  C   C17       1.0  0.03844508524881722  0.43533650327908896  0.8442627379880465  1.0000
  C   C18       1.0  0.9615519799694712  0.5646693470380839  0.1557372611587625  1.0000
  C   C19       1.0  0.40120354568028915  0.374434025449645  0.6422448076189299  1.0000
  C   C20       1.0  0.5987944961820163  0.6255756358279639  0.3577515548714488  1.0000
  C   C21       1.0  0.5057727382904318  0.4238232823766381  0.9393586221320476  1.0000
  C   C22       1.0  0.4942239738121118  0.5761730319968735  0.06064520601248798  1.0000
  C   C23       1.0  0.06887675962946817  0.7549916999779143  0.5495054619134764  1.0000
  C   C24       1.0  0.9311238649621815  0.2450056075386229  0.4504956199871373  1.0000
  C   C25       1.0  0.8185056965382175  0.9564184474915148  0.33129599425949174  1.0000
  C   C26       1.0  0.18149569749601824  0.043579823613384895  0.668704592178827  1.0000
  C   C27       1.0  0.10614073302970442  0.6475008669143348  0.4324777352304636  1.0000
  C   C28       1.0  0.8938609427899493  0.3524964650321678  0.5675245381501314  1.0000
  C   C29       1.0  0.05728973113986059  0.33149982120416865  0.9361589169410394  1.0000
  C   C30       1.0  0.9427123617420392  0.6685032164202909  0.06383853035666927  1.0000
  C   C31       1.0  0.8372754172079128  0.7604703865762019  0.4997409555498678  1.0000
  C   C32       1.0  0.16272541857422598  0.2395297847131204  0.5002591696146936  1.0000
  C   C33       1.0  0.004903148589875241  0.8333729022478521  0.6266681698378777  1.0000
  C   C34       1.0  0.9950964274331469  0.16662439177253674  0.3733331768881456  1.0000
  C   C35       1.0  0.615899650940392  0.9886604336312034  0.6046900508107812  1.0000
  C   C36       1.0  0.3840996446268932  0.0113378050144846  0.3953103371256645  1.0000
  C   C37       1.0  0.1918388528939374  0.24220828430266297  0.9311975205307662  1.0000
  C   C38       1.0  0.8081629542134793  0.7577956760794891  0.06879605536656892  1.0000
  C   C39       1.0  0.30354229686526685  0.2564226992112353  0.8381484182172303  1.0000
  C   C40       1.0  0.6964555231690642  0.7435840545583688  0.1618430757876083  1.0000
  C   C41       1.0  0.9456220013377749  0.30786289052934984  0.04104421491349796  1.0000
  C   C42       1.0  0.054379602557261826  0.6921382388814337  0.9589546866360763  1.0000
  C   C43       1.0  0.1011863135867372  0.5858422894402792  0.35668595873892184  1.0000
  C   C44       1.0  0.8988145901309608  0.4141540679840432  0.6433153537985703  1.0000
  C   C45       1.0  0.9118119295210434  0.9048572192714773  0.23934613447459452  1.0000
  C   C46       1.0  0.08818632279635352  0.0951410277456688  0.7606574308980569  1.0000
  Br  Br1       1.0  0.8626507812092612  0.5632405523570939  0.8361116615584976  1.0000
  Br  Br2       1.0  0.13734552387424515  0.4367643726400414  0.16389393011948533  1.0000
  Br  Br3       1.0  0.4596008541337114  0.8085905463705744  0.8931543251649003  1.0000
  Br  Br4       1.0  0.5404134777638063  0.19140315553240583  0.1068488702944776  1.0000
  Br  Br5       1.0  0.48700857476371334  0.1365119371028101  0.83882390400575  1.0000
  Br  Br6       1.0  0.5129962928281273  0.8634958065630584  0.16115822405735275  1.0000
  N   N1        1.0  0.667971559651498  0.10610678937161569  0.4110285339580814  1.0000
  N   N2        1.0  0.3320261290950698  0.893893335962339  0.5889716575300171  1.0000
  N   N3        1.0  0.21271112455477237  0.7015374584914156  0.5235603434760279  1.0000
  N   N4        1.0  0.7872915985038206  0.29845988148434094  0.4764409369264584  1.0000
  N   N5        1.0  0.2322464625414398  0.6369488492834492  0.4532341725460185  1.0000
  N   N6        1.0  0.7677559800614234  0.3630494353176061  0.5467661490668903  1.0000
  N   N7        1.0  0.7475658854363019  0.08027253456410931  0.3165918696951168  1.0000
  N   N8        1.0  0.25243208243630727  0.9197266406776309  0.6834085524298601  1.0000
  O   O1        1.0  0.3404296148057425  0.6346449026081447  0.7664843816167065  1.0000
  O   O2        1.0  0.6595679320155695  0.3653485505549341  0.23351868213307372  1.0000
  O   O3        1.0  0.41305336252487745  0.3098245195864422  0.5809670019256358  1.0000
  O   O4        1.0  0.5869476165122053  0.6901823293406577  0.4190309791299498  1.0000
  O   O5        1.0  0.5764719744381281  0.6271735858247139  0.6985844345011215  1.0000
  O   O6        1.0  0.4235225126341646  0.37283036208790327  0.301421917464566  1.0000
  O   O7        1.0  0.47710882930120146  0.4503661431611123  0.6248726882115605  1.0000
  O   O8        1.0  0.5228894903574641  0.5496425625573876  0.37512317676299034  1.0000
  O   O9        1.0  0.8602114341837604  0.41316410802166104  0.06451929177609378  1.0000
  O   O10       1.0  0.13979023897651638  0.5868332129910315  0.9354815252991033  1.0000
  O   O11       1.0  0.9384301270859796  0.1992311181447732  0.09944998884175499  1.0000
  O   O12       1.0  0.06157594356120192  0.8007690878239091  0.9005444432795571  1.0000
