data_image0
_chemical_formula_structural       Mn4H40C52N8Cl18O10
_chemical_formula_sum              "Mn4 H40 C52 N8 Cl18 O10"
_cell_length_a       9.196594274301116
_cell_length_b       12.531164099819181
_cell_length_c       16.244282168951433
_cell_angle_alpha    112.87895178328368
_cell_angle_beta     106.99803295352031
_cell_angle_gamma    89.84607420320836

_space_group_name_H-M_alt    "P 1"
_space_group_IT_number       1

loop_
  _space_group_symop_operation_xyz
  'x, y, z'

loop_
  _atom_site_type_symbol
  _atom_site_label
  _atom_site_symmetry_multiplicity
  _atom_site_fract_x
  _atom_site_fract_y
  _atom_site_fract_z
  _atom_site_occupancy
  Mn  Mn1       1.0  0.49991060375050717  0.13855309807904356  0.00018201484564882224  1.0000
  Mn  Mn2       1.0  0.49983090278420406  0.8608238459870775  0.9999928978885037  1.0000
  Mn  Mn3       1.0  0.9996139913442121  0.9997511754618886  0.9999260201933995  1.0000
  Mn  Mn4       1.0  0.999980061772618  0.5003820863964137  6.650267316397649e-05  1.0000
  H   H1        1.0  0.7272404932719069  0.2898622446175239  0.9973410408822261  1.0000
  H   H2        1.0  0.2685971915731358  0.7050780470131317  0.9950910004966076  1.0000
  H   H3        1.0  0.7316155530524497  0.7092314088003417  0.004226324057093145  1.0000
  H   H4        1.0  0.2726992794311442  0.2938343131247265  0.0029817080286705065  1.0000
  H   H5        1.0  0.8595361374168887  0.43003616847769893  0.32824372143343794  1.0000
  H   H6        1.0  0.47020151689673634  0.8969497539539831  0.3259776872931966  1.0000
  H   H7        1.0  0.5301268353963877  0.5705543538160073  0.6735610972002918  1.0000
  H   H8        1.0  0.1414955880015896  0.10257150026122731  0.672415278756489  1.0000
  H   H9        1.0  0.7221314857048141  0.39528896363272287  0.43043382463422836  1.0000
  H   H10       1.0  0.7114381977311339  0.035346153636972105  0.43025262129079084  1.0000
  H   H11       1.0  0.2893846435227729  0.605693410205923  0.5695394237797232  1.0000
  H   H12       1.0  0.279888704022909  0.9656393597992833  0.5700155062104173  1.0000
  H   H13       1.0  0.48031884572477407  0.25480869812010104  0.3526238982218217  1.0000
  H   H14       1.0  0.8754957013642153  0.09949345059923331  0.35463072858904354  1.0000
  H   H15       1.0  0.12475559404646225  0.7458562442405853  0.6455257861319056  1.0000
  H   H16       1.0  0.5210202224221874  0.9016775933448287  0.6475628988425798  1.0000
  H   H17       1.0  0.3892697522582154  0.15109206506529924  0.17668077957537073  1.0000
  H   H18       1.0  0.7889349838648556  0.027572664305743903  0.17885115685755443  1.0000
  H   H19       1.0  0.21039822593967727  0.8489855389283181  0.8214418241770218  1.0000
  H   H20       1.0  0.6106906857129814  0.9727798729377926  0.8233381532919993  1.0000
  H   H21       1.0  0.8403579617185811  0.4098383846479835  0.16793223938780244  1.0000
  H   H22       1.0  0.3274398641646811  0.7565416785434208  0.16512223624761185  1.0000
  H   H23       1.0  0.672460882202202  0.5903806990439763  0.8340754207845009  1.0000
  H   H24       1.0  0.1587521091719921  0.24159474597360736  0.8325991993718134  1.0000
  H   H25       1.0  0.8596688150683746  0.25887332730204793  0.12551596075520882  1.0000
  H   H26       1.0  0.2650282697379183  0.865034940064831  0.1228018331494596  1.0000
  H   H27       1.0  0.7346463769721367  0.7413849312141778  0.8769383517706544  1.0000
  H   H28       1.0  0.14078576924802627  0.13327068795538824  0.8750545600240828  1.0000
  H   H29       1.0  0.5318784032773323  0.4189697800564502  0.10663111963650351  1.0000
  H   H30       1.0  0.5757900033469595  0.6881201891275313  0.10640889169737731  1.0000
  H   H31       1.0  0.4246744987489278  0.5809356329589265  0.8928405094177168  1.0000
  H   H32       1.0  0.46797314796192785  0.31117178030445564  0.8933779362068466  1.0000
  H   H33       1.0  0.6379439570275804  0.46968830396160405  0.05119446523945466  1.0000
  H   H34       1.0  0.41368492154297337  0.580662809154319  0.04983124522124179  1.0000
  H   H35       1.0  0.5870430842928086  0.530026910468699  0.949356363831349  1.0000
  H   H36       1.0  0.3619437758231925  0.4184252013724503  0.948584429592934  1.0000
  H   H37       1.0  0.0390462179178499  0.27859590785305954  0.054292558610910625  1.0000
  H   H38       1.0  0.01610536761506863  0.7758651744016164  0.053413983303336535  1.0000
  H   H39       1.0  0.9825463595552008  0.7212927029924644  0.945943464468904  1.0000
  H   H40       1.0  0.962362770632289  0.22439698417708343  0.9468165389105536  1.0000
  C   C1        1.0  0.6970396603490058  0.30685336653834844  0.20004071580454766  1.0000
  C   C2        1.0  0.5037092286199538  0.892765392162623  0.1989651441488576  1.0000
  C   C3        1.0  0.4960331838280395  0.6933607723723085  0.8007987065502745  1.0000
  C   C4        1.0  0.3031027568782108  0.10644321876267068  0.8003197282350814  1.0000
  C   C5        1.0  0.7555540645136601  0.3681391193146127  0.29769416187129144  1.0000
  C   C6        1.0  0.5437817496410702  0.92897019064408  0.29645963467616104  1.0000
  C   C7        1.0  0.4563293666890615  0.632291448731536  0.7032336362908752  1.0000
  C   C8        1.0  0.24528044625947124  0.070693364494943  0.7027834018010923  1.0000
  C   C9        1.0  0.6785778950258886  0.34952926913481275  0.3540445336209075  1.0000
  C   C10       1.0  0.6779774191988395  0.0046951605393915005  0.3539326148850819  1.0000
  C   C11       1.0  0.3223837039334824  0.6510891492138527  0.645904413598636  1.0000
  C   C12       1.0  0.3228185358074853  0.9957496407494876  0.6463418181595558  1.0000
  C   C13       1.0  0.5445154375609746  0.2710522775188267  0.311186629896362  1.0000
  C   C14       1.0  0.76918840473526  0.0411909687977783  0.3123096922502384  1.0000
  C   C15       1.0  0.23087867680822435  0.7294323514710543  0.6877391501122434  1.0000
  C   C16       1.0  0.45650449621265915  0.9594569847730415  0.6890722869322232  1.0000
  C   C17       1.0  0.49304353105798543  0.21348618381090742  0.21365725988380294  1.0000
  C   C18       1.0  0.7221398969970565  0.0013449289600871003  0.21482665718178148  1.0000
  C   C19       1.0  0.27743959775963134  0.7866794932115087  0.7852759404092782  1.0000
  C   C20       1.0  0.5071979290569716  0.9987530640090159  0.7865065399065899  1.0000
  C   C21       1.0  0.7761306363980794  0.3218640245972467  0.1355023513774825  1.0000
  C   C22       1.0  0.35903358576204175  0.8124327688829285  0.13334585229614512  1.0000
  C   C23       1.0  0.6407441911750169  0.6782980223530473  0.8661969007509853  1.0000
  C   C24       1.0  0.22368275442373428  0.18623226932708548  0.8649407636616503  1.0000
  C   C25       1.0  0.5694548487861866  0.3930392376467395  0.04392842262694783  1.0000
  C   C26       1.0  0.47473464515054775  0.6504522338063126  0.04312772225375032  1.0000
  C   C27       1.0  0.525698284360203  0.6067070152056431  0.9561423398779783  1.0000
  C   C28       1.0  0.4304178780681411  0.34890104421361906  0.9560663686959785  1.0000
  C   C29       1.0  0.0979128100572098  0.1483683001835132  0.1842786593385171  1.0000
  C   C30       1.0  0.08784036957626987  0.0355887598605449  0.1839469929969795  1.0000
  C   C31       1.0  0.9113321159092249  0.851349803991539  0.8156342772597827  1.0000
  C   C32       1.0  0.9014166947047854  0.964122761322102  0.8158891546191142  1.0000
  C   C33       1.0  0.18277292633286626  0.2337713410001214  0.3558443291413057  1.0000
  C   C34       1.0  0.1720750003299401  0.12161956775740629  0.3554837588285267  1.0000
  C   C35       1.0  0.8275123599422116  0.7660932072222055  0.6440751215204088  1.0000
  C   C36       1.0  0.8170944391928572  0.878215976207649  0.6443346047595002  1.0000
  C   C37       1.0  0.1467453308840305  0.24672197693720932  0.2698662350170622  1.0000
  C   C38       1.0  0.12363570627693579  0.022552928705280802  0.26911500128424853  1.0000
  C   C39       1.0  0.8754889987079012  0.7530686999528772  0.7301298569084552  1.0000
  C   C40       1.0  0.8529227143494678  0.9771814277157914  0.7306192800079216  1.0000
  C   C41       1.0  0.1690349643154576  0.5851298408521616  0.18353609192639916  1.0000
  C   C42       1.0  0.015161188199734017  0.5988683918014958  0.18282257083064482  1.0000
  C   C43       1.0  0.9847789814793656  0.4156197897454986  0.8173291257665128  1.0000
  C   C44       1.0  0.8309448080467446  0.4012755674049942  0.8165474564204801  1.0000
  C   C45       1.0  0.28673870757177156  0.6183701051722467  0.2695323885541968  1.0000
  C   C46       1.0  0.9836143903945141  0.6511370142274444  0.2681452941342926  1.0000
  C   C47       1.0  0.01628252708916021  0.3824454607973351  0.7320279276462429  1.0000
  C   C48       1.0  0.7132606003845864  0.3486659446619739  0.7304675896824122  1.0000
  C   C49       1.0  0.2538575448699305  0.66884394072342  0.35533047725645167  1.0000
  C   C50       1.0  0.102989066174473  0.6862791501276746  0.354624700354421  1.0000
  C   C51       1.0  0.8969387686692655  0.33131445899384465  0.6454939657647857  1.0000
  C   C52       1.0  0.7461110818710562  0.31343588417355045  0.6447098548503902  1.0000
  N   N1        1.0  0.5677644297971155  0.23012067951373177  0.15877558292689287  1.0000
  N   N2        1.0  0.5916884775766036  0.9290829053059043  0.15887454680730434  1.0000
  N   N3        1.0  0.40778080087312657  0.7699561665792843  0.8410982256377225  1.0000
  N   N4        1.0  0.43211507803611227  0.07043810682552729  0.8414749381943099  1.0000
  N   N5        1.0  0.6656882809960791  0.2977178107539515  0.04241418176340524  1.0000
  N   N6        1.0  0.3758535810417812  0.7434694083719651  0.04073462995665986  1.0000
  N   N7        1.0  0.6241969783339414  0.7021170399051402  0.9587592937480097  1.0000
  N   N8        1.0  0.3342312864557612  0.25574777921128344  0.9579359090673307  1.0000
  Cl  Cl1       1.0  0.3005372067337149  0.0020122398576561005  0.9985986366700532  1.0000
  Cl  Cl2       1.0  0.6989866955175897  0.0028551571367714007  0.001605338625417092  1.0000
  Cl  Cl3       1.0  0.1676444396583463  0.38153028367515424  0.2674887991132309  1.0000
  Cl  Cl4       1.0  0.10064029175279639  0.8846724849782887  0.26548667440219725  1.0000
  Cl  Cl5       1.0  0.8981996510447487  0.6183388077473709  0.73296713015678  1.0000
  Cl  Cl6       1.0  0.8321155738697213  0.11478598216237404  0.733759936348406  1.0000
  Cl  Cl7       1.0  0.2386700444791643  0.35548898377592053  0.46031108556291406  1.0000
  Cl  Cl8       1.0  0.21674574715053296  0.10415588902489499  0.4594813991273625  1.0000
  Cl  Cl9       1.0  0.7833162930454024  0.644521640650794  0.539709619226862  1.0000
  Cl  Cl10      1.0  0.7611853107191989  0.8957478295320128  0.5402466614251011  1.0000
  Cl  Cl11      1.0  0.4703796324926656  0.5933498062443763  0.26829920232294313  1.0000
  Cl  Cl12      1.0  0.7980078017629707  0.6745386348072914  0.2652685790225108  1.0000
  Cl  Cl13      1.0  0.20185861747145137  0.4084125435825641  0.7350307077772414  1.0000
  Cl  Cl14      1.0  0.5297131923596723  0.32485308532669427  0.7315517039845503  1.0000
  Cl  Cl15      1.0  0.39952436671028113  0.7067442639139899  0.45984888006588426  1.0000
  Cl  Cl16      1.0  0.061394972675117294  0.7513513066213733  0.4581968339281062  1.0000
  Cl  Cl17      1.0  0.9384730016878393  0.29297806171156543  0.542006766846427  1.0000
  Cl  Cl18      1.0  0.6003827739916047  0.24734967140282996  0.540114374613438  1.0000
  O   O1        1.0  0.0588441044596806  0.1527927711044228  0.0991652328232036  1.0000
  O   O2        1.0  0.042351463469337644  0.9458315261131818  0.09856413773260904  1.0000
  O   O3        1.0  0.9569264242073813  0.8468729642892115  0.9007947976308517  1.0000
  O   O4        1.0  0.9402437307413506  0.05378117343747141  0.901222186694767  1.0000
  O   O5        1.0  0.1906531985043713  0.5389309558438811  0.0992084410660468  1.0000
  O   O6        1.0  0.9084285735358363  0.5608304371167138  0.09790940640294113  1.0000
  O   O7        1.0  0.0915175989101513  0.46231523639953315  0.9022451280599597  1.0000
  O   O8        1.0  0.8093730208206295  0.43932980838294367  0.9008376111390248  1.0000
  O   O9        1.0  0.0011134163629904204  0.3004072483286323  0.00045710440841873563  1.0000
  O   O10       1.0  0.9988907714205622  0.6996886292882608  0.999787862555529  1.0000
