data_image0
_chemical_formula_structural       Pr8H80C96O64
_chemical_formula_sum              "Pr8 H80 C96 O64"
_cell_length_a       13.334557443116868
_cell_length_b       13.706796260808298
_cell_length_c       18.061364900000502
_cell_angle_alpha    90.00001595421625
_cell_angle_beta     90.00001984771121
_cell_angle_gamma    92.97086846651968

_space_group_name_H-M_alt    "P 1"
_space_group_IT_number       1

loop_
  _space_group_symop_operation_xyz
  'x, y, z'

loop_
  _atom_site_type_symbol
  _atom_site_label
  _atom_site_symmetry_multiplicity
  _atom_site_fract_x
  _atom_site_fract_y
  _atom_site_fract_z
  _atom_site_occupancy
  Pr  Pr1       1.0  0.6426627843992491  0.0947271228954065  0.9882592886335363  1.0000
  Pr  Pr2       1.0  0.8573374613447129  0.4052742132032634  0.48826114335790305  1.0000
  Pr  Pr3       1.0  0.35733723208208795  0.905272333041239  0.011739004795501303  1.0000
  Pr  Pr4       1.0  0.1426648715032215  0.594726721513261  0.5117399184116281  1.0000
  Pr  Pr5       1.0  0.9058191099092029  0.3533772317547276  0.034389576645573114  1.0000
  Pr  Pr6       1.0  0.5941793099286912  0.1466217144835014  0.5343899348350051  1.0000
  Pr  Pr7       1.0  0.09418018920143818  0.6466229487939541  0.9656092704514526  1.0000
  Pr  Pr8       1.0  0.4058206408515659  0.8533762804073391  0.4656094659299016  1.0000
  H   H1        1.0  0.6398111361459018  0.2626281261278223  0.760402771411343  1.0000
  H   H2        1.0  0.8601852445748078  0.23737308680259872  0.26040625418416863  1.0000
  H   H3        1.0  0.36018741274281746  0.737372048509421  0.23959441468155535  1.0000
  H   H4        1.0  0.1398110865014317  0.7626278006255093  0.7395964685886443  1.0000
  H   H5        1.0  0.7688170393288588  0.5185754025515835  0.6518030473588114  1.0000
  H   H6        1.0  0.731182208920913  0.9814269197427093  0.15180488569959044  1.0000
  H   H7        1.0  0.2311838916279569  0.4814277119116924  0.3481974607427533  1.0000
  H   H8        1.0  0.2688155897476676  0.018573248984573396  0.8481978370733362  1.0000
  H   H9        1.0  0.555179914776339  0.14044816525054668  0.2607644294030821  1.0000
  H   H10       1.0  0.9448208032002513  0.3595494306794507  0.7607654719443677  1.0000
  H   H11       1.0  0.4448208190762557  0.8595505660745175  0.7392355250300044  1.0000
  H   H12       1.0  0.05518077942588919  0.6404514981257561  0.23923448248904589  1.0000
  H   H13       1.0  0.8088476516979455  0.4793375580559669  0.8869021134127596  1.0000
  H   H14       1.0  0.6911495096362117  0.0206629822335742  0.386904402975958  1.0000
  H   H15       1.0  0.1911530164531428  0.520659712222951  0.11309728735215434  1.0000
  H   H16       1.0  0.3088475388109941  0.9793371805827319  0.6130988734648783  1.0000
  H   H17       1.0  0.48956684402040906  0.380847506262306  0.11850111057073325  1.0000
  H   H18       1.0  0.010434707482339402  0.11915191695210582  0.618500888569564  1.0000
  H   H19       1.0  0.5104331724616243  0.6191519496749079  0.8814999511983574  1.0000
  H   H20       1.0  0.989565341850238  0.8808482695080074  0.3814996195315957  1.0000
  H   H21       1.0  0.8328546100122622  0.5824398990700246  0.7742002345596364  1.0000
  H   H22       1.0  0.6671424487650199  0.917562455776924  0.27420204402439213  1.0000
  H   H23       1.0  0.16714540646977133  0.41755955686718244  0.2258008272094544  1.0000
  H   H24       1.0  0.33285466538341524  0.08243916808530123  0.7258006787485913  1.0000
  H   H25       1.0  0.44411314624493053  0.47945114350725504  0.2290531140670567  1.0000
  H   H26       1.0  0.055892961856855494  0.020548360593046797  0.7290523300299727  1.0000
  H   H27       1.0  0.5558883706799875  0.520548324252033  0.7709473940342166  1.0000
  H   H28       1.0  0.9441085879187482  0.979451837689254  0.2709481780713788  1.0000
  H   H29       1.0  0.46458046895807575  0.41064628478114434  0.3556670180790037  1.0000
  H   H30       1.0  0.0354256695932307  0.0893525408145024  0.8556662427041748  1.0000
  H   H31       1.0  0.5354210151163058  0.5893524524552447  0.6443340436902009  1.0000
  H   H32       1.0  0.9645766961052471  0.9106491244249283  0.14433426539742567  1.0000
  H   H33       1.0  0.2042446608699038  0.2143746635988748  0.013477987538522007  1.0000
  H   H34       1.0  0.29575452176212025  0.2856232376892009  0.5134822998589357  1.0000
  H   H35       1.0  0.7957554213123857  0.7856262533834624  0.9865186448866301  1.0000
  H   H36       1.0  0.7042476139817352  0.7143733138892331  0.48651876191013355  1.0000
  H   H37       1.0  0.30928642498795256  0.5126252239370358  0.9795965989927643  1.0000
  H   H38       1.0  0.1907084102850192  0.987373963721396  0.47959344535913584  1.0000
  H   H39       1.0  0.6907121896029551  0.48737641174691493  0.020403909108360107  1.0000
  H   H40       1.0  0.8092855387229889  0.012623983880573102  0.5204054017370014  1.0000
  H   H41       1.0  0.5044990374309889  0.27887439224264915  0.9330580352892572  1.0000
  H   H42       1.0  0.9955013778185489  0.22113130431441866  0.4330565657457514  1.0000
  H   H43       1.0  0.49550270944925506  0.7211301891782043  0.06694468748460743  1.0000
  H   H44       1.0  0.004498835767151403  0.7788725347605449  0.5669428350197665  1.0000
  H   H45       1.0  0.47504871408842314  0.45654711908006357  0.9375211672550423  1.0000
  H   H46       1.0  0.024947257939601303  0.043458232095808604  0.4375167756692237  1.0000
  H   H47       1.0  0.524951532349064  0.5434574505188293  0.06248266285465582  1.0000
  H   H48       1.0  0.9750461708019244  0.9565448232564079  0.5624831787633797  1.0000
  H   H49       1.0  0.8705780708104882  0.4892325165948322  0.16283004496133205  1.0000
  H   H50       1.0  0.6294249802704003  0.010767978924093301  0.6628270627419612  1.0000
  H   H51       1.0  0.12942276159386523  0.5107684062990501  0.8371688021359633  1.0000
  H   H52       1.0  0.3705735686194275  0.9892321957140595  0.3371745526950321  1.0000
  H   H53       1.0  0.9729752730527963  0.5331884315436355  0.13423421672667504  1.0000
  H   H54       1.0  0.5270260856749615  0.9668109791735661  0.6342346222757417  1.0000
  H   H55       1.0  0.027024776279226604  0.46681175491603  0.8657640767024335  1.0000
  H   H56       1.0  0.47297458247612667  0.033186291105352005  0.36576477848917943  1.0000
  H   H57       1.0  0.744791815577976  0.34726027913688984  0.16540789320892205  1.0000
  H   H58       1.0  0.7552047476046297  0.1527460084263197  0.6654094003669118  1.0000
  H   H59       1.0  0.2552091153784204  0.6527428353260376  0.8345909538886007  1.0000
  H   H60       1.0  0.2447944858053432  0.8472527110768979  0.3345922150700248  1.0000
  H   H61       1.0  0.6858157291009803  0.3306596662892005  0.09112224696169592  1.0000
  H   H62       1.0  0.8141807312414147  0.16934512970829022  0.5911237722470022  1.0000
  H   H63       1.0  0.3141821681190963  0.6693426940066727  0.9088782611394141  1.0000
  H   H64       1.0  0.18581706742688908  0.8306550390187654  0.40887784318989884  1.0000
  H   H65       1.0  0.8258216333822049  0.002088850795217904  0.9391539326629047  1.0000
  H   H66       1.0  0.6741785549607401  0.4979117346056441  0.43915465267006243  1.0000
  H   H67       1.0  0.1741784488007738  0.9979120661876807  0.06084546810230762  1.0000
  H   H68       1.0  0.3258199939288033  0.5020884400322814  0.5608458554309055  1.0000
  H   H69       1.0  0.8647271979063119  0.1126784271707493  0.9304458581384628  1.0000
  H   H70       1.0  0.6352752367474536  0.3873221723856304  0.43044599253814664  1.0000
  H   H71       1.0  0.1352751020903895  0.887321777022308  0.06955298895893952  1.0000
  H   H72       1.0  0.3647255628064983  0.6126780199854667  0.5695539618950962  1.0000
  H   H73       1.0  0.5389679437336311  0.9711194714361756  0.8612872319521474  1.0000
  H   H74       1.0  0.9610349961006506  0.5288793138630226  0.3612868225427236  1.0000
  H   H75       1.0  0.4610328558200365  0.028880720934694206  0.13871161514506986  1.0000
  H   H76       1.0  0.0389672710457845  0.4711201598073629  0.6387136855586422  1.0000
  H   H77       1.0  0.5870899511127375  0.0695705122072212  0.8274347779960964  1.0000
  H   H78       1.0  0.9129137682310572  0.4304264042353125  0.32743665170979613  1.0000
  H   H79       1.0  0.412909413699964  0.9304311293880546  0.1725668374411456  1.0000
  H   H80       1.0  0.08708849891552012  0.5695730694351865  0.672564410059586  1.0000
  C   C1        1.0  0.7125831810381699  0.30042017894628253  0.898037454454752  1.0000
  C   C2        1.0  0.7874168881970931  0.1995781979934748  0.3980398040528358  1.0000
  C   C3        1.0  0.28741813878197325  0.6995749056743394  0.10196028530599224  1.0000
  C   C4        1.0  0.2125830625838532  0.8004197968979342  0.6019623650521242  1.0000
  C   C5        1.0  0.7228848162205496  0.36478356807002393  0.8311870327518851  1.0000
  C   C6        1.0  0.7771145350729186  0.13521623653968362  0.3311893668577711  1.0000
  C   C7        1.0  0.27711663500246425  0.6352144386427767  0.1688112606771811  1.0000
  C   C8        1.0  0.22288469833719657  0.8647824829636477  0.6688128022471748  1.0000
  C   C9        1.0  0.7009379036056984  0.38666021522914207  0.6990469634200738  1.0000
  C   C10       1.0  0.7990606642542345  0.11334025970397481  0.19905040598181506  1.0000
  C   C11       1.0  0.2990621785770031  0.6133407017535362  0.300951330009113  1.0000
  C   C12       1.0  0.20093788463600504  0.886659914934519  0.8009528704592203  1.0000
  C   C13       1.0  0.6829335396807323  0.3321545829058792  0.7635238103771089  1.0000
  C   C14       1.0  0.8170643430437609  0.1678466431293231  0.26352892939105044  1.0000
  C   C15       1.0  0.31706650965087135  0.6678456035534378  0.2364728220479649  1.0000
  C   C16       1.0  0.18293345562509705  0.8321535255981871  0.7364749007179017  1.0000
  C   C17       1.0  0.560071221075134  0.19952196210691403  0.11806924018547707  1.0000
  C   C18       1.0  0.9399288067429622  0.3004784913790531  0.618071376989079  1.0000
  C   C19       1.0  0.43992882825702406  0.800478224352858  0.8819296069116479  1.0000
  C   C20       1.0  0.06007124258961479  0.6995216950810599  0.3819291311120809  1.0000
  C   C21       1.0  0.6691921848073291  0.34188002258842687  0.6267794376677573  1.0000
  C   C22       1.0  0.8308057609544478  0.1581240693580099  0.1267823435076352  1.0000
  C   C23       1.0  0.33080799592727317  0.658123085963183  0.3732183020936476  1.0000
  C   C24       1.0  0.1691928207860585  0.8418768358031629  0.8732192719294365  1.0000
  C   C25       1.0  0.7552588928781604  0.47697205464470477  0.7025904545681957  1.0000
  C   C26       1.0  0.7447405255263249  0.023030619223916898  0.20259165071685467  1.0000
  C   C27       1.0  0.244741972377291  0.5230295987725384  0.2974100535332128  1.0000
  C   C28       1.0  0.2552588392866539  0.9769710223715935  0.7974110720564132  1.0000
  C   C29       1.0  0.530607893853663  0.21453483934207182  0.25399584230093813  1.0000
  C   C30       1.0  0.9693942883312019  0.2854620351061641  0.7539963224827633  1.0000
  C   C31       1.0  0.4693935902205765  0.7854638978942035  0.746004665800257  1.0000
  C   C32       1.0  0.030608011665918904  0.7145381690872341  0.24600418561868062  1.0000
  C   C33       1.0  0.5253508206358433  0.25511361854831455  0.18317340194238346  1.0000
  C   C34       1.0  0.9746506087706094  0.2448839514148631  0.683173321637675  1.0000
  C   C35       1.0  0.4746499460675652  0.744885843299876  0.8168271061587975  1.0000
  C   C36       1.0  0.0253501579329338  0.7551155104334414  0.3168277401315153  1.0000
  C   C37       1.0  0.7768057057985088  0.4552872355013663  0.8343274535562346  1.0000
  C   C38       1.0  0.7231921794726405  0.04471328909937709  0.33432975598257303  1.0000
  C   C39       1.0  0.22319499520325786  0.5447107653005716  0.16567194720876446  1.0000
  C   C40       1.0  0.2768071196389741  0.9552868914500934  0.6656729667905383  1.0000
  C   C41       1.0  0.4944054808366758  0.35080971157492513  0.17422668624779197  1.0000
  C   C42       1.0  0.005598316339749903  0.14918902174417786  0.6742264690564498  1.0000
  C   C43       1.0  0.5055960032375708  0.6491890256613431  0.8257738218534033  1.0000
  C   C44       1.0  0.9944024832142019  0.8508111706269192  0.3257734853767929  1.0000
  C   C45       1.0  0.7912813941410802  0.511941252336662  0.7706152218966127  1.0000
  C   C46       1.0  0.7087164130655452  0.9880611069486278  0.2706176095988227  1.0000
  C   C47       1.0  0.20871865519135474  0.4880589341233375  0.2293847325365307  1.0000
  C   C48       1.0  0.291281418453721  0.011939792301674898  0.729385113174182  1.0000
  C   C49       1.0  0.5106077667820372  0.2713137757178004  0.3161400968310205  1.0000
  C   C50       1.0  0.9893959469146621  0.22868313608411478  0.8161405706451536  1.0000
  C   C51       1.0  0.4893936844413886  0.7286842309953413  0.6838598576020802  1.0000
  C   C52       1.0  0.010607136154369805  0.7713178045431661  0.18385883012043552  1.0000
  C   C53       1.0  0.46989070967934043  0.4057894883951292  0.2359761747384398  1.0000
  C   C54       1.0  0.030114651662238104  0.0942100126384844  0.7359759526731087  1.0000
  C   C55       1.0  0.5301108072457197  0.5942099793642728  0.7640248870308428  1.0000
  C   C56       1.0  0.969886213593071  0.9057916407786452  0.2640240017602907  1.0000
  C   C57       1.0  0.4802468051451926  0.36708019685447374  0.3069027055104528  1.0000
  C   C58       1.0  0.0197585259546429  0.13291787227284152  0.806903042277114  1.0000
  C   C59       1.0  0.5197547117795907  0.6329192709047007  0.6930972489228113  1.0000
  C   C60       1.0  0.9802438725945208  0.8670845234896024  0.19309746582456472  1.0000
  C   C61       1.0  0.24634289780193094  0.3666212282540542  0.9981721382620424  1.0000
  C   C62       1.0  0.2536543093365111  0.13337758495588764  0.49817280510884404  1.0000
  C   C63       1.0  0.753656499860753  0.6333811438636728  0.0018267088352175004  1.0000
  C   C64       1.0  0.7463432593763458  0.866617470109496  0.5018260419874495  1.0000
  C   C65       1.0  0.2637780229646438  0.2671447252775749  0.9968654739664803  1.0000
  C   C66       1.0  0.23622068396426238  0.2328540992182937  0.4968689247275436  1.0000
  C   C67       1.0  0.7362228094394324  0.7328561976160797  0.003132265794789601  1.0000
  C   C68       1.0  0.763779233965593  0.7671431651497542  0.5031315833733034  1.0000
  C   C69       1.0  0.3230546174633986  0.43512049752725096  0.9775076035391453  1.0000
  C   C70       1.0  0.17693889393696344  0.06487973868280511  0.4775054690601338  1.0000
  C   C71       1.0  0.676942529535296  0.5648818568576459  0.02249345822988151  1.0000
  C   C72       1.0  0.8230542719988422  0.9351174724850536  0.5224933780358259  1.0000
  C   C73       1.0  0.144436435963577  0.3969572895097428  0.019227286979990807  1.0000
  C   C74       1.0  0.3555589655828655  0.10303985406053329  0.5192249336760713  1.0000
  C   C75       1.0  0.855559829410886  0.6030421368719985  0.980773774788631  1.0000
  C   C76       1.0  0.6444371026858493  0.896955189181746  0.4807694840759426  1.0000
  C   C77       1.0  0.3567844119300787  0.2352719649169686  0.9742104947201968  1.0000
  C   C78       1.0  0.14321516529705747  0.2647297782746563  0.4742150358720212  1.0000
  C   C79       1.0  0.6432157359538452  0.7647304131116212  0.02578724504113691  1.0000
  C   C80       1.0  0.8567849497372962  0.7352718692318305  0.5257871332333297  1.0000
  C   C81       1.0  0.5280568742458627  0.2312020342967216  0.3915280851938123  1.0000
  C   C82       1.0  0.9719446593269507  0.2687956212675005  0.8915285626733297  1.0000
  C   C83       1.0  0.471945327198938  0.7687959783274039  0.6084713155713717  1.0000
  C   C84       1.0  0.028056140227001012  0.7312045711035966  0.10847139175991326  1.0000
  C   C85       1.0  0.4326719555666116  0.30373845056285376  0.9519497350117238  1.0000
  C   C86       1.0  0.06732842645308779  0.19626475043931885  0.4519498140476445  1.0000
  C   C87       1.0  0.5673297584625345  0.6962654003346459  0.04805132675802782  1.0000
  C   C88       1.0  0.932672373100999  0.8037354419318916  0.5480506940536076  1.0000
  C   C89       1.0  0.41564002730732597  0.4033254794022484  0.9541732735969862  1.0000
  C   C90       1.0  0.08435653901440078  0.09667623191137412  0.45417056859487576  1.0000
  C   C91       1.0  0.5843601205775711  0.5966768986271448  0.04582834184042641  1.0000
  C   C92       1.0  0.915638193065938  0.9033224521248188  0.5458288321694413  1.0000
  C   C93       1.0  0.37244755001844954  0.1285109907983824  0.9766516082458172  1.0000
  C   C94       1.0  0.1275542462433918  0.37149004060677276  0.47665782788134714  1.0000
  C   C95       1.0  0.6275541311586252  0.8714921295749605  0.02334391684373571  1.0000
  C   C96       1.0  0.8724480866046846  0.6285108941098655  0.5233437875562006  1.0000
  O   O1        1.0  0.7600317056564877  0.32519290066649376  0.9568580451611485  1.0000
  O   O2        1.0  0.7399691103571798  0.17480477582766707  0.4568620388895115  1.0000
  O   O3        1.0  0.23997023298217354  0.6747992677729328  0.04313858726335702  1.0000
  O   O4        1.0  0.2600323080165338  0.8251925003632579  0.543141791219604  1.0000
  O   O5        1.0  0.5986815029835171  0.24754308854615206  0.06309167724709402  1.0000
  O   O6        1.0  0.9013178128285732  0.252458797487634  0.5630937947324813  1.0000
  O   O7        1.0  0.40131857919960373  0.7524578284368675  0.9369082771861278  1.0000
  O   O8        1.0  0.09868223650427412  0.7475413889727065  0.4369078207047041  1.0000
  O   O9        1.0  0.7169273163300359  0.36845727069799483  0.5685081027200456  1.0000
  O   O10       1.0  0.7830721664430201  0.1315482701758697  0.06850877658063582  1.0000
  O   O11       1.0  0.28307364747689684  0.6315465742878388  0.4314901907095463  1.0000
  O   O12       1.0  0.21692638244666537  0.8684519044621696  0.9314922851883485  1.0000
  O   O13       1.0  0.5993694972182197  0.2749138138009499  0.6274078353868051  1.0000
  O   O14       1.0  0.900627079817845  0.22509318867387412  0.12741243318021137  1.0000
  O   O15       1.0  0.40062993329459573  0.7250892888393351  0.3725887970384891  1.0000
  O   O16       1.0  0.09937081740223158  0.7749091716219992  0.8725880749208916  1.0000
  O   O17       1.0  0.5558846714623868  0.10623935159908628  0.11760913218879675  1.0000
  O   O18       1.0  0.9441123552401793  0.3937610780539202  0.6176135034213248  1.0000
  O   O19       1.0  0.44411162676178145  0.893760805304872  0.8823880539038174  1.0000
  O   O20       1.0  0.0558884443139149  0.6062391143172832  0.3823870046799344  1.0000
  O   O21       1.0  0.6571008596076027  0.22192362651640707  0.8928252089571703  1.0000
  O   O22       1.0  0.842899207022377  0.27807474828239975  0.3928298028906456  1.0000
  O   O23       1.0  0.3428997756916986  0.7780729132385886  0.10716976246357753  1.0000
  O   O24       1.0  0.15709927616664032  0.721923965310175  0.6071740272182427  1.0000
  O   O25       1.0  0.0846289181481126  0.3348831690845842  0.05081071133458442  1.0000
  O   O26       1.0  0.41536940152238333  0.1651118195368326  0.5508083854861143  1.0000
  O   O27       1.0  0.9153709997816007  0.6651140952833502  0.9491892430982536  1.0000
  O   O28       1.0  0.5846302864510449  0.8348803311687404  0.4491854785980467  1.0000
  O   O29       1.0  0.12011674508033113  0.4835429609032503  0.003781616077134201  1.0000
  O   O30       1.0  0.3798764309299544  0.0164548891107898  0.50377814417557  1.0000
  O   O31       1.0  0.8798788029234289  0.5164571900905275  0.9962199993594827  1.0000
  O   O32       1.0  0.6201143857880211  0.9835401127537156  0.4962157199077668  1.0000
  O   O33       1.0  0.5222775466329779  0.13863933132365247  0.40222660218535133  1.0000
  O   O34       1.0  0.9777233077680948  0.36135978377068767  0.90222599234145  1.0000
  O   O35       1.0  0.4777239374411266  0.8613594059125091  0.5977733522478348  1.0000
  O   O36       1.0  0.02227755748734951  0.6386418696465556  0.09777451575995853  1.0000
  O   O37       1.0  0.5525501917226022  0.2891333686720897  0.44476161243490986  1.0000
  O   O38       1.0  0.9474521186857813  0.2108643146739198  0.9447626258191452  1.0000
  O   O39       1.0  0.4474520097223404  0.7108646439521422  0.5552383419982905  1.0000
  O   O40       1.0  0.05255018131133939  0.7891358895194783  0.055237882282298825  1.0000
  O   O41       1.0  0.9370349592399377  0.46982722677041266  0.14829958804377705  1.0000
  O   O42       1.0  0.5629665184327948  0.030171789911129603  0.6482993613801187  1.0000
  O   O43       1.0  0.06296509009208512  0.5301729596892458  0.8516987053853317  1.0000
  O   O44       1.0  0.437032714976489  0.9698269295915196  0.3516994857167577  1.0000
  O   O45       1.0  0.7442874054125996  0.3691313579294686  0.11415263278647103  1.0000
  O   O46       1.0  0.7557090992944355  0.1308741780528919  0.6141541356849489  1.0000
  O   O47       1.0  0.2557112748792533  0.630871738800174  0.8858462143107748  1.0000
  O   O48       1.0  0.2442894167445715  0.8691252660621346  0.3858469260839572  1.0000
  O   O49       1.0  0.29630079822000965  0.06992366505587459  0.9871591043514845  1.0000
  O   O50       1.0  0.20370468870013533  0.43007593917474196  0.4871609254991755  1.0000
  O   O51       1.0  0.7037030679213601  0.9300780120056376  0.012840850082291407  1.0000
  O   O52       1.0  0.7962997962605839  0.5699228217062497  0.5128412436064311  1.0000
  O   O53       1.0  0.8077511894379796  0.06483973961530862  0.9191798094832254  1.0000
  O   O54       1.0  0.6922497719908876  0.43516157401321465  0.419179414104832  1.0000
  O   O55       1.0  0.19224964296650876  0.9351611832786872  0.08081959128208643  1.0000
  O   O56       1.0  0.3077503430430539  0.564840073492931  0.580821093996484  1.0000
  O   O57       1.0  0.4606160707198157  0.09664027996860373  0.9697529126811237  1.0000
  O   O58       1.0  0.039388235564558706  0.4033666105209264  0.46976520693353774  1.0000
  O   O59       1.0  0.5393864920799772  0.9033657684066443  0.030236522060697307  1.0000
  O   O60       1.0  0.9606156962788646  0.5966365275871793  0.5302375158404545  1.0000
  O   O61       1.0  0.5996986164977613  0.0172127976974039  0.8620534204527035  1.0000
  O   O62       1.0  0.9003051201535044  0.4827841329679359  0.36205530150235204  1.0000
  O   O63       1.0  0.4003043023171813  0.9827844903142305  0.13794321197244136  1.0000
  O   O64       1.0  0.09969642962209953  0.5172160653143649  0.6379452065989997  1.0000
