data_image0
_chemical_formula_structural       Tb4H76C96O32
_chemical_formula_sum              "Tb4 H76 C96 O32"
_cell_length_a       15.08245969729991
_cell_length_b       15.083061413249665
_cell_length_c       25.662986851915665
_cell_angle_alpha    95.32511855460416
_cell_angle_beta     102.7026518941695
_cell_angle_gamma    117.89972215443994

_space_group_name_H-M_alt    "P 1"
_space_group_IT_number       1

loop_
  _space_group_symop_operation_xyz
  'x, y, z'

loop_
  _atom_site_type_symbol
  _atom_site_label
  _atom_site_symmetry_multiplicity
  _atom_site_fract_x
  _atom_site_fract_y
  _atom_site_fract_z
  _atom_site_occupancy
  Tb  Tb1       1.0  0.8491362222473313  0.9278493725765458  0.051775982699375354  1.0000
  Tb  Tb2       1.0  0.3760006110846917  0.7972873933281407  0.44823380070400287  1.0000
  Tb  Tb3       1.0  0.15087804211074024  0.0721693793849456  0.9482228915042656  1.0000
  Tb  Tb4       1.0  0.6240022916227304  0.20271618337277178  0.5517668126260136  1.0000
  H   H1        1.0  0.07332969277057087  0.009264021141916596  0.239476939102083  1.0000
  H   H2        1.0  0.2696448767569207  0.8337679706991707  0.2604441387433951  1.0000
  H   H3        1.0  0.9266784478624571  0.990743151543242  0.7605227492942249  1.0000
  H   H4        1.0  0.730350934116153  0.16622397847924475  0.73955401776513  1.0000
  H   H5        1.0  0.1490257820357073  0.3699134296874859  0.27433005576026664  1.0000
  H   H6        1.0  0.5956052889877768  0.8745953489166356  0.22574308507027047  1.0000
  H   H7        1.0  0.8509626429178995  0.6300849742387629  0.7256737937454717  1.0000
  H   H8        1.0  0.4043927086801346  0.12540119348999906  0.7742580186596655  1.0000
  H   H9        1.0  0.030705757045197415  0.24956880606108464  0.18548760985701312  1.0000
  H   H10       1.0  0.56388201297284  0.845029009149833  0.31454043929917225  1.0000
  H   H11       1.0  0.9692844004547965  0.7504301380313905  0.8145141252325203  1.0000
  H   H12       1.0  0.43611461409823693  0.15496586007898813  0.6854600666676447  1.0000
  H   H13       1.0  0.3914687653737658  0.21108560064487142  0.4701586172588962  1.0000
  H   H14       1.0  0.24081257821839594  0.9210875130958127  0.02978129832838766  1.0000
  H   H15       1.0  0.6085315589088154  0.7889189360071569  0.5298424974662341  1.0000
  H   H16       1.0  0.7592026780664439  0.07892624939286473  0.9702216418586291  1.0000
  H   H17       1.0  0.14976602939684358  0.9689054029361588  0.29264306820164165  1.0000
  H   H18       1.0  0.17646986015190447  0.8574749032528431  0.20740670227635158  1.0000
  H   H19       1.0  0.8502370484223648  0.031096989707741524  0.7073577204451454  1.0000
  H   H20       1.0  0.8235225684413052  0.14250959546253483  0.7925880845644359  1.0000
  H   H21       1.0  0.24031537900975755  0.9135815325419827  0.3625714670490368  1.0000
  H   H22       1.0  0.051184941362223  0.8779419194268955  0.13747239094563216  1.0000
  H   H23       1.0  0.7596898509293198  0.08642331293812339  0.6374306984844795  1.0000
  H   H24       1.0  0.9488190874803307  0.12206023372483085  0.8625255041613544  1.0000
  H   H25       1.0  0.2241222396401454  0.4559666769144287  0.34594927624142713  1.0000
  H   H26       1.0  0.6101672385109679  0.8783169965993807  0.15406900510539154  1.0000
  H   H27       1.0  0.7758778516552098  0.5440352156553773  0.6540508390713243  1.0000
  H   H28       1.0  0.38983713469215076  0.12168217088708386  0.8459307720415696  1.0000
  H   H29       1.0  0.3961260205560109  0.3394160498005476  0.48863385292671785  1.0000
  H   H30       1.0  0.3507361511369708  0.9072826655110476  0.011314380449533736  1.0000
  H   H31       1.0  0.603869193894809  0.6605870567819563  0.5113683133187692  1.0000
  H   H32       1.0  0.6492644654937437  0.0927156748877066  0.9886862608135447  1.0000
  H   H33       1.0  0.4172018705447584  0.512431359622461  0.5080157879756158  1.0000
  H   H34       1.0  0.5045190197177547  0.9092187556193495  0.9919858001508646  1.0000
  H   H35       1.0  0.5827916701036031  0.48756909192452724  0.49198547860333974  1.0000
  H   H36       1.0  0.4954821216313264  0.09078275807455334  0.008013825854234827  1.0000
  H   H37       1.0  0.67704377206735  0.8553335449214999  0.9189269164819367  1.0000
  H   H38       1.0  0.43616529804792503  0.7580406230674797  0.5810103108444197  1.0000
  H   H39       1.0  0.32295323928527614  0.1446678220515025  0.08107396924481951  1.0000
  H   H40       1.0  0.5638271702147365  0.24195257659965827  0.4189883531029467  1.0000
  H   H41       1.0  0.6438400494260605  0.7250172610213497  0.8972422206418785  1.0000
  H   H42       1.0  0.327600081762  0.7466034575579173  0.6027378964149577  1.0000
  H   H43       1.0  0.35616216492569913  0.2749847790862106  0.10276154920310894  1.0000
  H   H44       1.0  0.672391820627361  0.2533905363370367  0.39726020265383266  1.0000
  H   H45       1.0  0.7890149239102867  0.7818376744810107  0.8540514444676788  1.0000
  H   H46       1.0  0.4277554517991647  0.934997367243774  0.6459289134194394  1.0000
  H   H47       1.0  0.210982740871529  0.21816230623565502  0.14595009379604565  1.0000
  H   H48       1.0  0.5722380838546927  0.06499652374346006  0.3540700463876193  1.0000
  H   H49       1.0  0.8255385005329431  0.9120401877026226  0.8764026396470684  1.0000
  H   H50       1.0  0.5356005744807179  0.9490258856600136  0.6235930626490359  1.0000
  H   H51       1.0  0.1744548361916785  0.08795992506060199  0.12359534987400173  1.0000
  H   H52       1.0  0.4643930487290362  0.05096741329871421  0.3764059848164081  1.0000
  H   H53       1.0  0.6091048168966964  0.7464952310700853  0.7972862629699193  1.0000
  H   H54       1.0  0.44892089488630654  0.8116875460666577  0.7026479800737206  1.0000
  H   H55       1.0  0.39089037583912756  0.25349351929046543  0.20271435254461784  1.0000
  H   H56       1.0  0.5510695261498598  0.18830367893176714  0.2973501798126535  1.0000
  H   H57       1.0  0.7139840156954094  0.8399911966938233  0.7774268856004483  1.0000
  H   H58       1.0  0.5623708635222472  0.9363582845971906  0.7225854293984926  1.0000
  H   H59       1.0  0.28600761316877765  0.1599973951756795  0.2225701751277001  1.0000
  H   H60       1.0  0.4376201233872266  0.06363214617341838  0.2774132953664648  1.0000
  H   H61       1.0  0.6522530192703826  0.8795806462852411  0.8182541178131544  1.0000
  H   H62       1.0  0.5610366170710606  0.8337784782042945  0.6817180949426459  1.0000
  H   H63       1.0  0.34773553551406877  0.12040803753867378  0.18174218192257294  1.0000
  H   H64       1.0  0.43895380396510575  0.16621274679412323  0.3182800649437284  1.0000
  H   H65       1.0  0.8371197127434938  0.8054823577857066  0.9520761639554466  1.0000
  H   H66       1.0  0.3533905101716782  0.8851354303534295  0.5479145116947208  1.0000
  H   H67       1.0  0.1628812766942787  0.1945220277124449  0.047922540493800604  1.0000
  H   H68       1.0  0.6466040053174922  0.11485974398242146  0.4520846563136375  1.0000
  H   H69       1.0  0.8680015759090834  0.7602344253380552  0.07747310565609676  1.0000
  H   H70       1.0  0.18280078231102695  0.7906140953026438  0.42259063490286053  1.0000
  H   H71       1.0  0.13200593511221081  0.23976909588445483  0.9225267251724603  1.0000
  H   H72       1.0  0.8171897553445078  0.2093788429657265  0.577405334996385  1.0000
  H   H73       1.0  0.7869411186473273  0.7622024878587936  0.10616078183144853  1.0000
  H   H74       1.0  0.1560100189411529  0.6808758347708378  0.3938703304784569  1.0000
  H   H75       1.0  0.21305334446392973  0.23779698381292028  0.8938291100799561  1.0000
  H   H76       1.0  0.8439907264003921  0.3191179460764388  0.6061319785795689  1.0000
  C   C1        1.0  0.9735708909975002  0.05011114195909259  0.1544989362859043  1.0000
  C   C2        1.0  0.39534795519406174  0.8188895135088005  0.3454654470442053  1.0000
  C   C3        1.0  0.02643192415403205  0.9498930267703258  0.8455015893857265  1.0000
  C   C4        1.0  0.6046491965953891  0.18110852901517652  0.6545340436646471  1.0000
  C   C5        1.0  0.044942960570807634  0.12181960823005512  0.20833007242318766  1.0000
  C   C6        1.0  0.4133185522905761  0.8364639283274399  0.2916500690043122  1.0000
  C   C7        1.0  0.9550585888772715  0.8781833654890506  0.7916707283110613  1.0000
  C   C8        1.0  0.5866749660258038  0.16352889246378782  0.708348105635402  1.0000
  C   C9        1.0  0.09197618894967967  0.0890093356798687  0.2488181827575104  1.0000
  C   C10       1.0  0.3401056355682073  0.8431165159862387  0.2511526055459328  1.0000
  C   C11       1.0  0.9080268888695288  0.9109930569640241  0.7511826058892767  1.0000
  C   C12       1.0  0.6598898720992351  0.1568744513344668  0.7488452490591727  1.0000
  C   C13       1.0  0.16124625792814845  0.15589354652934878  0.2997772882188557  1.0000
  C   C14       1.0  0.3561910880347838  0.8615155852129137  0.20023236196658448  1.0000
  C   C15       1.0  0.8387524974453485  0.8441088132546568  0.7002237996654728  1.0000
  C   C16       1.0  0.64380527137412  0.13847449954168675  0.7997655742531793  1.0000
  C   C17       1.0  0.18068768673004598  0.258796589556745  0.3099525926775542  1.0000
  C   C18       1.0  0.44888046924865693  0.8707112499369245  0.19005965187545126  1.0000
  C   C19       1.0  0.8193098904958802  0.7412039831884343  0.690048857927785  1.0000
  C   C20       1.0  0.5511179547242264  0.129281879682388  0.809939573572649  1.0000
  C   C21       1.0  0.13333336778464402  0.29095418733176365  0.267760565384279  1.0000
  C   C22       1.0  0.5231700920252819  0.8654727523298078  0.232261234355768  1.0000
  C   C23       1.0  0.8666597994396739  0.7090469445820275  0.7322410968002091  1.0000
  C   C24       1.0  0.47682592863453266  0.1345201531836012  0.7677386678042168  1.0000
  C   C25       1.0  0.06701657806718232  0.2244619798155512  0.21786203920560615  1.0000
  C   C26       1.0  0.5064370532859499  0.8489867827845643  0.2821318089148194  1.0000
  C   C27       1.0  0.9329792724753575  0.7755386703146242  0.782139994409505  1.0000
  C   C28       1.0  0.49355868150572496  0.1510062110671414  0.7178685765090834  1.0000
  C   C29       1.0  0.374208870916398  0.02575612529626879  0.4639526318376994  1.0000
  C   C30       1.0  0.061708547726269124  0.9101175106980577  0.036011251668561825  1.0000
  C   C31       1.0  0.6257965399974668  0.9742481536780475  0.536048177606162  1.0000
  C   C32       1.0  0.9383154685838876  0.08991069925508549  0.9639911970262746  1.0000
  C   C33       1.0  0.31850706627235326  0.05914310671093401  0.4216844634394334  1.0000
  C   C34       1.0  0.1374316051435471  0.896714272195247  0.0782830979004174  1.0000
  C   C35       1.0  0.6814952646987679  0.9408606466665718  0.5783171164184325  1.0000
  C   C36       1.0  0.8625823739633559  0.10329784263834083  0.9217178007754472  1.0000
  C   C37       1.0  0.3354186845726232  0.1587999019725501  0.431460601799607  1.0000
  C   C38       1.0  0.2272769415422218  0.9037821404986133  0.06848838068283673  1.0000
  C   C39       1.0  0.6645812257479521  0.8412025571030456  0.5685408696027993  1.0000
  C   C40       1.0  0.7727327215989421  0.09622383356010308  0.9315128270324424  1.0000
  C   C41       1.0  0.28264020347270247  0.1919895027856171  0.39279164320402066  1.0000
  C   C42       1.0  0.29917261333790185  0.8897187193894068  0.10717417212547535  1.0000
  C   C43       1.0  0.717358849243425  0.8080132213048684  0.6072112779901603  1.0000
  C   C44       1.0  0.7008293862326126  0.11027580382340567  0.8928255452961551  1.0000
  C   C45       1.0  0.21393849735860473  0.12253108737490954  0.3415109974325646  1.0000
  C   C46       1.0  0.28108885154262  0.8724535086532725  0.15848966995163494  1.0000
  C   C47       1.0  0.7860613956245003  0.8774703015046865  0.6584896888025042  1.0000
  C   C48       1.0  0.7189102490599383  0.1275399224569397  0.8415094617943453  1.0000
  C   C49       1.0  0.20023039552481242  0.02246207082899327  0.3319619567113037  1.0000
  C   C50       1.0  0.19061432216440008  0.868403102939773  0.16805550060057334  1.0000
  C   C51       1.0  0.7997729855000275  0.9775413036726095  0.6680391338389102  1.0000
  C   C52       1.0  0.8093819555516077  0.13158819139455596  0.8319408165543721  1.0000
  C   C53       1.0  0.2498181568686917  0.9902229745635011  0.3711745852476369  1.0000
  C   C54       1.0  0.11912505990238745  0.8786922010153971  0.12883041442884755  1.0000
  C   C55       1.0  0.7501870557329086  0.009780800720598417  0.6288267951185348  1.0000
  C   C56       1.0  0.8808768514952517  0.12130963969212152  0.8711676741260989  1.0000
  C   C57       1.0  0.33507052879571114  0.598354372181305  0.4371306466720669  1.0000
  C   C58       1.0  0.6613055948240003  0.8980026388824099  0.06288881605534875  1.0000
  C   C59       1.0  0.6649287983140795  0.40164781092610713  0.562869474684419  1.0000
  C   C60       1.0  0.3387011628692277  0.1020083509886829  0.9371117961824069  1.0000
  C   C61       1.0  0.321812474904533  0.4935681189533767  0.4270556164484561  1.0000
  C   C62       1.0  0.5665627752504819  0.8947495636323524  0.07293808724167418  1.0000
  C   C63       1.0  0.6781828799831117  0.506431663180109  0.5729451547791129  1.0000
  C   C64       1.0  0.4334399993630952  0.10525184715383766  0.9270623995017004  1.0000
  C   C65       1.0  0.2610123580557513  0.4275442660871532  0.3759332601021015  1.0000
  C   C66       1.0  0.5516565949425499  0.8850811632644381  0.12406313280488496  1.0000
  C   C67       1.0  0.7389852250331758  0.5724569242092556  0.6240666590968049  1.0000
  C   C68       1.0  0.44834720652426796  0.11491818089861976  0.8759376108699186  1.0000
  C   C69       1.0  0.24694177171107148  0.32816428554743027  0.3634456320198609  1.0000
  C   C70       1.0  0.4647365392220379  0.8834337731361044  0.13655761355827428  1.0000
  C   C71       1.0  0.7530535831765732  0.6718354965860484  0.636555139207708  1.0000
  C   C72       1.0  0.5352642351829713  0.11656231300963042  0.8634424178542375  1.0000
  C   C73       1.0  0.2967526578283426  0.2951427739424092  0.4046181371103686  1.0000
  C   C74       1.0  0.3904971770622438  0.8919832851522999  0.09535032764502203  1.0000
  C   C75       1.0  0.7032440676561225  0.704858681368883  0.5953832318803053  1.0000
  C   C76       1.0  0.6095053413636363  0.10801379380443864  0.9046499059250622  1.0000
  C   C77       1.0  0.35766338094543926  0.3632623589935449  0.45654205619015903  1.0000
  C   C78       1.0  0.4067005600690338  0.900956670454498  0.04342323433001386  1.0000
  C   C79       1.0  0.6423320788355725  0.6367379013074342  0.543459587863147  1.0000
  C   C80       1.0  0.5933011066153925  0.09904129106835326  0.9565769176254124  1.0000
  C   C81       1.0  0.3701881783970079  0.46061336895174776  0.4678569990015689  1.0000
  C   C82       1.0  0.49278989966231995  0.9022763919154144  0.03212212850446155  1.0000
  C   C83       1.0  0.6298064998609618  0.5393861116908312  0.5321438659281199  1.0000
  C   C84       1.0  0.5072146891905406  0.09772434945726642  0.9678778628875268  1.0000
  C   C85       1.0  0.708640294818558  0.8056912656364048  0.9089094788501059  1.0000
  C   C86       1.0  0.396618691062642  0.7997022142766995  0.5910717833051822  1.0000
  C   C87       1.0  0.2913595279461277  0.194311785467697  0.09109190489391493  1.0000
  C   C88       1.0  0.6033733864385056  0.20029059556123496  0.4089264910803792  1.0000
  C   C89       1.0  0.7580150612554206  0.8330130596103729  0.8629349344627499  1.0000
  C   C90       1.0  0.4699667239202867  0.8950111806716451  0.6370390318640774  1.0000
  C   C91       1.0  0.2419809529244219  0.16698595381801337  0.13706495789536183  1.0000
  C   C92       1.0  0.5300272024950985  0.10498310014479278  0.3629603175047863  1.0000
  C   C93       1.0  0.6788188643410322  0.8241970180382907  0.8110562775789774  1.0000
  C   C94       1.0  0.512929000112955  0.8676103928107112  0.6889210562070363  1.0000
  C   C95       1.0  0.3211735633836739  0.1757934236856116  0.18894234744013266  1.0000
  C   C96       1.0  0.487062966631818  0.1323813213085003  0.31107787675922083  1.0000
  O   O1        1.0  0.9362819186392599  0.08474411718812278  0.11693553989978518  1.0000
  O   O2        1.0  0.46762409652133385  0.8193146667210698  0.3830589151491424  1.0000
  O   O3        1.0  0.0637177636886006  0.915262258365004  0.8830672388621466  1.0000
  O   O4        1.0  0.5323743383090545  0.18068564100922663  0.6169410856644292  1.0000
  O   O5        1.0  0.9516160886557972  0.9560291662520087  0.1454902232059396  1.0000
  O   O6        1.0  0.31023918203473505  0.8058375040304355  0.35445513691849584  1.0000
  O   O7        1.0  0.04839194708386409  0.04397752826565681  0.8545085923646454  1.0000
  O   O8        1.0  0.6897596435571671  0.19416319352905034  0.6455452534568809  1.0000
  O   O9        1.0  0.3373845799803022  0.9289343531460901  0.4594378995880535  1.0000
  O   O10       1.0  0.9693856307954861  0.8777371225653355  0.04053408920186291  1.0000
  O   O11       1.0  0.6626192678874716  0.0710683665114261  0.5405613516085809  1.0000
  O   O12       1.0  0.03064065363692241  0.12230197896016677  0.9594660051842755  1.0000
  O   O13       1.0  0.4541813557545922  0.09327255038304826  0.5022632990124337  1.0000
  O   O14       1.0  0.09090317503188321  0.9518593074591947  0.9977221734487501  1.0000
  O   O15       1.0  0.5458253678806599  0.906729573629839  0.4977372840989319  1.0000
  O   O16       1.0  0.9091374180195191  0.04817847806766914  0.0022852780200182097  1.0000
  O   O17       1.0  0.4009638243890166  0.6655358279049679  0.4814592359566206  1.0000
  O   O18       1.0  0.6842261524083283  0.9196662500216705  0.018589446546741294  1.0000
  O   O19       1.0  0.5990355902766707  0.33446576317393795  0.5185409730582506  1.0000
  O   O20       1.0  0.3157868627152635  0.08035832013403861  0.9814143260651916  1.0000
  O   O21       1.0  0.281810903034824  0.6217193287542458  0.4005983500520501  1.0000
  O   O22       1.0  0.7211581035993506  0.8812119929220544  0.09941037137688374  1.0000
  O   O23       1.0  0.7181894914661698  0.3782835456732699  0.599402067164121  1.0000
  O   O24       1.0  0.2788463218677179  0.1187911676100911  0.9005863818854821  1.0000
  O   O25       1.0  0.7839385080769504  0.8197729737972068  0.9596458926333328  1.0000
  O   O26       1.0  0.3599436149033721  0.8242848165244752  0.5403323950621228  1.0000
  O   O27       1.0  0.2160692526520549  0.1802409871697321  0.04035418156663442  1.0000
  O   O28       1.0  0.6400517755277236  0.175711162992485  0.45966610832181237  1.0000
  O   O29       1.0  0.7988253413865183  0.7543357820665547  0.07059080365101526  1.0000
  O   O30       1.0  0.18374732489626658  0.72829935586428  0.4294552378268577  1.0000
  O   O31       1.0  0.20118289291691832  0.24567219859899583  0.929402061610631  1.0000
  O   O32       1.0  0.8162513726017906  0.27169917578048336  0.5705450259618774  1.0000
