data_image0
_chemical_formula_structural       U2H28C32O16
_chemical_formula_sum              "U2 H28 C32 O16"
_cell_length_a       6.1753243889579945
_cell_length_b       7.062979079476807
_cell_length_c       17.761300358068397
_cell_angle_alpha    90.00027230480636
_cell_angle_beta     90.00012293842668
_cell_angle_gamma    89.21328962532243

_space_group_name_H-M_alt    "P 1"
_space_group_IT_number       1

loop_
  _space_group_symop_operation_xyz
  'x, y, z'

loop_
  _atom_site_type_symbol
  _atom_site_label
  _atom_site_symmetry_multiplicity
  _atom_site_fract_x
  _atom_site_fract_y
  _atom_site_fract_z
  _atom_site_occupancy
  U   U1        1.0  0.9999953809133615  0.4999997005369821  0.4999998754015493  1.0000
  U   U2        1.0  0.9999998477766354  0.9999929239268328  2.2520809607999993e-06  1.0000
  H   H1        1.0  0.3624919834868122  0.8380180452003927  0.8293658160992405  1.0000
  H   H2        1.0  0.637505224862025  0.6619987543840015  0.3293651913397611  1.0000
  H   H3        1.0  0.637502541145835  0.1619830148366149  0.17063255862485244  1.0000
  H   H4        1.0  0.36248321872133005  0.33802088771574285  0.6706354354864529  1.0000
  H   H5        1.0  0.7691462482027376  0.9759742962616118  0.5943021970320999  1.0000
  H   H6        1.0  0.23083435335629326  0.5240215877327543  0.094301070200963  1.0000
  H   H7        1.0  0.23084677900815356  0.024032470714701  0.40569842978399606  1.0000
  H   H8        1.0  0.7691776477201557  0.47596339828800893  0.9056950524268287  1.0000
  H   H9        1.0  0.1940530907011038  0.7793364908458146  0.7050763875793322  1.0000
  H   H10       1.0  0.8059492107940328  0.7206545153809074  0.20507372142371585  1.0000
  H   H11       1.0  0.8059587277175099  0.2206400039054088  0.294925365259175  1.0000
  H   H12       1.0  0.19405038461781024  0.2793563130328138  0.7949280314417633  1.0000
  H   H13       1.0  0.9408317652924153  0.030971024782864717  0.7192787389443538  1.0000
  H   H14       1.0  0.05916090177188241  0.4690375460389903  0.2192833701968979  1.0000
  H   H15       1.0  0.05916456122834289  0.9690384804962946  0.2807185097441973  1.0000
  H   H16       1.0  0.940841597152591  0.530957622857848  0.7807161305680805  1.0000
  H   H17       1.0  0.2210536676063199  0.9176241324599489  0.5569336506360898  1.0000
  H   H18       1.0  0.7789481191849319  0.5823890845761069  0.05694592109861671  1.0000
  H   H19       1.0  0.7789479427859403  0.0824050476618297  0.4430579678533704  1.0000
  H   H20       1.0  0.22107683564539118  0.41759553306749814  0.9430608989478412  1.0000
  H   H21       1.0  0.4830708968206636  0.8583242577807229  0.5207279970380867  1.0000
  H   H22       1.0  0.5169297851290863  0.6416488814447947  0.020727260332421296  1.0000
  H   H23       1.0  0.5169299220006777  0.14166812674373833  0.47927262976755  1.0000
  H   H24       1.0  0.48307833817262497  0.3583064771663019  0.9792761815514837  1.0000
  H   H25       1.0  0.4386324427773046  0.5545358630020374  0.5727723234318773  1.0000
  H   H26       1.0  0.5613433946574347  0.945471212295104  0.0727659663259459  1.0000
  H   H27       1.0  0.5613562139101305  0.44549368558468677  0.4272226731848932  1.0000
  H   H28       1.0  0.4386229639190729  0.05450091105214481  0.927221710948423  1.0000
  C   C1        1.0  0.46936649288029736  0.8769497270329226  0.6418081081342066  1.0000
  C   C2        1.0  0.5306339920897898  0.6230518577752662  0.141807909640022  1.0000
  C   C3        1.0  0.5306250977993585  0.12306557731406544  0.3581942077546215  1.0000
  C   C4        1.0  0.4693845467649139  0.3769357745076078  0.8581960952979343  1.0000
  C   C5        1.0  0.663278802209021  0.9373864015374807  0.7820451398059161  1.0000
  C   C6        1.0  0.3367240965597987  0.5626083952922372  0.2820480896304288  1.0000
  C   C7        1.0  0.33671911309772173  0.06262164250035342  0.2179571760783787  1.0000
  C   C8        1.0  0.6632817016961212  0.43738951194607273  0.7179542262472367  1.0000
  C   C9        1.0  0.450879636372214  0.8699853324446708  0.7780402385246461  1.0000
  C   C10       1.0  0.549118407287679  0.6300109678050704  0.2780423161787056  1.0000
  C   C11       1.0  0.5491213346842656  0.13001412817402522  0.22196151433106337  1.0000
  C   C12       1.0  0.450871533729206  0.3700029673764433  0.7219594366865394  1.0000
  C   C13       1.0  0.6796786813331932  0.9480339147587246  0.6459757253776954  1.0000
  C   C14       1.0  0.3203136148106438  0.5519622914261504  0.1459724525923463  1.0000
  C   C15       1.0  0.3203129093484307  0.051981389591773605  0.3540271535329751  1.0000
  C   C16       1.0  0.6797016247086914  0.4480226025082246  0.8540276111892453  1.0000
  C   C17       1.0  0.7713700276239592  0.9599321987652588  0.8555240480937839  1.0000
  C   C18       1.0  0.22862711944642905  0.5400736053969271  0.3555252007517921  1.0000
  C   C19       1.0  0.22864389714126787  0.040066893395511706  0.144475452678293  1.0000
  C   C20       1.0  0.7713613850254859  0.4599488671306844  0.644474300033302  1.0000
  C   C21       1.0  0.355442331672144  0.8393860615033972  0.7083971947659505  1.0000
  C   C22       1.0  0.6445535770035917  0.6606080008142075  0.208396008922449  1.0000
  C   C23       1.0  0.6445537817386507  0.1606135372782448  0.2916039950665307  1.0000
  C   C24       1.0  0.3554538404786669  0.3393898603896873  0.791609685086726  1.0000
  C   C25       1.0  0.776519820732517  0.9776883794080008  0.7156868943708543  1.0000
  C   C26       1.0  0.22348423481892607  0.5223055435735873  0.21568688589826474  1.0000
  C   C27       1.0  0.22347641446716437  0.022316880250429005  0.2843154215104206  1.0000
  C   C28       1.0  0.7765183554462353  0.47769387097908833  0.7843131778923933  1.0000
  C   C29       1.0  0.3684808166183656  0.8325116543149635  0.5668101495409984  1.0000
  C   C30       1.0  0.6315111105359533  0.6674920556436136  0.066807841832329  1.0000
  C   C31       1.0  0.6315058250709953  0.1674995425321057  0.4331899142552372  1.0000
  C   C32       1.0  0.36849918000681475  0.3324887308154275  0.9331939110095532  1.0000
  O   O1        1.0  0.3042694141935058  0.6365791283089238  0.5645055053019447  1.0000
  O   O2        1.0  0.6957030358711762  0.863423690334038  0.0645007741768993  1.0000
  O   O3        1.0  0.6956994465896286  0.36343399037996704  0.43549681057780987  1.0000
  O   O4        1.0  0.30428797631024906  0.13656472484642276  0.9354959114692318  1.0000
  O   O5        1.0  0.9741777908715503  0.9876541180036897  0.859947799029264  1.0000
  O   O6        1.0  0.025817158856547492  0.5123234829946526  0.35994032964910616  1.0000
  O   O7        1.0  0.025823301962049097  0.012351003470726603  0.14005170174420556  1.0000
  O   O8        1.0  0.9741754725374959  0.4876648861268152  0.6400557929756516  1.0000
  O   O9        1.0  0.6640634392702863  0.9488338051482121  0.9179991599547961  1.0000
  O   O10       1.0  0.3359283361212205  0.5512040973549119  0.41800039972103054  1.0000
  O   O11       1.0  0.33594403907896  0.0511668864449177  0.0819992147730204  1.0000
  O   O12       1.0  0.6640586100305654  0.44882125166657977  0.5819996640879949  1.0000
  O   O13       1.0  0.8983686399687016  0.7408534822579328  0.4912577695010327  1.0000
  O   O14       1.0  0.10163577758902421  0.7591467547656593  0.9912564004239356  1.0000
  O   O15       1.0  0.10161091593750629  0.25912959446223033  0.508742294267762  1.0000
  O   O16       1.0  0.8984026180840415  0.24086013788856062  0.0087464784938405  1.0000
