data_image0
_chemical_formula_structural       Zn8H16C80Br8O26F16
_chemical_formula_sum              "Zn8 H16 C80 Br8 O26 F16"
_cell_length_a       23.95450484560556
_cell_length_b       23.95595131688941
_cell_length_c       23.95426488414855
_cell_angle_alpha    66.65826278194437
_cell_angle_beta     72.43421826852672
_cell_angle_gamma    107.57473898975523

_space_group_name_H-M_alt    "P 1"
_space_group_IT_number       1

loop_
  _space_group_symop_operation_xyz
  'x, y, z'

loop_
  _atom_site_type_symbol
  _atom_site_label
  _atom_site_symmetry_multiplicity
  _atom_site_fract_x
  _atom_site_fract_y
  _atom_site_fract_z
  _atom_site_occupancy
  Zn  Zn1       1.0  0.057169294391940045  0.9577564110880132  0.4850829239501095  1.0000
  Zn  Zn2       1.0  0.05716941000281388  0.09941174721807758  0.45775960746851047  1.0000
  Zn  Zn3       1.0  0.9428239090089079  0.9850780888108657  0.45775028347650704  1.0000
  Zn  Zn4       1.0  0.9428414996322444  0.957752602350631  0.5994153266702186  1.0000
  Zn  Zn5       1.0  0.9428306870116857  0.5422427355289442  0.014918179288322586  1.0000
  Zn  Zn6       1.0  0.05717773631810253  0.5149247980471684  0.04224800181838625  1.0000
  Zn  Zn7       1.0  0.9428285981517205  0.4005858536427524  0.04224603130738567  1.0000
  Zn  Zn8       1.0  0.05715737851637211  0.5422418499618615  0.9005853574449532  1.0000
  H   H1        1.0  0.9232955008231369  0.7146137938403923  0.17478599819318696  1.0000
  H   H2        1.0  0.07668719695424639  0.6747728853591539  0.21465511133816054  1.0000
  H   H3        1.0  0.9233047068707805  0.8252176606712992  0.2853547579521206  1.0000
  H   H4        1.0  0.07664414929932653  0.7853125347443353  0.32529137118764606  1.0000
  H   H5        1.0  0.0767065437902374  0.4018890785650129  0.7086945567650246  1.0000
  H   H6        1.0  0.9233102196113309  0.20865763176207228  0.9019281669792322  1.0000
  H   H7        1.0  0.07665059234184922  0.2913297843582683  0.5980826115953589  1.0000
  H   H8        1.0  0.9233072117530624  0.09808435792692188  0.7913299794913797  1.0000
  H   H9        1.0  0.6105879145187458  0.4019113813608539  0.17475156749217294  1.0000
  H   H10       1.0  0.6105826981595256  0.2086645400286  0.2146557209290876  1.0000
  H   H11       1.0  0.38941581408835196  0.29133720211052605  0.285337272329059  1.0000
  H   H12       1.0  0.38941289877717367  0.09810566326898125  0.3251720542523416  1.0000
  H   H13       1.0  0.38942119342893033  0.6747330364099541  0.9019098361564559  1.0000
  H   H14       1.0  0.3894047041083654  0.7146448674408604  0.7086551833230744  1.0000
  H   H15       1.0  0.610598025661993  0.7853451360327172  0.7913469335502866  1.0000
  H   H16       1.0  0.6105764721956818  0.8251901647242191  0.5981093987951027  1.0000
  C   C1        1.0  0.1812490573403167  0.090630517889025  0.40937235700329927  1.0000
  C   C2        1.0  0.9999992397367593  0.13676193423068383  0.36323805598393466  1.0000
  C   C3        1.0  0.9999948136208375  0.9093768407601883  0.4093774988271973  1.0000
  C   C4        1.0  0.8187527016378411  0.9093654497586384  0.5906371319945406  1.0000
  C   C5        1.0  3.6356973752449417e-06  0.8632346351859113  0.636762925864403  1.0000
  C   C6        1.0  0.9999962784807367  0.09062122098052314  0.590627036861136  1.0000
  C   C7        1.0  0.9999990084257391  0.5906154139107258  0.09063211832250323  1.0000
  C   C8        1.0  3.387209090962165e-06  0.3632397691670732  0.13676247669327782  1.0000
  C   C9        1.0  0.8187496956476109  0.4093709466324709  0.09061983851873381  1.0000
  C   C10       1.0  0.9999967870439975  0.40936400178604515  0.9093854745924473  1.0000
  C   C11       1.0  0.9999965121903572  0.6367621243827485  0.8632377138869953  1.0000
  C   C12       1.0  0.1812476857367641  0.5906206553881646  0.9093643131342405  1.0000
  C   C13       1.0  7.836512095723102e-07  0.8050975848701043  0.6948996861896292  1.0000
  C   C14       1.0  0.9999998020268281  0.6948996122433968  0.8051014830794188  1.0000
  C   C15       1.0  0.9571008733947365  0.7769103990232935  0.7659858063346477  1.0000
  C   C16       1.0  0.042900106428909617  0.7230882298474484  0.7340150946256825  1.0000
  C   C17       1.0  0.9571002178984075  0.7230862417538051  0.8198114122295763  1.0000
  C   C18       1.0  0.04289988632530131  0.7769115114134023  0.6801896823309904  1.0000
  C   C19       1.0  1.202599101199825e-06  0.1948998620074889  0.3050997959005812  1.0000
  C   C20       1.0  2.855125849438813e-06  0.305101926393661  0.194899267543704  1.0000
  C   C21       1.0  0.9571007593908547  0.18019305957062667  0.2769051947536311  1.0000
  C   C22       1.0  0.04290210830149022  0.3198083664141151  0.2230941226422942  1.0000
  C   C23       1.0  0.957100692692798  0.23401805051145155  0.22308031188633487  1.0000
  C   C24       1.0  0.04290261279628993  0.26598381322274633  0.2769191174820662  1.0000
  C   C25       1.0  0.9999964922483853  0.6280175311046533  0.1280389559006352  1.0000
  C   C26       1.0  0.9578886971438864  0.6580723203604889  0.13624224873350949  1.0000
  C   C27       1.0  0.9571069073396146  0.6928872289430146  0.1706174389064115  1.0000
  C   C28       1.0  0.9999949699391236  0.6994986268575261  0.19951520589220462  1.0000
  C   C29       1.0  0.04288043321734141  0.6706032761636536  0.1929148218365312  1.0000
  C   C30       1.0  0.04209906601311525  0.6362230618563842  0.15810489811914863  1.0000
  C   C31       1.0  0.9999892787683253  0.734763967711828  0.23479022138138114  1.0000
  C   C32       1.0  0.999982893704029  0.7652061067271774  0.2652438977516454  1.0000
  C   C33       1.0  0.9999789537717731  0.8004732002162241  0.3005160207693011  1.0000
  C   C34       1.0  0.9571022766762101  0.829378070785168  0.3071056399323027  1.0000
  C   C35       1.0  0.9578826584938512  0.863754704983194  0.3419176958295793  1.0000
  C   C36       1.0  0.9999802328926534  0.871952947867001  0.37199154090420455  1.0000
  C   C37       1.0  0.04206332131904121  0.841868977390078  0.36382045058018525  1.0000
  C   C38       1.0  0.042848482608334765  0.807060554872706  0.3294408398917383  1.0000
  C   C39       1.0  9.028375373430116e-06  0.37195521679126387  0.8719852676945478  1.0000
  C   C40       1.0  0.042121372500417836  0.40585078168677313  0.7998260526845655  1.0000
  C   C41       1.0  0.04289787542466426  0.3722548713994911  0.7642314455206076  1.0000
  C   C42       1.0  7.894043676303278e-07  0.30047784774097847  0.8005071507129885  1.0000
  C   C43       1.0  0.9571217540193262  0.26419915767625207  0.872290525689351  1.0000
  C   C44       1.0  0.9579098057678623  0.29979114568978815  0.9058869562364151  1.0000
  C   C45       1.0  0.999994871866477  0.26521002379350017  0.7652359575530098  1.0000
  C   C46       1.0  0.9999915829592253  0.23476962366978432  0.734780757209954  1.0000
  C   C47       1.0  0.9999850169517969  0.19950239874722095  0.6995089367364429  1.0000
  C   C48       1.0  0.04285468523440268  0.23578624829484343  0.6277213387354976  1.0000
  C   C49       1.0  0.04206663349230409  0.2001942604859153  0.5941244906432601  1.0000
  C   C50       1.0  0.9999794048063892  0.1280276576259778  0.6280285687734803  1.0000
  C   C51       1.0  0.9578816152608169  0.0941284894644808  0.7001923289771311  1.0000
  C   C52       1.0  0.9571050025628126  0.1277216957552625  0.7357880396303926  1.0000
  C   C53       1.0  0.7439410351019545  0.37196488143865003  0.12802802243361824  1.0000
  C   C54       1.0  0.7056785776390128  0.4058666221776333  0.1362182010234464  1.0000
  C   C55       1.0  0.6364902281939067  0.3722714624576182  0.1705946621370843  1.0000
  C   C56       1.0  0.6009874960336957  0.3004889386033013  0.1995013526255037  1.0000
  C   C57       1.0  0.6364870280585747  0.26420734304235055  0.19291184662795763  1.0000
  C   C58       1.0  0.7056756861297799  0.2997986073338977  0.15810334567220966  1.0000
  C   C59       1.0  0.5304461665582921  0.2652218538668549  0.23476453259667096  1.0000
  C   C60       1.0  0.46955133949061434  0.23478200584580827  0.2652045484335304  1.0000
  C   C61       1.0  0.3990129648315844  0.1995152817682992  0.30046878061094867  1.0000
  C   C62       1.0  0.36350936145704077  0.23579591244602224  0.3070707520938426  1.0000
  C   C63       1.0  0.2943211412405731  0.20020508774544513  0.341875607115476  1.0000
  C   C64       1.0  0.256057543571373  0.12804056832156618  0.371943862430804  1.0000
  C   C65       1.0  0.29432065881027825  0.09414468703410248  0.363723613308096  1.0000
  C   C66       1.0  0.36351128454140286  0.1277400474858368  0.3293484726191735  1.0000
  C   C67       1.0  0.2560577457153173  0.6280156688059576  0.8719592463578111  1.0000
  C   C68       1.0  0.2943234222254105  0.6361985847647419  0.9058664653905381  1.0000
  C   C69       1.0  0.3635124217701531  0.670579396186099  0.8722696478650533  1.0000
  C   C70       1.0  0.3990108906701905  0.6994901809071337  0.8004840967487539  1.0000
  C   C71       1.0  0.3635066575175044  0.6928995973345875  0.7641992231428815  1.0000
  C   C72       1.0  0.294316394349373  0.6580880951282282  0.7997941372273728  1.0000
  C   C73       1.0  0.46955237358981333  0.7347589762461267  0.7652189409339345  1.0000
  C   C74       1.0  0.5304469822213989  0.7652037885769258  0.7347887149560606  1.0000
  C   C75       1.0  0.6009860578564955  0.8004753637752486  0.6995240206891964  1.0000
  C   C76       1.0  0.636496158321279  0.8070780419330391  0.7358040047708057  1.0000
  C   C77       1.0  0.7056858302677753  0.8418873964012263  0.7002097019219703  1.0000
  C   C78       1.0  0.7439435808626129  0.8719542560309747  0.6280445627175767  1.0000
  C   C79       1.0  0.7056749020417358  0.8637408403483917  0.5941461486251499  1.0000
  C   C80       1.0  0.6364848522474059  0.829363127822347  0.6277445614423698  1.0000
  Br  Br1       1.0  0.8967567509430978  0.8088549462359182  0.7943794411352486  1.0000
  Br  Br2       1.0  0.10324379107736073  0.6911432446807523  0.7056217653977939  1.0000
  Br  Br3       1.0  0.8967581641320806  0.6911379176699979  0.9121007326353167  1.0000
  Br  Br4       1.0  0.10324301276114765  0.808861426977053  0.5879002429432488  1.0000
  Br  Br5       1.0  0.8967596468218915  0.08790497110813782  0.3088449971899648  1.0000
  Br  Br6       1.0  0.10324230161292287  0.4120965729762388  0.19115455107019133  1.0000
  Br  Br7       1.0  0.8967573804657861  0.2056258147549102  0.19112454050949887  1.0000
  Br  Br8       1.0  0.10324437088655715  0.29437501314392733  0.3088757682227765  1.0000
  O   O1        1.0  0.9999988308191307  0.9999995084993148  0.4999994229148754  1.0000
  O   O2        1.0  0.15240752058697643  0.025718835169364206  0.43393674320295617  1.0000
  O   O3        1.0  0.03958435986335467  0.1538305581365762  0.3857492716831743  1.0000
  O   O4        1.0  0.9596313286553836  0.9339248061753479  0.413664867299346  1.0000
  O   O5        1.0  0.15240995974673407  0.1266978302768108  0.4136745707296329  1.0000
  O   O6        1.0  0.04036585392202585  0.9136819943805107  0.433916627571037  1.0000
  O   O7        1.0  0.9604122420180092  0.07467117890629989  0.38574793535570245  1.0000
  O   O8        1.0  0.8475884172782742  0.9339200767054833  0.525725675423722  1.0000
  O   O9        1.0  0.9604268394847751  0.8857488610202823  0.6538341098306404  1.0000
  O   O10       1.0  0.8475971173108692  0.9136614225312129  0.6267055573988712  1.0000
  O   O11       1.0  0.03958110584052576  0.8857439300858516  0.5746721302366639  1.0000
  O   O12       1.0  0.04036087575729401  0.12668797246070082  0.5257209046029843  1.0000
  O   O13       1.0  0.9596422218991733  0.025708457415525722  0.6266993090311813  1.0000
  O   O14       1.0  7.12794189778767e-07  0.49999920057279457  1.1508059146065392e-06  1.0000
  O   O15       1.0  0.9596382211674382  0.5863228048348645  0.06607891457905166  1.0000
  O   O16       1.0  0.03958786788888356  0.4253306009681382  0.11425290972324831  1.0000
  O   O17       1.0  0.847588158316867  0.3733024788773917  0.0863211961082796  1.0000
  O   O18       1.0  0.04036510663934916  0.5660718297937563  0.08634038796541425  1.0000
  O   O19       1.0  0.8475914067799835  0.47427864615954  0.06607158752493804  1.0000
  O   O20       1.0  0.9604183543976533  0.3461691576548346  0.11425118646605621  1.0000
  O   O21       1.0  0.9596308627482061  0.3732976887897334  0.9742925003910514  1.0000
  O   O22       1.0  0.039575738113860795  0.614249809268813  0.846167127137356  1.0000
  O   O23       1.0  0.040347283952115696  0.47427600848156004  0.8733144084548455  1.0000
  O   O24       1.0  0.9604154960027386  0.6142503208810763  0.9253284860893135  1.0000
  O   O25       1.0  0.15241271599603567  0.5660802629724273  0.9742728321477827  1.0000
  O   O26       1.0  0.15240265765599764  0.5863282206926499  0.8732946721778846  1.0000
  F   F1        1.0  0.9152470541555574  0.65393823090686  0.10997940580556774  1.0000
  F   F2        1.0  0.08474051096361272  0.6099659768080485  0.15398229386306644  1.0000
  F   F3        1.0  0.9152533411308851  0.890027036405783  0.3460272628449772  1.0000
  F   F4        1.0  0.08468596273196022  0.8459778283163857  0.39010820638807786  1.0000
  F   F5        1.0  0.08476594412751125  0.4747478932147331  0.7613195919189834  1.0000
  F   F6        1.0  0.915271362939457  0.26128024232492914  0.9747865532927803  1.0000
  F   F7        1.0  0.08468863955573626  0.23870999670999285  0.5252216824760225  1.0000
  F   F8        1.0  0.9152479211959915  0.02522824747831013  0.7387034233029297  1.0000
  F   F9        1.0  0.7360683975084185  0.4747675692466799  0.1099473781284317  1.0000
  F   F10       1.0  0.7360619690986924  0.26128307853031857  0.15399238715406235  1.0000
  F   F11       1.0  0.26393474833037806  0.2387179072325907  0.3459985252974889  1.0000
  F   F12       1.0  0.2639289795618964  0.025249672210222236  0.38997219388512155  1.0000
  F   F13       1.0  0.2639421518436365  0.6099211546101699  0.9747682858712636  1.0000
  F   F14       1.0  0.26392193352184984  0.6539768453302343  0.7612786167189965  1.0000
  F   F15       1.0  0.7360797897144877  0.8460152650769999  0.7387213002755146  1.0000
  F   F16       1.0  0.7360590374312675  0.8899998655690239  0.5252478260152955  1.0000
