data_image0
_chemical_formula_structural       Zn4H53C86I5N22O12
_chemical_formula_sum              "Zn4 H53 C86 I5 N22 O12"
_cell_length_a       15.627972598489775
_cell_length_b       16.10226909253348
_cell_length_c       15.327195781014614
_cell_angle_alpha    114.44757106366279
_cell_angle_beta     110.41239491260212
_cell_angle_gamma    103.17736724084693

_space_group_name_H-M_alt    "P 1"
_space_group_IT_number       1

loop_
  _space_group_symop_operation_xyz
  'x, y, z'

loop_
  _atom_site_type_symbol
  _atom_site_label
  _atom_site_symmetry_multiplicity
  _atom_site_fract_x
  _atom_site_fract_y
  _atom_site_fract_z
  _atom_site_occupancy
  Zn  Zn1       1.0  0.008217948617094408  0.3667552830629504  0.8725589958396042  1.0000
  Zn  Zn2       1.0  0.010592159461971716  0.6582250795380136  0.14503003630429134  1.0000
  Zn  Zn3       1.0  0.14820082629664458  0.5114926822883207  0.1492171730624889  1.0000
  Zn  Zn4       1.0  0.8728802571764049  0.5130114068046225  0.8640150091220419  1.0000
  H   H1        1.0  0.938845786616561  0.14147432694282713  0.8521279454719418  1.0000
  H   H2        1.0  0.0588791643436437  0.4055509463267271  0.24131773811213006  1.0000
  H   H3        1.0  0.6520396057430488  0.3058195328034685  0.6538672465546326  1.0000
  H   H4        1.0  0.9029773351807363  0.5973953181580852  0.26203983272080217  1.0000
  H   H5        1.0  0.8257632858501152  0.1641512892842698  0.7712620608648206  1.0000
  H   H6        1.0  0.6811777659470196  0.3846780779224659  0.8553999281309076  1.0000
  H   H7        1.0  0.1515742255368693  0.3330638601162619  0.20280290073604587  1.0000
  H   H8        1.0  0.02310883646477893  0.34849374745461864  0.6329734380494755  1.0000
  H   H9        1.0  0.21654874425721712  0.8631844225213924  0.27917559610600756  1.0000
  H   H10       1.0  0.3680872268644251  0.6038820249757039  0.18301177507095903  1.0000
  H   H11       1.0  0.8641407962994877  0.7098737617459888  0.825432710461378  1.0000
  H   H12       1.0  0.1884606196785015  0.3801363063746805  0.830631105414035  1.0000
  H   H13       1.0  0.9782581468850396  0.6176006534687134  0.7812529401591276  1.0000
  H   H14       1.0  0.3650982810374259  0.7010530965046798  0.38800081033978984  1.0000
  H   H15       1.0  0.9205711811858351  0.08119414147036248  0.4299673619091351  1.0000
  H   H16       1.0  0.8407929333904106  0.20263881994385713  0.45906996870905903  1.0000
  H   H17       1.0  0.6965774279246587  0.16890830176645721  0.4902272088053152  1.0000
  H   H18       1.0  0.8507670739336958  0.9280209975887248  0.4320281306880533  1.0000
  H   H19       1.0  0.500937212659629  0.8680773099042156  0.3540776259477738  1.0000
  H   H20       1.0  0.5370094352678692  0.14418085706632414  0.6889972083554383  1.0000
  H   H21       1.0  0.26283343839333634  0.011461549224293297  0.4446714733280288  1.0000
  H   H22       1.0  0.1391035909965836  0.028451320394992805  0.50969532128439  1.0000
  H   H23       1.0  0.1602820937384593  0.019272646158093192  0.6739996488379274  1.0000
  H   H24       1.0  0.30696361413476586  0.9943582429265876  0.7729823126590533  1.0000
  H   H25       1.0  0.432145384302089  0.9808254819616593  0.7095882122834282  1.0000
  H   H26       1.0  0.4917023582560347  0.29475653557540243  0.5083053147655506  1.0000
  H   H27       1.0  0.6129619931570504  0.5475057322058136  0.8404493221513434  1.0000
  H   H28       1.0  0.36968768264098634  0.2638484906106342  0.7116566611944392  1.0000
  H   H29       1.0  0.36625173253624865  0.19231545769417832  0.5318724033761342  1.0000
  H   H30       1.0  0.34620904457231216  0.43952356379825375  0.8356426491322466  1.0000
  H   H31       1.0  0.6369136314425601  0.4925005582340205  0.15058567084390267  1.0000
  H   H32       1.0  0.644590342893224  0.5966602963798239  0.3004072277456516  1.0000
  H   H33       1.0  0.6507158009300866  0.6034292528509226  0.4665944361613795  1.0000
  H   H34       1.0  0.49475058187800874  0.5052180525688643  0.4553182777093525  1.0000
  H   H35       1.0  0.33368695764043815  0.39425948875986444  0.27262604923097916  1.0000
  H   H36       1.0  0.3287369640643191  0.3829262634444035  0.10549922992007048  1.0000
  H   H37       1.0  0.04609002453057094  0.38410179941929107  0.5239967226121037  1.0000
  H   H38       1.0  0.1163364238101039  0.47536360035980607  0.42447983036142023  1.0000
  H   H39       1.0  0.006238027125675742  0.3623219351221678  0.3547805567275049  1.0000
  H   H40       1.0  0.8916765493516935  0.35396251306580945  0.4407189456591213  1.0000
  H   H41       1.0  0.12268290381312846  0.622158764461247  0.527574596827712  1.0000
  H   H42       1.0  0.2872400958924288  0.3802019815500586  0.5695260239467358  1.0000
  H   H43       1.0  0.3551732979332556  0.367827057574857  0.44261609633829824  1.0000
  H   H44       1.0  0.2449254825609302  0.2426017661485106  0.24016802034118712  1.0000
  H   H45       1.0  0.9934112674835518  0.1493182546284473  0.2880250994427271  1.0000
  H   H46       1.0  0.1059418328839001  0.26776807792900564  0.49188973899040883  1.0000
  H   H47       1.0  0.0643924002833529  0.006708389016672798  0.18585839291278455  1.0000
  H   H48       1.0  0.8585112150653702  0.02691624615808758  0.8777484095017982  1.0000
  H   H49       1.0  0.7775341312933081  0.8624383137331364  0.7134753658674242  1.0000
  H   H50       1.0  0.5979012133615739  0.7418432095234448  0.5745769437733655  1.0000
  H   H51       1.0  0.48731165831397055  0.6552432366988656  0.6243520844559215  1.0000
  H   H52       1.0  0.5593832094340314  0.6901297935921635  0.8154469721818458  1.0000
  H   H53       1.0  0.739174067173096  0.8118799334468749  0.9554521351002451  1.0000
  C   C1        1.0  0.9930832773875194  0.203341780945749  0.9369863109484982  1.0000
  C   C2        1.0  0.7681854215294874  0.5964402168248526  0.08867928749478435  1.0000
  C   C3        1.0  0.025939024177105856  0.4567688410761478  0.2359388395222481  1.0000
  C   C4        1.0  0.7093225792244127  0.28749614563733433  0.6956453912808342  1.0000
  C   C5        1.0  0.9460218804467218  0.5544435897446505  0.2466100837647572  1.0000
  C   C6        1.0  0.7981937821868285  0.21510912779914554  0.7553467011288504  1.0000
  C   C7        1.0  0.7197452851646773  0.4580831769137107  0.9321944600172003  1.0000
  C   C8        1.0  0.10291423893406909  0.29978118060424913  0.1152530722402858  1.0000
  C   C9        1.0  0.02739335921512519  0.2000122285197321  0.033025962252167966  1.0000
  C   C10       1.0  0.6840177082388833  0.5014298895757889  0.003423580287638169  1.0000
  C   C11       1.0  0.9799247195883963  0.501248839180974  0.29327804718872846  1.0000
  C   C12       1.0  0.7023185756644067  0.19284011221228783  0.6777058952910551  1.0000
  C   C13       1.0  0.008279046922524505  0.4100691455601364  0.6794268718440505  1.0000
  C   C14       1.0  0.23700648868851468  0.8084849854419148  0.2941421679692412  1.0000
  C   C15       1.0  0.30949608122822536  0.5495626581162938  0.09710389875293392  1.0000
  C   C16       1.0  0.9054635726449973  0.7314334766901638  0.9106370106586043  1.0000
  C   C17       1.0  0.987617696615267  0.8078775013739161  0.09122517039300258  1.0000
  C   C18       1.0  0.2176057100828501  0.4355134550776114  0.9172855485942435  1.0000
  C   C19       1.0  0.9860303167456619  0.5476367664317506  0.7550352293206969  1.0000
  C   C20       1.0  0.3129120979239061  0.7258111722856879  0.349306729881043  1.0000
  C   C21       1.0  0.005366246346632425  0.4936767790330308  0.6710087963458945  1.0000
  C   C22       1.0  0.3313821248607098  0.8223431003353029  0.36657844181750937  1.0000
  C   C23       1.0  0.31735758389034885  0.4872327712300688  0.006566468000777137  1.0000
  C   C24       1.0  0.9382043594957495  0.8241617209939562  0.007449734546661027  1.0000
  C   C25       1.0  0.8119663823992338  0.13474212361511206  0.4598349645526126  1.0000
  C   C26       1.0  0.7299051637635116  0.11547635875552942  0.4772330157167913  1.0000
  C   C27       1.0  0.6884013364286048  0.0291394701864007  0.4792320941818815  1.0000
  C   C28       1.0  0.733720128124034  0.9619474777219638  0.46125262544735085  1.0000
  C   C29       1.0  0.8167891770112875  0.9809960744382239  0.44440827933696175  1.0000
  C   C30       1.0  0.8562006760063879  0.0675398018461308  0.4438423226333157  1.0000
  C   C31       1.0  0.5099508386276882  0.9288447645512293  0.42893570185641045  1.0000
  C   C32       1.0  0.42644214840075995  0.9170089683816371  0.44604571837278667  1.0000
  C   C33       1.0  0.4364699462407842  0.9960656733798744  0.5417336040524531  1.0000
  C   C34       1.0  0.52881980003  0.08301766356998999  0.6149613964116298  1.0000
  C   C35       1.0  0.6113724165092906  0.09538714881549029  0.597039960301764  1.0000
  C   C36       1.0  0.6026882075774296  0.016380538825195894  0.5022752623450017  1.0000
  C   C37       1.0  0.2719771475642005  0.006688048661644098  0.516028039189024  1.0000
  C   C38       1.0  0.2022153772434763  0.015840492457229488  0.5524644061266385  1.0000
  C   C39       1.0  0.21441822010493178  0.0116927435099115  0.6451401742783459  1.0000
  C   C40       1.0  0.2970820565033635  0.9983848424668198  0.7010335378701242  1.0000
  C   C41       1.0  0.3672099040573046  0.9902291399087633  0.6651218884306473  1.0000
  C   C42       1.0  0.35557172365595596  0.9941962649143434  0.5719971365625225  1.0000
  C   C43       1.0  0.5587732940768432  0.42689343603417734  0.6733080154426928  1.0000
  C   C44       1.0  0.558626337999705  0.4699303474921451  0.7731152705974295  1.0000
  C   C45       1.0  0.49075721886342183  0.4106826622304568  0.7880916605089751  1.0000
  C   C46       1.0  0.421250016222025  0.3107260247952439  0.6997806294485684  1.0000
  C   C47       1.0  0.42030266405652844  0.2700917925347923  0.5993150160277307  1.0000
  C   C48       1.0  0.4899918078674332  0.3273758142134681  0.5853981706084068  1.0000
  C   C49       1.0  0.4100507545187355  0.45030287995543  0.9053713622671038  1.0000
  C   C50       1.0  0.40566018177334234  0.47409915952327714  0.002390929269132967  1.0000
  C   C51       1.0  0.48666938644704766  0.48320283629988836  0.09076713426212982  1.0000
  C   C52       1.0  0.5735260935093011  0.4842904352475728  0.08296245519998277  1.0000
  C   C53       1.0  0.5827334803459436  0.47314097290531987  0.9916248089996385  1.0000
  C   C54       1.0  0.49521932806081287  0.44669129991483925  0.8964953865434707  1.0000
  C   C55       1.0  0.575981081674925  0.5520733054141829  0.2938070319691803  1.0000
  C   C56       1.0  0.5793343423540449  0.5567576011851898  0.38799766598886976  1.0000
  C   C57       1.0  0.49196755657254  0.5011026220524499  0.381445985225433  1.0000
  C   C58       1.0  0.4021096579323141  0.43920254312442336  0.2792028182468441  1.0000
  C   C59       1.0  0.399156084113784  0.4330882745929899  0.18461853045425874  1.0000
  C   C60       1.0  0.4859438142137478  0.4906477417355006  0.19040402331262382  1.0000
  C   C61       1.0  0.0657050357264879  0.4570701147138578  0.5309630439793124  1.0000
  C   C62       1.0  0.04381812125419071  0.44332891777151684  0.4196473608540786  1.0000
  C   C63       1.0  0.8910058639325344  0.4284244176019741  0.46832427805850335  1.0000
  C   C64       1.0  0.03127455615653229  0.6131228610067511  0.5968389470969838  1.0000
  C   C65       1.0  0.0011764466515060768  0.5045829086403798  0.5770715105522227  1.0000
  C   C66       1.0  0.9813265870809502  0.4995091922874553  0.39054768704083653  1.0000
  C   C67       1.0  0.8752002667681253  0.4392726256095117  0.3699884167818155  1.0000
  C   C68       1.0  0.0433174565778528  0.609589927192978  0.5006715296876577  1.0000
  C   C69       1.0  0.27540413488517146  0.3210523151273321  0.4087866324210195  1.0000
  C   C70       1.0  0.2132348849119552  0.2514775427183551  0.2947995104789313  1.0000
  C   C71       1.0  0.1106407566123622  0.19002698179544814  0.24968962609566597  1.0000
  C   C72       1.0  0.07267744305404021  0.19865878257250102  0.3224141491412311  1.0000
  C   C73       1.0  0.13574923350290652  0.2659870617778139  0.4366766253304206  1.0000
  C   C74       1.0  0.23731467935238734  0.3282511118875818  0.48038679850956356  1.0000
  C   C75       1.0  0.0170498500626621  0.0096289867860619  0.11670365290360248  1.0000
  C   C76       1.0  0.9399010705156315  0.9193224149251477  0.01897669226710271  1.0000
  C   C77       1.0  0.874640274360445  0.9279131524052604  0.9348176578406254  1.0000
  C   C78       1.0  0.9066962123812913  0.021533235083737206  0.9446324576372619  1.0000
  C   C79       1.0  0.993319023895708  0.11041614480596  0.03813802976956991  1.0000
  C   C80       1.0  0.04115668911048692  0.10519708403347043  0.1317354081428022  1.0000
  C   C81       1.0  0.7302223797322045  0.8250717039692291  0.7366439419484934  1.0000
  C   C82       1.0  0.6287818427411977  0.7566845546900326  0.6580091986680046  1.0000
  C   C83       1.0  0.5668082901495309  0.7078893278211494  0.6856438439889273  1.0000
  C   C84       1.0  0.6073902331895907  0.7272885700940179  0.7927697398380571  1.0000
  C   C85       1.0  0.7086664894698345  0.7954168800172994  0.8713576356123198  1.0000
  C   C86       1.0  0.7716909957058319  0.8463658637214097  0.8450811505314205  1.0000
  I   I1        1.0  0.03257155808750422  0.884130770922319  0.258837162595306  1.0000
  I   I2        1.0  0.7768799523430303  0.7105077357491681  0.2272442501125057  1.0000
  I   I3        1.0  0.6821494966137963  0.8269323256071958  0.45854002754815343  1.0000
  I   I4        1.0  0.6741878631196556  0.5080889408252673  0.658834185781444  1.0000
  I   I5        1.0  0.06358511145774057  0.7459550795491694  0.49631326774822054  1.0000
  N   N1        1.0  0.04173649263107393  0.296816544472712  0.9605236989283981  1.0000
  N   N2        1.0  0.8454319537743016  0.6093570622825413  0.06863038109872126  1.0000
  N   N3        1.0  0.023625648355370354  0.4849323081615325  0.16403425454718962  1.0000
  N   N4        1.0  0.802963851252315  0.35997005888756206  0.7766915577310839  1.0000
  N   N5        1.0  0.9757497021882956  0.5460363082633961  0.17199711558585315  1.0000
  N   N6        1.0  0.8582655268003164  0.3161975749716319  0.8152747471875728  1.0000
  N   N7        1.0  0.8152415176046544  0.52304839697711  0.9707179183041886  1.0000
  N   N8        1.0  0.11090874528584754  0.357076411349624  0.07212383937362431  1.0000
  N   N9        1.0  0.9896869593790926  0.4134897694601136  0.7591744003304014  1.0000
  N   N10       1.0  0.16702676982701087  0.7119270052883379  0.239371479592691  1.0000
  N   N11       1.0  0.2115372500900463  0.5332185068251718  0.06383817346354452  1.0000
  N   N12       1.0  0.9342376773659142  0.6674650767672929  0.9354335779988503  1.0000
  N   N13       1.0  0.9873888732288308  0.7160679625543268  0.04792865250624381  1.0000
  N   N14       1.0  0.15531763427876646  0.46264315487687924  0.9531249078760522  1.0000
  N   N15       1.0  0.9772522470164802  0.49939806683945426  0.8073726989992238  1.0000
  N   N16       1.0  0.21458149193365744  0.6604356851137326  0.27430024151925647  1.0000
  N   N17       1.0  0.18181469685738702  0.5115932755571392  0.6133769806976941  1.0000
  N   N18       1.0  0.8245414315378811  0.32749103488221454  0.2630039743359448  1.0000
  N   N19       1.0  0.9593232648037285  0.6593743470588224  0.6222721376748198  1.0000
  N   N20       1.0  0.13669738079734378  0.694162207053772  0.709944634037697  1.0000
  N   N21       1.0  0.7965886353329523  0.4053317002748784  0.4813512697728441  1.0000
  N   N22       1.0  0.8019038360261347  0.4857369125764493  0.33846101329453404  1.0000
  O   O1        1.0  0.20843109598440893  0.5055455534693749  0.6955089313490319  1.0000
  O   O2        1.0  0.23954302690452067  0.5530758445622864  0.5905384568461542  1.0000
  O   O3        1.0  0.8049333881293279  0.25569989616781197  0.27575834037160274  1.0000
  O   O4        1.0  0.8112272997543711  0.3212808228746482  0.1767532963027421  1.0000
  O   O5        1.0  0.8809190809731502  0.6035134726249609  0.6089663653863937  1.0000
  O   O6        1.0  0.9866216024454459  0.749146981130913  0.65361039222109  1.0000
  O   O7        1.0  0.2125934558034075  0.7213962917478726  0.7027173183413494  1.0000
  O   O8        1.0  0.13240085479716873  0.7223097545873076  0.7951507018677048  1.0000
  O   O9        1.0  0.7956618499523815  0.36640169259016653  0.5353897131575921  1.0000
  O   O10       1.0  0.7264476130981803  0.4195718104070993  0.4312863134057281  1.0000
  O   O11       1.0  0.7205938992719113  0.4314197703820214  0.2521607188202638  1.0000
  O   O12       1.0  0.8365104632172021  0.577954680658479  0.403305367986583  1.0000
