data_image0
_chemical_formula_structural       Zn2Cd4H28C36O32
_chemical_formula_sum              "Zn2 Cd4 H28 C36 O32"
_cell_length_a       7.003282467109443
_cell_length_b       10.352682186810801
_cell_length_c       16.307646482399676
_cell_angle_alpha    81.9178078866744
_cell_angle_beta     78.10416555237012
_cell_angle_gamma    70.26928505476572

_space_group_name_H-M_alt    "P 1"
_space_group_IT_number       1

loop_
  _space_group_symop_operation_xyz
  'x, y, z'

loop_
  _atom_site_type_symbol
  _atom_site_label
  _atom_site_symmetry_multiplicity
  _atom_site_fract_x
  _atom_site_fract_y
  _atom_site_fract_z
  _atom_site_occupancy
  Zn  Zn1       1.0  0.744839347102108  0.24992805957380432  0.7501770940629982  1.0000
  Zn  Zn2       1.0  0.25516128932495247  0.7500713375983993  0.24982276848435703  1.0000
  Cd  Cd1       1.0  0.298833847150675  0.3931987250791806  0.9722453105079653  1.0000
  Cd  Cd2       1.0  0.6626903004484245  0.10792130482447251  0.5285280576589103  1.0000
  Cd  Cd3       1.0  0.7011715217977397  0.6067975843631643  0.02775436529790199  1.0000
  Cd  Cd4       1.0  0.33730537963132406  0.8920801508343104  0.4714712896920972  1.0000
  H   H1        1.0  0.37475031951193927  0.906533814309107  0.9709310836604956  1.0000
  H   H2        1.0  0.25154297158381655  0.5940576109606823  0.5297019033297445  1.0000
  H   H3        1.0  0.6252552732624324  0.0934635243765243  0.029069294083200182  1.0000
  H   H4        1.0  0.7484565634855967  0.4059428154548073  0.47029852172479997  1.0000
  H   H5        1.0  0.3214241449202999  0.7345565242950371  0.7538747233102542  1.0000
  H   H6        1.0  0.8111822264608787  0.7653473664592525  0.7452973712458544  1.0000
  H   H7        1.0  0.6785776961292315  0.2654418436338801  0.24612593807934505  1.0000
  H   H8        1.0  0.18881863379213823  0.23465305995623711  0.2547031932393367  1.0000
  H   H9        1.0  0.4204056926467318  0.12657531015219803  0.7279052485751053  1.0000
  H   H10       1.0  0.274221065392112  0.3725201982065656  0.7725783994858731  1.0000
  H   H11       1.0  0.5795851770968738  0.8734251162632988  0.2720935895055234  1.0000
  H   H12       1.0  0.7257818342687231  0.6274802282089311  0.22742305481999384  1.0000
  H   H13       1.0  0.9661095035977423  0.3008025259909388  0.8563748139144636  1.0000
  H   H14       1.0  0.1220438951282148  0.1993510444665176  0.6448340653807634  1.0000
  H   H15       1.0  0.03389329279826112  0.6991979004245508  0.14362527904198433  1.0000
  H   H16       1.0  0.877956620737713  0.8006473234623996  0.3551664565781821  1.0000
  H   H17       1.0  0.7965021554832104  0.2455249567934032  0.9061203253653646  1.0000
  H   H18       1.0  0.9474602432118999  0.25437439057225225  0.5939648676467328  1.0000
  H   H19       1.0  0.20350257705578662  0.7544754696220934  0.09387929606233311  1.0000
  H   H20       1.0  0.05254269919527122  0.745622948113386  0.40603523123567703  1.0000
  H   H21       1.0  0.6300041725712189  0.5241874304446483  0.7033252359857515  1.0000
  H   H22       1.0  0.8575553328725646  0.9763165091457823  0.7971355192154235  1.0000
  H   H23       1.0  0.3699959734575911  0.4758129959708484  0.29667457810939624  1.0000
  H   H24       1.0  0.14244420219684872  0.0236839172697145  0.202864905839121  1.0000
  H   H25       1.0  0.5292534672229009  0.5118807684658577  0.7995812370720758  1.0000
  H   H26       1.0  0.8413851161398042  0.9879778355838269  0.70038624323864  1.0000
  H   H27       1.0  0.4707527365108604  0.48811657021978055  0.20041852971223761  1.0000
  H   H28       1.0  0.15861419510365948  0.0120215615883836  0.2996134798780687  1.0000
  C   C1        1.0  0.39886965514319417  0.028613992612896804  0.8535170863155628  1.0000
  C   C2        1.0  0.2799030795131968  0.4711978690733929  0.6470583079325324  1.0000
  C   C3        1.0  0.6011280643443653  0.9713874630458862  0.1464831508561346  1.0000
  C   C4        1.0  0.7200986155251594  0.5288035865853901  0.3529423475310978  1.0000
  C   C5        1.0  0.37342807647035414  0.9129357075522364  0.904028053405135  1.0000
  C   C6        1.0  0.1899121931937131  0.5873325353255368  0.5963781940467285  1.0000
  C   C7        1.0  0.6265696430172057  0.0870657481065393  0.09597218376655552  1.0000
  C   C8        1.0  0.8100862405180608  0.412668920333239  0.4036227935149982  1.0000
  C   C9        1.0  0.3532186996869484  0.804064411174167  0.868207278727468  1.0000
  C   C10       1.0  0.025892225731034425  0.6961317846735398  0.6317371667903304  1.0000
  C   C11       1.0  0.646781222515905  0.1959349859980435  0.1317918334298511  1.0000
  C   C12       1.0  0.9741086345219827  0.3038686417419498  0.3682633976948537  1.0000
  C   C13       1.0  0.34619524961115633  0.8153809411111723  0.7822508618000299  1.0000
  C   C14       1.0  0.9444454773317403  0.6844313469906069  0.7173489764263153  1.0000
  C   C15       1.0  0.6538062470512787  0.1846153683311726  0.21774975706332367  1.0000
  C   C16       1.0  0.05555391172651261  0.31557216715474823  0.2826514427022602  1.0000
  C   C17       1.0  0.3676132475672985  0.9323719377778374  0.7320377358677277  1.0000
  C   C18       1.0  0.032080474040483836  0.5670440916585734  0.7677741434601586  1.0000
  C   C19       1.0  0.632385349451951  0.067627459394366  0.26796123685894463  1.0000
  C   C20       1.0  0.9679219779684305  0.4329542762703511  0.23222590697004364  1.0000
  C   C21       1.0  0.3984813098254279  0.0372133202730751  0.7674874612324061  1.0000
  C   C22       1.0  0.20253240114856624  0.4621168555550454  0.7328404056668631  1.0000
  C   C23       1.0  0.6015119691631056  0.9627850476558422  0.23251297453269612  1.0000
  C   C24       1.0  0.7974724346552547  0.5378835708604512  0.26716057711026764  1.0000
  C   C25       1.0  0.4078139214530906  0.14837056599085943  0.8918767313693365  1.0000
  C   C26       1.0  0.4460388522036356  0.35202281815239905  0.6085113295638465  1.0000
  C   C27       1.0  0.5921860007497626  0.8516288311813512  0.10812238078798232  1.0000
  C   C28       1.0  0.5539610699992181  0.6479765790198044  0.39148778259347955  1.0000
  C   C29       1.0  0.34998237203846844  0.67484085804535  0.9213608806171578  1.0000
  C   C30       1.0  0.9471070391535785  0.8255303091610955  0.578359395307011  1.0000
  C   C31       1.0  0.6500213018892256  0.3251575098835673  0.07863794789426491  1.0000
  C   C32       1.0  0.05289055977284813  0.1744701172544012  0.4216415012762766  1.0000
  C   C33       1.0  0.3588611565208238  0.9467587004390056  0.6405872379712038  1.0000
  C   C34       1.0  0.9463077051046507  0.5525317613164304  0.8589190179067218  1.0000
  C   C35       1.0  0.6411373199372932  0.05323966748991891  0.359412394167066  1.0000
  C   C36       1.0  0.053691950525894996  0.44746969434235245  0.1410807477362326  1.0000
  O   O1        1.0  0.4932514521520939  0.23466746936225044  0.8481841395187574  1.0000
  O   O2        1.0  0.574651598601953  0.2647398997123673  0.6523482939695883  1.0000
  O   O3        1.0  0.5067489604490162  0.7653308985666669  0.1518150210907692  1.0000
  O   O4        1.0  0.425344821152045  0.7352574389732639  0.34765246910900777  1.0000
  O   O5        1.0  0.3177121901439787  0.1670256005618711  0.9669655498858134  1.0000
  O   O6        1.0  0.4490622642633469  0.3345740567133717  0.5330044911997406  1.0000
  O   O7        1.0  0.6822900380389784  0.83297173812376  0.03303379860656011  1.0000
  O   O8        1.0  0.5509332952552696  0.665426369702125  0.4669955155628643  1.0000
  O   O9        1.0  0.35527579595098757  0.061824585744084004  0.5983670671218135  1.0000
  O   O10       1.0  0.015874938414157085  0.4373223847790086  0.9012868863344964  1.0000
  O   O11       1.0  0.6447201334047463  0.9381737821848333  0.4016336475045891  1.0000
  O   O12       1.0  0.9841263867870822  0.5626811293663465  0.09871306126533602  1.0000
  O   O13       1.0  0.35350218402366845  0.8435276572719204  0.6084212218234698  1.0000
  O   O14       1.0  0.8057706777685919  0.6554180079824761  0.8907953240437793  1.0000
  O   O15       1.0  0.6464924201484693  0.156470710657004  0.3915793533722862  1.0000
  O   O16       1.0  0.19422669733187795  0.3445813891897274  0.10920487060167261  1.0000
  O   O17       1.0  0.348462496060833  0.5727913861713745  0.8845394447002024  1.0000
  O   O18       1.0  0.807023443714094  0.9273492305388586  0.6149838846351373  1.0000
  O   O19       1.0  0.6515410573057282  0.42720595251426374  0.11546004322281792  1.0000
  O   O20       1.0  0.19297476617172285  0.072651195876638  0.3850164009887608  1.0000
  O   O21       1.0  0.3551303546115178  0.6664041508244622  0.9993850925281222  1.0000
  O   O22       1.0  0.021124615403671287  0.8341203736316914  0.5006569063364666  1.0000
  O   O23       1.0  0.6448731987550431  0.3335931878611689  0.0006143953948977736  1.0000
  O   O24       1.0  0.9788716583391591  0.1658800527837982  0.4993438508161745  1.0000
  O   O25       1.0  0.8967697652275815  0.23296201323623217  0.8530583235222339  1.0000
  O   O26       1.0  0.9818020282369915  0.2667633920139778  0.6476001647240253  1.0000
  O   O27       1.0  0.1032349673114155  0.7670384131792646  0.14694129790547092  1.0000
  O   O28       1.0  0.01819921914945877  0.7332360051582327  0.3523990868639402  1.0000
  O   O29       1.0  0.648061210764091  0.467695354168832  0.7558752510324283  1.0000
  O   O30       1.0  0.871789232696642  0.0324880643439442  0.7445983451090897  1.0000
  O   O31       1.0  0.3519424631636027  0.5323030137600924  0.24412357747900162  1.0000
  O   O32       1.0  0.12820897718917484  0.9675123620715453  0.2554019405148082  1.0000
