data_image0
_chemical_formula_structural       La4P4H28C12O40
_chemical_formula_sum              "La4 P4 H28 C12 O40"
_cell_length_a       6.947758018316897
_cell_length_b       10.205741284391191
_cell_length_c       13.61635223903832
_cell_angle_alpha    90.00014201240266
_cell_angle_beta     89.99971486392243
_cell_angle_gamma    99.89856671042699

_space_group_name_H-M_alt    "P 1"
_space_group_IT_number       1

loop_
  _space_group_symop_operation_xyz
  'x, y, z'

loop_
  _atom_site_type_symbol
  _atom_site_label
  _atom_site_symmetry_multiplicity
  _atom_site_fract_x
  _atom_site_fract_y
  _atom_site_fract_z
  _atom_site_occupancy
  La  La1       1.0  0.15940429755626445  0.2774300314222913  0.8962702055642923  1.0000
  La  La2       1.0  0.840590287272086  0.22256207498900688  0.39627185541326077  1.0000
  La  La3       1.0  0.8406022510692565  0.7225594059332677  0.1037299900629876  1.0000
  La  La4       1.0  0.15939986775605064  0.7774371653339429  0.6037283402467679  1.0000
  P   P1        1.0  0.7796525270412218  0.0787050727414993  0.0539716009328188  1.0000
  P   P2        1.0  0.2203494042571138  0.4212992815817032  0.553964933076209  1.0000
  P   P3        1.0  0.2203606999757568  0.9212943434631381  0.9460352043950594  1.0000
  P   P4        1.0  0.7796469587067918  0.578707948410475  0.4460352625833083  1.0000
  H   H1        1.0  0.5442968482192472  0.2024368042204685  0.056362561937035614  1.0000
  H   H2        1.0  0.45571274363782527  0.2975695990870548  0.5563674732048655  1.0000
  H   H3        1.0  0.4557194980932736  0.7975636285424982  0.9436317583991212  1.0000
  H   H4        1.0  0.5442855318041709  0.702439631071961  0.443634191276189  1.0000
  H   H5        1.0  0.9107776376939043  0.99177019769575  0.2533421886911142  1.0000
  H   H6        1.0  0.08922243969896478  0.5082415621566626  0.7533387181747244  1.0000
  H   H7        1.0  0.08920598248408851  0.0082379279577793  0.7466624134535209  1.0000
  H   H8        1.0  0.9107957579611752  0.4917727838344562  0.24666368069491545  1.0000
  H   H9        1.0  0.7823241053958087  0.33928696752529663  0.940334801772032  1.0000
  H   H10       1.0  0.21769456594186215  0.1607173279791567  0.4403358547830862  1.0000
  H   H11       1.0  0.2176858282969505  0.6606985244530605  0.059658049735695315  1.0000
  H   H12       1.0  0.7823193057579659  0.839296985024994  0.5596562623373629  1.0000
  H   H13       1.0  0.8646878534708051  0.4860053084737429  0.8981598110368696  1.0000
  H   H14       1.0  0.135314836061653  0.013996791596873897  0.39816226378589914  1.0000
  H   H15       1.0  0.135324463174058  0.5139841728468467  0.10183671252701743  1.0000
  H   H16       1.0  0.8646793486249681  0.9860134001706837  0.6018379318796507  1.0000
  H   H17       1.0  0.6053033410103978  0.33222985905155156  0.8129066392221348  1.0000
  H   H18       1.0  0.3946941152752217  0.16775911688638698  0.312910152002516  1.0000
  H   H19       1.0  0.3947025019392072  0.6677565945323635  0.18708180582575554  1.0000
  H   H20       1.0  0.6052975428905045  0.832228221365952  0.6870819651214077  1.0000
  H   H21       1.0  0.4606909644204152  0.3400297818508733  0.7229752733948304  1.0000
  H   H22       1.0  0.5393098884248887  0.1599580394942848  0.22297910261809056  1.0000
  H   H23       1.0  0.5393054902193344  0.6599595785541652  0.2770197813688143  1.0000
  H   H24       1.0  0.4606887444768689  0.8400283591390972  0.7770196241949422  1.0000
  H   H25       1.0  0.0944189431101776  0.09824991736735458  0.13336608365220573  1.0000
  H   H26       1.0  0.9055767951979733  0.4017555482521189  0.6333699557000685  1.0000
  H   H27       1.0  0.905582042173876  0.9017464271400326  0.866640721689578  1.0000
  H   H28       1.0  0.09441759410240992  0.5982615946479085  0.36664860024934853  1.0000
  C   C1        1.0  0.9595038300015588  0.13634272244813417  0.1520733075535006  1.0000
  C   C2        1.0  0.0404881630731353  0.3636597752725947  0.652065553868191  1.0000
  C   C3        1.0  0.040495212234596185  0.8636575784241814  0.8479364354393369  1.0000
  C   C4        1.0  0.95950722838208  0.6363494328983348  0.3479324385614362  1.0000
  C   C5        1.0  0.0058409178910636995  0.28714365352731613  0.15785680511513794  1.0000
  C   C6        1.0  0.9941445533087645  0.21285582818212134  0.6578622502758409  1.0000
  C   C7        1.0  0.9941557414571067  0.712852657987156  0.8421338431887906  1.0000
  C   C8        1.0  0.00583571237179828  0.7871502863168442  0.34214528951575574  1.0000
  C   C9        1.0  0.45267046602233324  0.5550049703052836  0.9747903752384844  1.0000
  C   C10       1.0  0.5473206515871638  0.9449893131504652  0.4747962301634559  1.0000
  C   C11       1.0  0.5473572116204579  0.4449885992783109  0.02520100743061701  1.0000
  C   C12       1.0  0.4526387509272071  0.05500770716560768  0.5252061687703247  1.0000
  O   O1        1.0  0.5856913792276757  0.12508318459470757  0.0934347628752832  1.0000
  O   O2        1.0  0.414321934080654  0.37493424516526364  0.593425992621448  1.0000
  O   O3        1.0  0.4143225535293311  0.8749192153659705  0.9065683703992351  1.0000
  O   O4        1.0  0.5856863742929762  0.6250869749869993  0.40656906215809147  1.0000
  O   O5        1.0  0.845583416154341  0.14647630582017965  0.9576886518302389  1.0000
  O   O6        1.0  0.15439623794283366  0.35351581496249196  0.4576932102132716  1.0000
  O   O7        1.0  0.15443013780755888  0.8535062353772177  0.042306402902710316  1.0000
  O   O8        1.0  0.8455677258009262  0.6464822329204409  0.5423128607706218  1.0000
  O   O9        1.0  0.7518270915215624  0.9284372667036819  0.05694760223237692  1.0000
  O   O10       1.0  0.24816458602055752  0.5715621057154863  0.5569474904787981  1.0000
  O   O11       1.0  0.24819408181952707  0.0715592316839277  0.943048921326323  1.0000
  O   O12       1.0  0.7518156797027516  0.42844400877307  0.443049767557632  1.0000
  O   O13       1.0  0.8760103142284735  0.0822563464948658  0.24179637074553284  1.0000
  O   O14       1.0  0.12398475774971734  0.4177503331250563  0.7417877603865862  1.0000
  O   O15       1.0  0.12398125219422707  0.9177488613609628  0.7582170443180943  1.0000
  O   O16       1.0  0.8760173732152199  0.5822569408366148  0.25821316967603997  1.0000
  O   O17       1.0  0.0821463740593629  0.3500984782787384  0.08314659229412771  1.0000
  O   O18       1.0  0.9178505181142428  0.14990391294523417  0.5831499184634553  1.0000
  O   O19       1.0  0.9178670882266929  0.6499019325057986  0.9168536033346868  1.0000
  O   O20       1.0  0.08212612729717252  0.8501051523346845  0.4168554181029195  1.0000
  O   O21       1.0  0.9619577973723425  0.341455749951372  0.2374576139132856  1.0000
  O   O22       1.0  0.0380214180793672  0.15855675651172157  0.7374589976403387  1.0000
  O   O23       1.0  0.038036653134838644  0.6585494798687678  0.7625359720471039  1.0000
  O   O24       1.0  0.9619434255582962  0.8414571827647348  0.2625397292476492  1.0000
  O   O25       1.0  0.3036944511946445  0.5200805614299567  0.9225665747375943  1.0000
  O   O26       1.0  0.6963115206949838  0.9799137262601717  0.4225684143050402  1.0000
  O   O27       1.0  0.6963320502096764  0.47990803522815645  0.0774321520389165  1.0000
  O   O28       1.0  0.3036738072526789  0.020089448450761393  0.5774420631208628  1.0000
  O   O29       1.0  0.532337844062731  0.6746293454454246  0.9933607046675521  1.0000
  O   O30       1.0  0.46767086305273864  0.8253730532023479  0.49337167890620753  1.0000
  O   O31       1.0  0.4676893630938325  0.3253622349657519  0.006631412411259402  1.0000
  O   O32       1.0  0.5323252646237792  0.1746331822143929  0.5066395329188752  1.0000
  O   O33       1.0  0.8400684617144591  0.38791628227617986  0.8825872929959077  1.0000
  O   O34       1.0  0.15994133207014025  0.11208484665537811  0.3825898765905437  1.0000
  O   O35       1.0  0.15995009342377398  0.6120752321848428  0.11740776173920153  1.0000
  O   O36       1.0  0.8400482913687882  0.8879243175497745  0.6174110534913878  1.0000
  O   O37       1.0  0.47095412988417723  0.30210594107205685  0.7890362319600188  1.0000
  O   O38       1.0  0.5290437601263066  0.197883981147946  0.2890409011987032  1.0000
  O   O39       1.0  0.5290476222886937  0.6978814741255944  0.21095588514995006  1.0000
  O   O40       1.0  0.47095028098847547  0.8021073464473715  0.7109556223924614  1.0000
