data_image0
_chemical_formula_structural       Nd4Cu6H48C48O60
_chemical_formula_sum              "Nd4 Cu6 H48 C48 O60"
_cell_length_a       14.526646590009841
_cell_length_b       15.034807629663305
_cell_length_c       15.03481218316299
_cell_angle_alpha    120.0003091310271
_cell_angle_beta     89.99991787170411
_cell_angle_gamma    90.0001318760773

_space_group_name_H-M_alt    "P 1"
_space_group_IT_number       1

loop_
  _space_group_symop_operation_xyz
  'x, y, z'

loop_
  _atom_site_type_symbol
  _atom_site_label
  _atom_site_symmetry_multiplicity
  _atom_site_fract_x
  _atom_site_fract_y
  _atom_site_fract_z
  _atom_site_occupancy
  Nd  Nd1       1.0  0.24999978890503635  0.3333333138084809  0.666666818473814  1.0000
  Nd  Nd2       1.0  0.2500011208026507  0.6666669374776858  0.3333333965608104  1.0000
  Nd  Nd3       1.0  0.7500008939787791  0.6666674488582344  0.333333305739579  1.0000
  Nd  Nd4       1.0  0.7499988736903022  0.3333334411797821  0.6666671116610203  1.0000
  Cu  Cu1       1.0  0.9999996294051812  7.149143285913578e-07  0.5000011405879262  1.0000
  Cu  Cu2       1.0  5.418665339000001e-07  0.49999983062766507  0.999999387250966  1.0000
  Cu  Cu3       1.0  2.2407034810000003e-07  0.4999996779481818  0.5000003449321467  1.0000
  Cu  Cu4       1.0  0.49999967945073104  0.4999997555314763  1.6265760639358892e-07  1.0000
  Cu  Cu5       1.0  0.5000005919119347  0.999999817488906  0.5000001235813156  1.0000
  Cu  Cu6       1.0  0.49999999724573746  0.49999980532019345  0.5000006381192248  1.0000
  H   H1        1.0  0.8459580736230451  0.35698021938063823  0.2045201181599765  1.0000
  H   H2        1.0  0.7534438994837914  0.3683148178642597  0.2888625005082942  1.0000
  H   H3        1.0  0.8459583320500883  0.8475404442084694  0.6430202266983043  1.0000
  H   H4        1.0  0.753443613785855  0.9205499814416457  0.6316877942924676  1.0000
  H   H5        1.0  0.8459579453413256  0.795479214013639  0.15245829270877914  1.0000
  H   H6        1.0  0.7534437740364694  0.7111361246890908  0.07944972343229725  1.0000
  H   H7        1.0  0.8459586641957699  0.6430198178078256  0.79547998326246  1.0000
  H   H8        1.0  0.7534438997333979  0.6316860792185679  0.7111379156411457  1.0000
  H   H9        1.0  0.8459590941581041  0.15245920897215373  0.3569802587323139  1.0000
  H   H10       1.0  0.7534441854298565  0.07945014762410099  0.36831338987359163  1.0000
  H   H11       1.0  0.8459581040892915  0.20452131007343172  0.8475399915626696  1.0000
  H   H12       1.0  0.7534433367899994  0.28886344214040355  0.9205493624648965  1.0000
  H   H13       1.0  0.6540414975347631  0.2045197993155553  0.35698028452158326  1.0000
  H   H14       1.0  0.7465564029415078  0.28886201012328167  0.3683139241139982  1.0000
  H   H15       1.0  0.6540416554588193  0.6430199859644431  0.8475403997286717  1.0000
  H   H16       1.0  0.7465557129727713  0.6316869469542538  0.9205493178956201  1.0000
  H   H17       1.0  0.6540417989969853  0.15245929759118568  0.7954789887618715  1.0000
  H   H18       1.0  0.7465565881745988  0.07945002564619581  0.7111367645970573  1.0000
  H   H19       1.0  0.654041988372633  0.7954798453030065  0.643019886621303  1.0000
  H   H20       1.0  0.7465560215686934  0.7111368774916826  0.6316844991590853  1.0000
  H   H21       1.0  0.6540411420597962  0.35698137291459625  0.15246071765839272  1.0000
  H   H22       1.0  0.7465553347580851  0.36831393603824836  0.07945110075625908  1.0000
  H   H23       1.0  0.6540423753012733  0.8475407310366236  0.2045207983725773  1.0000
  H   H24       1.0  0.7465565247255768  0.9205498082135646  0.2888633729365748  1.0000
  H   H25       1.0  0.15404192087035543  0.6430198781590589  0.7954793409273574  1.0000
  H   H26       1.0  0.24655678340001694  0.6316859448024558  0.7111376237050988  1.0000
  H   H27       1.0  0.1540416624428644  0.15245993444899844  0.3569802815235191  1.0000
  H   H28       1.0  0.24655638070606054  0.07944934808096349  0.3683124328114928  1.0000
  H   H29       1.0  0.1540420491517764  0.20452021839973603  0.8475405012523749  1.0000
  H   H30       1.0  0.2465562204558864  0.28886292371574024  0.9205494545371664  1.0000
  H   H31       1.0  0.15404201868700804  0.3569798957240308  0.20451985983306278  1.0000
  H   H32       1.0  0.24655540636972972  0.36831496456451157  0.2888632577069926  1.0000
  H   H33       1.0  0.1540415887246738  0.8475405045597028  0.6430195843632088  1.0000
  H   H34       1.0  0.2465551206729799  0.9205502310326635  0.6316871183483597  1.0000
  H   H35       1.0  0.15404189040336294  0.7954784034577215  0.1524598515329812  1.0000
  H   H36       1.0  0.246556657702655  0.7111362713907494  0.07945048063074708  1.0000
  H   H37       1.0  0.3459584969578913  0.7954799142155905  0.6430195585740675  1.0000
  H   H38       1.0  0.2534435915511466  0.7111377034078714  0.6316859189816453  1.0000
  H   H39       1.0  0.3459583390341335  0.3569803926930248  0.15246010849315883  1.0000
  H   H40       1.0  0.2534442815201814  0.3683134317032142  0.0794511903262034  1.0000
  H   H41       1.0  0.3459581954967064  0.8475414650748262  0.2045211354516496  1.0000
  H   H42       1.0  0.25344340631805556  0.9205496878849572  0.2888630784985861  1.0000
  H   H43       1.0  0.34595869451013783  0.20451986822885002  0.3569799564742127  1.0000
  H   H44       1.0  0.2534439729236624  0.2888621709131555  0.3683146788103783  1.0000
  H   H45       1.0  0.3459581640440774  0.6430200548770271  0.847540071681429  1.0000
  H   H46       1.0  0.2534439713460799  0.63168815687969  0.9205503537097498  1.0000
  H   H47       1.0  0.34595830758268425  0.15245908538599928  0.7954776115801394  1.0000
  H   H48       1.0  0.2534434697685555  0.07945067333467644  0.7111357021424496  1.0000
  C   C1        1.0  0.3601835751985476  0.5173661051052605  0.8762052770105483  1.0000
  C   C2        1.0  0.6991562363367407  0.4116391906911403  0.14446289344739674  1.0000
  C   C3        1.0  0.360181613192715  0.3588382974400233  0.4826397913748365  1.0000
  C   C4        1.0  0.6991556009295367  0.7328241046213789  0.5883606949373642  1.0000
  C   C5        1.0  0.3601825929366883  0.12379595228861708  0.6411592424145026  1.0000
  C   C6        1.0  0.6991566733257031  0.855537846121237  0.2671760754227959  1.0000
  C   C7        1.0  0.3601827147910299  0.48263769719373073  0.12379822362726148  1.0000
  C   C8        1.0  0.6991559194766737  0.5883618764624714  0.855538591558492  1.0000
  C   C9        1.0  0.36018261162278253  0.6411610271996436  0.5173615356573646  1.0000
  C   C10       1.0  0.6991558664936051  0.2671753511611215  0.411638410681789  1.0000
  C   C11       1.0  0.3601836970543602  0.8762060604129616  0.3588393965591549  1.0000
  C   C12       1.0  0.6991561708769327  0.14446122565413327  0.7328234142044181  1.0000
  C   C13       1.0  0.13981682249395533  0.876203355439685  0.5173640677568229  1.0000
  C   C14       1.0  0.8008440207921838  0.14446171657511545  0.41163763087759975  1.0000
  C   C15       1.0  0.139815783517804  0.482635054833274  0.3588389328013547  1.0000
  C   C16       1.0  0.8008436222858819  0.5883616278787542  0.732824500025714  1.0000
  C   C17       1.0  0.13981889982696313  0.6411605280501859  0.1237987851997814  1.0000
  C   C18       1.0  0.8008431493363091  0.26717618884747896  0.855537462112373  1.0000
  C   C19       1.0  0.13981595337195074  0.12379467508347367  0.48263419192748097  1.0000
  C   C20       1.0  0.8008433587310863  0.855538228330225  0.5883624869343292  1.0000
  C   C21       1.0  0.1398176807380835  0.5173639219346737  0.6411610411435047  1.0000
  C   C22       1.0  0.8008437572384326  0.4116393661614453  0.26717589890408516  1.0000
  C   C23       1.0  0.13981731799044184  0.35883949785544184  0.8762014698624511  1.0000
  C   C24       1.0  0.8008442301878491  0.7328231938223126  0.1444605574305697  1.0000
  C   C25       1.0  0.6398171076860139  0.4826375991844997  0.12379855684206824  1.0000
  C   C26       1.0  0.3008437581565104  0.5883618530926426  0.8555382799006138  1.0000
  C   C27       1.0  0.6398176929090768  0.6411610320818824  0.5173604357292445  1.0000
  C   C28       1.0  0.30084370517374037  0.2671759929176146  0.41163876415009776  1.0000
  C   C29       1.0  0.6398174015564068  0.876203480124765  0.3588395515466515  1.0000
  C   C30       1.0  0.30084400955825435  0.1444619703013926  0.7328223345299206  1.0000
  C   C31       1.0  0.6398165913137391  0.5173657259768448  0.8762045610911144  1.0000
  C   C32       1.0  0.3008440750155401  0.41163811818645246  0.1444623006716482  1.0000
  C   C33       1.0  0.6398180712588084  0.35883858344144676  0.4826397405809644  1.0000
  C   C34       1.0  0.3008441279997954  0.7328247463785686  0.5883610484055452  1.0000
  C   C35       1.0  0.6398169858301941  0.1237950862622982  0.6411603436459288  1.0000
  C   C36       1.0  0.30084382361602025  0.8555391530033346  0.2671770940174126  1.0000
  C   C37       1.0  0.8601831719992958  0.12379768834409777  0.48263710559118767  1.0000
  C   C38       1.0  0.19915597370120963  0.8555383809645748  0.5883618282097345  1.0000
  C   C39       1.0  0.8601835225847339  0.5173646586971755  0.6411609102944167  1.0000
  C   C40       1.0  0.19915568381694732  0.4116387507780103  0.2671760081962374  1.0000
  C   C41       1.0  0.8601817830558076  0.3588391854816707  0.8762010578957417  1.0000
  C   C42       1.0  0.19915684515560628  0.7328231406751229  0.14446276499158722  1.0000
  C   C43       1.0  0.8601833527305801  0.876205038446976  0.5173656511682905  1.0000
  C   C44       1.0  0.19915594737070563  0.14446110119168057  0.411637740169752  1.0000
  C   C45       1.0  0.8601836905322955  0.48263397444593886  0.358839288850639  1.0000
  C   C46       1.0  0.19915623725526638  0.5883613965045666  0.7328242253094285  1.0000
  C   C47       1.0  0.8601819881113499  0.6411598316664636  0.12379875724162998  1.0000
  C   C48       1.0  0.19915645269433213  0.26717518945691415  0.8555379554125864  1.0000
  O   O1        1.0  0.3590311432249464  0.42215807584352655  0.813707870883462  1.0000
  O   O2        1.0  0.40705398972222173  0.5656152180944288  0.9585204759174742  1.0000
  O   O3        1.0  0.3590305932533226  0.3915493272700914  0.5778405009641289  1.0000
  O   O4        1.0  0.4070555495774784  0.39290588092351436  0.43438512932888057  1.0000
  O   O5        1.0  0.3590303264472752  0.186292310614114  0.6084499258909162  1.0000
  O   O6        1.0  0.4070543152162712  0.04148047632206439  0.6070936125666435  1.0000
  O   O7        1.0  0.3590317934163282  0.5778399161898379  0.18629212631438458  1.0000
  O   O8        1.0  0.40705451334797255  0.43438507333113563  0.041478632927351  1.0000
  O   O9        1.0  0.3590316550006492  0.6084511470408315  0.4221596744612838  1.0000
  O   O10       1.0  0.4070550186623407  0.6070940264956236  0.5656143635238847  1.0000
  O   O11       1.0  0.3590319218081818  0.81370893171389  0.3915494815178701  1.0000
  O   O12       1.0  0.4070541878556995  0.9585212482469031  0.39290539338774955  1.0000
  O   O13       1.0  0.1409684954023973  0.8137071716089178  0.4221588286924172  1.0000
  O   O14       1.0  0.09294577809316001  0.9585209178106382  0.5656147498110186  1.0000
  O   O15       1.0  0.1409689259601521  0.5778440120794173  0.3915497362530046  1.0000
  O   O16       1.0  0.0929452827343908  0.4343868276082361  0.392905273799279  1.0000
  O   O17       1.0  0.14096980288628203  0.6084503433382125  0.18629196526945435  1.0000
  O   O18       1.0  0.09294574861257839  0.6070926880139071  0.04147881851321953  1.0000
  O   O19       1.0  0.1409683221971747  0.186291142388498  0.5778404797078736  1.0000
  O   O20       1.0  0.09294547308253702  0.04147873109846497  0.4343844731447888  1.0000
  O   O21       1.0  0.1409692684227863  0.42215744932398275  0.6084504155006484  1.0000
  O   O22       1.0  0.0929466568317281  0.5656134864278923  0.6070946142825872  1.0000
  O   O23       1.0  0.14096839149086549  0.3915470997527564  0.8137095442900061  1.0000
  O   O24       1.0  0.0929455025608945  0.39290580886957127  0.9585215564675238  1.0000
  O   O25       1.0  0.6409688512665284  0.5778415347968533  0.18629340535498773  1.0000
  O   O26       1.0  0.5929453163816518  0.4343862096971947  0.04148031342234754  1.0000
  O   O27       1.0  0.6409680244598307  0.6084507702681918  0.42215895812346094  1.0000
  O   O28       1.0  0.5929437565250595  0.6070938326069352  0.5656147137668908  1.0000
  O   O29       1.0  0.6409689796574795  0.8137085549419608  0.39154876517991943  1.0000
  O   O30       1.0  0.5929456792781592  0.9585206703524919  0.39290612763856797  1.0000
  O   O31       1.0  0.6409682010738037  0.4221579801893681  0.813708203680008  1.0000
  O   O32       1.0  0.5929454811454207  0.5656150242085545  0.9585208261599828  1.0000
  O   O33       1.0  0.6409690278821216  0.3915485664910249  0.5778401686342389  1.0000
  O   O34       1.0  0.5929442874409361  0.39290607104337016  0.43438509556357  1.0000
  O   O35       1.0  0.6409687610738574  0.18629039780942228  0.6084507455859621  1.0000
  O   O36       1.0  0.5929464950261831  0.04147646990600135  0.6070924543292263  1.0000
  O   O37       1.0  0.8590308106998351  0.18629187679521647  0.5778403492771742  1.0000
  O   O38       1.0  0.9070542163997929  0.04147946084682987  0.43438575841080507  1.0000
  O   O39       1.0  0.8590310685345842  0.4221577997214537  0.6084506690783796  1.0000
  O   O40       1.0  0.9070540233687365  0.5656142161748502  0.6070958995488522  1.0000
  O   O41       1.0  0.8590301916056333  0.39154898618439665  0.8137082618344991  1.0000
  O   O42       1.0  0.907054934269155  0.3929059763830905  0.958520743464426  1.0000
  O   O43       1.0  0.8590309839053559  0.8137085711419516  0.422159363387898  1.0000
  O   O44       1.0  0.9070545214096698  0.958521263550459  0.5656164190853445  1.0000
  O   O45       1.0  0.8590314144620735  0.5778443624775916  0.39154998983061495  1.0000
  O   O46       1.0  0.9070533376619707  0.43438727623811957  0.39290550993092666  1.0000
  O   O47       1.0  0.8590322913913154  0.6084512835264704  0.18628896855314983  1.0000
  O   O48       1.0  0.9070551803221677  0.6070920121741068  0.04147485810664603  1.0000
  O   O49       1.0  0.7500000459806913  0.4717233216843439  0.2358612990727734  1.0000
  O   O50       1.0  0.7499994886345576  0.7641394555691007  0.5282773738710772  1.0000
  O   O51       1.0  0.7500003937603169  0.7641389041921229  0.2358605791492038  1.0000
  O   O52       1.0  0.7499997216883969  0.5282775683536727  0.7641391183278187  1.0000
  O   O53       1.0  0.7499995906441085  0.23586076934189754  0.4717223784034629  1.0000
  O   O54       1.0  0.75000006229903  0.23586103960251137  0.7641381239905911  1.0000
  O   O55       1.0  0.249999948513306  0.5282781061079831  0.7641394902669275  1.0000
  O   O56       1.0  0.25000050585810385  0.23586025796205223  0.4717224692245735  1.0000
  O   O57       1.0  0.25000028912320005  0.23586119334827776  0.7641388799380096  1.0000
  O   O58       1.0  0.25000027280455583  0.47172281030379537  0.23586138989400487  1.0000
  O   O59       1.0  0.2500004038495831  0.7641399933241148  0.5282777458100512  1.0000
  O   O60       1.0  0.24999993219436334  0.7641390579371857  0.23586133509674292  1.0000
