data_image0
_chemical_formula_structural       Cd4H40C28S8N16
_chemical_formula_sum              "Cd4 H40 C28 S8 N16"
_cell_length_a       8.749788176001221
_cell_length_b       10.887427375628194
_cell_length_c       12.195538544708633
_cell_angle_alpha    110.58169734012688
_cell_angle_beta     89.99996392528685
_cell_angle_gamma    89.99996747630681

_space_group_name_H-M_alt    "P 1"
_space_group_IT_number       1

loop_
  _space_group_symop_operation_xyz
  'x, y, z'

loop_
  _atom_site_type_symbol
  _atom_site_label
  _atom_site_symmetry_multiplicity
  _atom_site_fract_x
  _atom_site_fract_y
  _atom_site_fract_z
  _atom_site_occupancy
  Cd  Cd1       1.0  0.7024324000046677  0.5349618024084251  0.9567270313501979  1.0000
  Cd  Cd2       1.0  0.2024317521030383  0.9650389886685746  0.5432727757641801  1.0000
  Cd  Cd3       1.0  0.29756816343748244  0.4650389083665658  0.04327253401953613  1.0000
  Cd  Cd4       1.0  0.7975676684539437  0.034961721424679106  0.45672760936365364  1.0000
  H   H1        1.0  0.506117905029285  0.6977074234083815  0.8893766011460329  1.0000
  H   H2        1.0  0.006117313565695802  0.8022944911591168  0.6106236486488187  1.0000
  H   H3        1.0  0.49388265841286483  0.3022932873666022  0.11062296422370115  1.0000
  H   H4        1.0  0.9938821069912864  0.19770621893414386  0.3893767364790222  1.0000
  H   H5        1.0  0.6650622746506656  0.7813042022297266  0.9355631552012085  1.0000
  H   H6        1.0  0.16506178240035047  0.7186966159499802  0.5644366774596321  1.0000
  H   H7        1.0  0.3349382887914842  0.21869650854525693  0.06443641016852548  1.0000
  H   H8        1.0  0.8349387810410889  0.28130409346071866  0.43556452742552654  1.0000
  H   H9        1.0  0.9033436838743754  0.35937427743303363  0.7902040069183087  1.0000
  H   H10       1.0  0.4033442633104443  0.14062634911861238  0.7097956283187727  1.0000
  H   H11       1.0  0.09665573668296902  0.6406264333423691  0.2097955584518161  1.0000
  H   H12       1.0  0.5966563001313432  0.8593743609742359  0.2902047568086772  1.0000
  H   H13       1.0  0.987440499327526  0.49929710373933034  0.8548917025059596  1.0000
  H   H14       1.0  0.4874400909703027  0.0007034618212741999  0.6451078752422106  1.0000
  H   H15       1.0  0.0125600641146235  0.5007036070356606  0.1451078628637745  1.0000
  H   H16       1.0  0.5125593295866794  0.9992972482719793  0.35489250988563015  1.0000
  H   H17       1.0  0.6483465290750631  0.7688451583733737  0.7440042118635475  1.0000
  H   H18       1.0  0.14834700438931492  0.7311546908161118  0.7559953237456442  1.0000
  H   H19       1.0  0.3516540343675699  0.23115457128861291  0.2559950450278521  1.0000
  H   H20       1.0  0.8516535590524796  0.26884601927673657  0.24400506138179884  1.0000
  H   H21       1.0  0.590348631699932  0.6023073104773501  0.6996850477149154  1.0000
  H   H22       1.0  0.09034895082341882  0.8976935612061536  0.8003156557781992  1.0000
  H   H23       1.0  0.4096519317422178  0.3976934002976408  0.30031451765481887  1.0000
  H   H24       1.0  0.9096516126180204  0.1023071482045452  0.1996855491069596  1.0000
  H   H25       1.0  0.9071836528500512  0.6977312190065348  0.8004588277705126  1.0000
  H   H26       1.0  0.4071841269943803  0.8022704053689083  0.6995403280945283  1.0000
  H   H27       1.0  0.0928169105920986  0.3022694917684489  0.1995407375992215  1.0000
  H   H28       1.0  0.592816436446931  0.19773128583693733  0.30046036551125616  1.0000
  H   H29       1.0  0.8612889084184729  0.6532007323600408  0.6505276391040979  1.0000
  H   H30       1.0  0.36128922076880343  0.8467999435055803  0.8494720594143815  1.0000
  H   H31       1.0  0.1387116550236769  0.3467999784149427  0.3494719262656361  1.0000
  H   H32       1.0  0.638711342672508  0.15320174770026534  0.1505286341914029  1.0000
  H   H33       1.0  0.7764732184030623  0.4281149142846629  0.6550967774519948  1.0000
  H   H34       1.0  0.27647258607625963  0.07188580496264757  0.8449021247574535  1.0000
  H   H35       1.0  0.2235262021542823  0.5718857964907399  0.3449027879181371  1.0000
  H   H36       1.0  0.7235268344810779  0.9281149058127552  0.1550974406126713  1.0000
  H   H37       1.0  0.9736802656596952  0.4634764522073738  0.6551986650996469  1.0000
  H   H38       1.0  0.47367851552080253  0.03652412401550009  0.8448001022978744  1.0000
  H   H39       1.0  0.026319154898118303  0.536523277455025  0.3448005917921435  1.0000
  H   H40       1.0  0.5263209050365347  0.9634765867599029  0.15519946307225752  1.0000
  C   C1        1.0  0.38017556753926135  0.4290112473149605  0.7857657472262858  1.0000
  C   C2        1.0  0.8801775436660293  0.070986452017749  0.7142337981709304  1.0000
  C   C3        1.0  0.6198227101342298  0.5709875012348462  0.214233201187561  1.0000
  C   C4        1.0  0.11982073400639591  0.9290122944856305  0.28576760951604996  1.0000
  C   C5        1.0  0.39577943787177355  0.39852094470198535  0.6632598927134623  1.0000
  C   C6        1.0  0.8957790001944305  0.10147772442786623  0.8367399504959894  1.0000
  C   C7        1.0  0.6042211255709804  0.6014778031648546  0.3367398754573117  1.0000
  C   C8        1.0  0.1042181345946247  0.8985180787369202  0.16326053175637167  1.0000
  C   C9        1.0  0.49555677458103287  0.29796169506509784  0.5974847787429312  1.0000
  C   C10       1.0  0.9955550657949815  0.20203592195277056  0.9025130482646091  1.0000
  C   C11       1.0  0.5044449317459295  0.7020390157094737  0.402514786626412  1.0000
  C   C12       1.0  0.0044409261086571  0.7979618441205785  0.09748723118710248  1.0000
  C   C13       1.0  0.3147397635722058  0.46741317808444893  0.6030514784189194  1.0000
  C   C14       1.0  0.8147404651156833  0.03258751272733921  0.8969482173884701  1.0000
  C   C15       1.0  0.6852596569864531  0.5325855711470879  0.39694665023682774  1.0000
  C   C16       1.0  0.1852692414049528  0.9674131980443332  0.10305134797814475  1.0000
  C   C17       1.0  0.6664372788596822  0.6761096893196452  0.7592776383170731  1.0000
  C   C18       1.0  0.166436559046204  0.8238872020466207  0.740722599005963  1.0000
  C   C19       1.0  0.3335644274683601  0.32388807743377157  0.24072182137497578  1.0000
  C   C20       1.0  0.833564004395228  0.1761135073640787  0.2592786058791958  1.0000
  C   C21       1.0  0.8323224646182086  0.6343936399428216  0.7308844751264729  1.0000
  C   C22       1.0  0.3323205477640272  0.8656060758185832  0.7691149347161287  1.0000
  C   C23       1.0  0.16767809882394152  0.3656070708321622  0.2691150902432682  1.0000
  C   C24       1.0  0.6676788727934381  0.13439365316167343  0.2308851419333706  1.0000
  C   C25       1.0  0.8681359641227288  0.49024595502870477  0.7074962801285309  1.0000
  C   C26       1.0  0.3681354212432524  0.0097546977399716  0.7925025594195034  1.0000
  C   C27       1.0  0.1318634564346084  0.5097547557466982  0.29250328524159397  1.0000
  C   C28       1.0  0.6318651421988976  0.990246013035019  0.2074970059502377  1.0000
  S   S1        1.0  0.4889862028907928  0.34279586884264995  0.853046804024828  1.0000
  S   S2        1.0  0.9889847479346656  0.15720371448431078  0.6469524641887077  1.0000
  S   S3        1.0  0.5110155034362976  0.657203860136775  0.1469532726238967  1.0000
  S   S4        1.0  0.0110123868531744  0.8427960144967769  0.35304761246157307  1.0000
  S   S5        1.0  0.25842397026501374  0.5504977156928703  0.867470876612778  1.0000
  S   S6        1.0  0.7584246070990802  0.9495020536626484  0.6325285837465486  1.0000
  S   S7        1.0  0.7415754502927996  0.4495020139695285  0.13252838027901248  1.0000
  S   S8        1.0  0.24157481345874027  0.05049767599975039  0.3674706731452416  1.0000
  N   N1        1.0  0.5772456629773899  0.2129840619482691  0.5430185123014581  1.0000
  N   N2        1.0  0.07724592411271661  0.287014840245071  0.9569790893868486  1.0000
  N   N3        1.0  0.42275718623653097  0.7870137068511697  0.4569784881170734  1.0000
  N   N4        1.0  0.9227500677926985  0.7129829292389971  0.043017091276311745  1.0000
  N   N5        1.0  0.2486627364838299  0.5255772596106779  0.553232363548922  1.0000
  N   N6        1.0  0.7486630825494062  0.9744225154600202  0.9467687429987778  1.0000
  N   N7        1.0  0.7513366840742393  0.47442050646142775  0.44676791590161713  1.0000
  N   N8        1.0  0.2513329093540193  0.0255713220684584  0.0532352210858491  1.0000
  N   N9        1.0  0.62274816233937  0.6927013062240519  0.8812509898369781  1.0000
  N   N10       1.0  0.1227487031607382  0.8072995426436832  0.6187488717497729  1.0000
  N   N11       1.0  0.37725125821845035  0.3072984234383468  0.1187482670548121  1.0000
  N   N12       1.0  0.8772518602810565  0.19270116744916524  0.38125151337766994  1.0000
  N   N13       1.0  0.8861912224410916  0.45882963754833367  0.815663296438217  1.0000
  N   N14       1.0  0.38618960850671874  0.0411710007618211  0.6843371702828804  1.0000
  N   N15       1.0  0.1138093410011791  0.5411700914315104  0.18433678021089148  1.0000
  N   N16       1.0  0.6138098120507395  0.9588287282184353  0.3156629063666188  1.0000
