data_image0
_chemical_formula_structural       Mn12H120C204S24O60
_chemical_formula_sum              "Mn12 H120 C204 S24 O60"
_cell_length_a       19.495529310027642
_cell_length_b       19.49790467782243
_cell_length_c       20.365834704001376
_cell_angle_alpha    89.99996464076919
_cell_angle_beta     90.00003625397757
_cell_angle_gamma    120.00257204918414

_space_group_name_H-M_alt    "P 1"
_space_group_IT_number       1

loop_
  _space_group_symop_operation_xyz
  'x, y, z'

loop_
  _atom_site_type_symbol
  _atom_site_label
  _atom_site_symmetry_multiplicity
  _atom_site_fract_x
  _atom_site_fract_y
  _atom_site_fract_z
  _atom_site_occupancy
  Mn  Mn1       1.0  0.26688311675217585  0.6420821050463559  0.0258883454932075  1.0000
  Mn  Mn2       1.0  0.3579781330506365  0.6248751002684262  0.6926059559585553  1.0000
  Mn  Mn3       1.0  0.37520850539831224  0.7330606533766757  0.3593060622131858  1.0000
  Mn  Mn4       1.0  0.7331168867125014  0.35791697619838214  0.5258891871408125  1.0000
  Mn  Mn5       1.0  0.6420275916931999  0.37512955412697124  0.1926010726276886  1.0000
  Mn  Mn6       1.0  0.6247949715687184  0.2669380524388815  0.859305911405265  1.0000
  Mn  Mn7       1.0  0.5543317660362063  0.28474572245954016  0.025175085158004196  1.0000
  Mn  Mn8       1.0  0.7152723526668512  0.2695419415208849  0.6917508112757106  1.0000
  Mn  Mn9       1.0  0.7304484838148113  0.4456853258407563  0.358303100449767  1.0000
  Mn  Mn10      1.0  0.4456700720937902  0.7152546017100081  0.5251784940551119  1.0000
  Mn  Mn11      1.0  0.28472972299392285  0.7304561037309795  0.1917543474639984  1.0000
  Mn  Mn12      1.0  0.2695489534004094  0.5543132638229266  0.858303062916896  1.0000
  H   H1        1.0  0.7833055776823556  0.2840379884243873  0.9261281589620721  1.0000
  H   H2        1.0  0.716076355830495  0.49932090271607893  0.5928782928194208  1.0000
  H   H3        1.0  0.5008210993913735  0.2165847620638673  0.2595681338916194  1.0000
  H   H4        1.0  0.21669607456544063  0.7159635714109597  0.42612773544482957  1.0000
  H   H5        1.0  0.28391939567362817  0.5006803820225231  0.09287754414727092  1.0000
  H   H6        1.0  0.49917782996602256  0.7834154070724182  0.7595695702416663  1.0000
  H   H7        1.0  0.8727540751239501  0.22799157185017552  0.9189593327870753  1.0000
  H   H8        1.0  0.7721864558320988  0.6448057937249703  0.5857805953940058  1.0000
  H   H9        1.0  0.3552978381507827  0.12716327155348486  0.2524350926706589  1.0000
  H   H10       1.0  0.12724662720830088  0.7720078600524404  0.418958332706687  1.0000
  H   H11       1.0  0.22781061436930372  0.35519622366829406  0.0857798990199115  1.0000
  H   H12       1.0  0.6447010878327364  0.872836900527105  0.7524365622570386  1.0000
  H   H13       1.0  0.7372622915375187  0.05834528339887877  0.0695505042005564  1.0000
  H   H14       1.0  0.9416890306276644  0.6788101062424092  0.7364653504179159  1.0000
  H   H15       1.0  0.32118688181456184  0.26283562218340256  0.4028555900194918  1.0000
  H   H16       1.0  0.26273757383702195  0.9416559899839572  0.5695482713794746  1.0000
  H   H17       1.0  0.05831209833458221  0.3211899138936332  0.23646850233082256  1.0000
  H   H18       1.0  0.678813870948538  0.7371668355186929  0.9028576502911037  1.0000
  H   H19       1.0  0.6464949556526277  0.11376646128113788  0.0754873649521812  1.0000
  H   H20       1.0  0.8862268981415369  0.532597398723567  0.7422947476659516  1.0000
  H   H21       1.0  0.46739374440034  0.35355538559500144  0.40879398324250354  1.0000
  H   H22       1.0  0.3535057216374184  0.8862350264695921  0.5754876731782801  1.0000
  H   H23       1.0  0.11377283215284706  0.4674029943613077  0.2422978464719918  1.0000
  H   H24       1.0  0.5326068737536643  0.6464451555830452  0.9087955196188772  1.0000
  H   H25       1.0  0.1708734660738429  0.3641533757552438  0.9069767636796797  1.0000
  H   H26       1.0  0.6360771215347755  0.807063688054541  0.5737721612280353  1.0000
  H   H27       1.0  0.19335574478027714  0.8292022978836117  0.2404534986024345  1.0000
  H   H28       1.0  0.8291250200596066  0.6358462196287817  0.4069792028654859  1.0000
  H   H29       1.0  0.3639246602102091  0.19293772113591262  0.07377360425007141  1.0000
  H   H30       1.0  0.8066455234853862  0.1707996346798382  0.7404535112670132  1.0000
  H   H31       1.0  0.07146510511660148  0.21997517434879654  0.9086555686793645  1.0000
  H   H32       1.0  0.7802095814494264  0.85161117650123  0.5754175933266055  1.0000
  H   H33       1.0  0.14859449563696345  0.9285962825840953  0.2421872423180531  1.0000
  H   H34       1.0  0.9285336779700727  0.7800241242552702  0.408657981829208  1.0000
  H   H35       1.0  0.2197927140213523  0.14839074491612791  0.0754184865910545  1.0000
  H   H36       1.0  0.8514070696072409  0.07140535317731206  0.742184393530593  1.0000
  H   H37       1.0  0.9403453251752224  0.262018263020785  0.0583469369434724  1.0000
  H   H38       1.0  0.7378215775740457  0.678095545385581  0.7248639983714469  1.0000
  H   H39       1.0  0.3218417698098861  0.0596559030689861  0.39184063356220383  1.0000
  H   H40       1.0  0.05965690417384197  0.7379806462901471  0.558346668084809  1.0000
  H   H41       1.0  0.2621815183201406  0.32190763624353025  0.2248648148158949  1.0000
  H   H42       1.0  0.6781610508562534  0.9403444865716891  0.8918381551043736  1.0000
  H   H43       1.0  0.03972630941495943  0.4063399316278479  0.0551810337000234  1.0000
  H   H44       1.0  0.5935382940961985  0.6332865007949025  0.721629630694629  1.0000
  H   H45       1.0  0.3668252129037199  0.9603190604148112  0.388577074228337  1.0000
  H   H46       1.0  0.9602751093298848  0.5936587621708824  0.5551808887884704  1.0000
  H   H47       1.0  0.40646407053204575  0.3667153602702983  0.22163050581379912  1.0000
  H   H48       1.0  0.6331759880057604  0.03968089693450598  0.8885770616588077  1.0000
  H   H49       1.0  0.06309894138860274  0.6645109156050425  0.9992669932266764  1.0000
  H   H50       1.0  0.33557509224505117  0.3985919543017646  0.6658955956592791  1.0000
  H   H51       1.0  0.6013493474313806  0.936951121990653  0.3328298647121173  1.0000
  H   H52       1.0  0.9369002600870215  0.33548694442987426  0.4992711451101642  1.0000
  H   H53       1.0  0.6644250354895077  0.6014100883048102  0.1658969760275255  1.0000
  H   H54       1.0  0.3986488074708774  0.06304880008693914  0.832828227284807  1.0000
  H   H55       1.0  0.9600129530655507  0.7011956707427129  0.974816493236915  1.0000
  H   H56       1.0  0.2987019017136631  0.2587538879900891  0.641515579173074  1.0000
  H   H57       1.0  0.7411247566840088  0.03997175778846451  0.3083234395396275  1.0000
  H   H58       1.0  0.03998448121361517  0.2987998516738699  0.4748201385095285  1.0000
  H   H59       1.0  0.7012993197551084  0.7412480854119398  0.1415164082103573  1.0000
  H   H60       1.0  0.2588733866270587  0.9600281744044992  0.808322666721992  1.0000
  H   H61       1.0  0.07667410124288658  0.8999992835740686  0.10655517515399991  1.0000
  H   H62       1.0  0.10002403194928186  0.17687118968254378  0.7733755955604878  1.0000
  H   H63       1.0  0.8233244478082823  0.9233073855686484  0.44000992603452005  1.0000
  H   H64       1.0  0.9233210276891413  0.0999954443066643  0.6065572621255697  1.0000
  H   H65       1.0  0.8999775480474882  0.8231304332046324  0.2733755115185019  1.0000
  H   H66       1.0  0.1766754553746068  0.07669182082536713  0.9400115870284367  1.0000
  H   H67       1.0  0.17903173406409678  0.8623182667672895  0.1306951549756263  1.0000
  H   H68       1.0  0.13779814918524383  0.3169604420456765  0.79736328851984  1.0000
  H   H69       1.0  0.6832759521416422  0.8209266967703429  0.4641218654136949  1.0000
  H   H70       1.0  0.8209633269152974  0.13767755622915023  0.6306971595731029  1.0000
  H   H71       1.0  0.8622034421577  0.6830411709399516  0.2973637554260193  1.0000
  H   H72       1.0  0.31672447539347093  0.1790730125771206  0.9641225667819243  1.0000
  H   H73       1.0  0.6512872366591722  0.542373417805834  0.97063198993947  1.0000
  H   H74       1.0  0.45767157321882473  0.10899296329188256  0.6373562528539196  1.0000
  H   H75       1.0  0.891144322197192  0.3488012657712857  0.3040672454586471  1.0000
  H   H76       1.0  0.3487124642189842  0.457624966955571  0.4706322867092467  1.0000
  H   H77       1.0  0.5423286997579806  0.8910068809351016  0.1373569004401958  1.0000
  H   H78       1.0  0.10885265578813384  0.6511957282931748  0.8040685295296157  1.0000
  H   H79       1.0  0.7377888764102707  0.687721885557636  0.959512860633268  1.0000
  H   H80       1.0  0.312338283230396  0.050212899007775084  0.6261983247047526  1.0000
  H   H81       1.0  0.9500823650464056  0.2623819010416853  0.2929805832272052  1.0000
  H   H82       1.0  0.26220852930541844  0.3122777674099596  0.4595107366323248  1.0000
  H   H83       1.0  0.6876616883095112  0.9497872459119778  0.1261985323702675  1.0000
  H   H84       1.0  0.04991592974894842  0.7376158273244116  0.7929798178291564  1.0000
  H   H85       1.0  0.892234372902024  0.6843463812805695  0.1094559243279392  1.0000
  H   H86       1.0  0.3157408594893027  0.20812647299840864  0.7760482631698196  1.0000
  H   H87       1.0  0.7920980426375764  0.10778719426321023  0.4427598591790556  1.0000
  H   H88       1.0  0.10776426866421222  0.31565304082516127  0.6094554405040498  1.0000
  H   H89       1.0  0.684259775247007  0.79187301789365  0.2760480704412203  1.0000
  H   H90       1.0  0.20790067720833613  0.8922131953446242  0.942757132051753  1.0000
  H   H91       1.0  0.8072717424893697  0.538666561689006  0.1177742851106842  1.0000
  H   H92       1.0  0.46143284489438946  0.268732731171852  0.7844515775468253  1.0000
  H   H93       1.0  0.7313005283952664  0.19269605867646078  0.4510732492638851  1.0000
  H   H94       1.0  0.1927280876482768  0.46133167263494096  0.6177747479013219  1.0000
  H   H95       1.0  0.5385683067643823  0.7312672691574419  0.28445182559880067  1.0000
  H   H96       1.0  0.2686981953832019  0.8073043274995161  0.9510720807962443  1.0000
  H   H97       1.0  0.39325395686236664  0.8183545685389434  0.0256438038268243  1.0000
  H   H98       1.0  0.18166303341219248  0.5748899669690886  0.6922194872113394  1.0000
  H   H99       1.0  0.4252579947727639  0.6068353127137912  0.3589324489500996  1.0000
  H   H100      1.0  0.6067468555933431  0.18164472962580913  0.5256441834415781  1.0000
  H   H101      1.0  0.8183376990910887  0.425111472598296  0.1922181155085738  1.0000
  H   H102      1.0  0.5747445141694811  0.3931653865968841  0.8589326856490445  1.0000
  H   H103      1.0  0.403920777400522  0.7881512442833697  0.0949515569770298  1.0000
  H   H104      1.0  0.2119217228671816  0.6158375538668184  0.7614908898990008  1.0000
  H   H105      1.0  0.3843309654760816  0.5961664277135982  0.42820973803905094  1.0000
  H   H106      1.0  0.5960791793596343  0.21184891353432533  0.5949509305571183  1.0000
  H   H107      1.0  0.7880782332942857  0.3841636402883355  0.26148952439753254  1.0000
  H   H108      1.0  0.6156702541793777  0.4038335132765385  0.9282095015603956  1.0000
  H   H109      1.0  0.3846363981098193  0.6204139520493257  0.9676808678348223  1.0000
  H   H110      1.0  0.3796723395808856  0.7643445580090501  0.6344884901058023  1.0000
  H   H111      1.0  0.23580008774369077  0.6153762234778384  0.3010172589199627  1.0000
  H   H112      1.0  0.615363734949355  0.37958605191623473  0.4676808763739402  1.0000
  H   H113      1.0  0.6203276358800807  0.23565558348888524  0.13448809497485567  1.0000
  H   H114      1.0  0.7641999664841562  0.38462384928203636  0.8010156481129016  1.0000
  H   H115      1.0  0.4139860275258656  0.6885936209031344  0.0203658909796118  1.0000
  H   H116      1.0  0.31142106309147277  0.7254203104327248  0.6870942309866024  1.0000
  H   H117      1.0  0.2746007408720958  0.5859704427156276  0.3536736034241629  1.0000
  H   H118      1.0  0.5860136771673154  0.31140575870833237  0.5203656912539856  1.0000
  H   H119      1.0  0.6885789372515917  0.2745798093511599  0.18709336219377803  1.0000
  H   H120      1.0  0.7253991214737708  0.41402879931592906  0.8536734255770212  1.0000
  C   C1        1.0  0.9053440282448121  0.9282741783682695  0.0026082841500568  1.0000
  C   C2        1.0  0.07180776271094688  0.9771321643170768  0.6692053035013643  1.0000
  C   C3        1.0  0.022953021193295294  0.09470878448605902  0.3358570700069238  1.0000
  C   C4        1.0  0.09465537189004182  0.07172550465996612  0.50260842670626  1.0000
  C   C5        1.0  0.9281927421185828  0.022868475756666916  0.1692052144650589  1.0000
  C   C6        1.0  0.9770470495141194  0.905291273892459  0.8358577342143433  1.0000
  C   C7        1.0  0.9033457054624211  0.9964171808263563  0.9943481207221865  1.0000
  C   C8        1.0  0.0036780460653674085  0.9069298773988663  0.66105881740841  1.0000
  C   C9        1.0  0.0931273179956804  0.09671262060009413  0.3276943998478075  1.0000
  C   C10       1.0  0.09665422342160208  0.0035820031388596003  0.4943475533642641  1.0000
  C   C11       1.0  0.9963226716993957  0.0930715750304858  0.16105872731010612  1.0000
  C   C12       1.0  0.9068727488507164  0.9032874411478532  0.8276945328915134  1.0000
  C   C13       1.0  0.8635335690428929  0.10547140201732932  0.9914115891258319  1.0000
  C   C14       1.0  0.8946231390991103  0.7580252234479591  0.6582647375529689  1.0000
  C   C15       1.0  0.24202403122630753  0.1364939392195694  0.3248524173967909  1.0000
  C   C16       1.0  0.136466279081368  0.8945288882400887  0.4914105226075094  1.0000
  C   C17       1.0  0.10537787350308754  0.24197593404784365  0.1582640354971758  1.0000
  C   C18       1.0  0.757975954905035  0.8635072287815575  0.8248519950815308  1.0000
  C   C19       1.0  0.9441957685123014  0.1452524746661439  0.9862014047408536  1.0000
  C   C20       1.0  0.8548091551304677  0.7988644667784757  0.6529332358376863  1.0000
  C   C21       1.0  0.20114278790057227  0.05583586727053814  0.3197016457796238  1.0000
  C   C22       1.0  0.055804452677641635  0.8547464165747062  0.486201296098038  1.0000
  C   C23       1.0  0.14519207173844964  0.20113750191097785  0.1529325811804654  1.0000
  C   C24       1.0  0.7988585972191303  0.9441649275020655  0.819699236151621  1.0000
  C   C25       1.0  0.9523608825298594  0.827313402786949  0.0264600384244034  1.0000
  C   C26       1.0  0.17266916311735517  0.12513374546070116  0.6931888868334823  1.0000
  C   C27       1.0  0.8749370448868915  0.04766774792609158  0.3598676444115299  1.0000
  C   C28       1.0  0.04763523441275913  0.17268238396683708  0.526461567130518  1.0000
  C   C29       1.0  0.8273326751105827  0.8748676144383724  0.19318823864998083  1.0000
  C   C30       1.0  0.12506230744103436  0.952330978642806  0.8598672883346694  1.0000
  C   C31       1.0  0.8715504492457382  0.7827949821494613  0.0251018707365631  1.0000
  C   C32       1.0  0.217262866205111  0.0889311105256354  0.6917153642986094  1.0000
  C   C33       1.0  0.9112304567841178  0.1284731797487239  0.3584318935346076  1.0000
  C   C34       1.0  0.128446317419332  0.21720323214437806  0.5251009658204069  1.0000
  C   C35       1.0  0.7827387545372559  0.911069440988797  0.1917141776033802  1.0000
  C   C36       1.0  0.08876778959817229  0.8715256266813328  0.8584291083927624  1.0000
  C   C37       1.0  0.7093455502838212  0.20223743464826088  0.0014010250837444  1.0000
  C   C38       1.0  0.7977888539227891  0.5070759560164576  0.6681848278040121  1.0000
  C   C39       1.0  0.49298185577563197  0.29059595507296626  0.3347955691131261  1.0000
  C   C40       1.0  0.2906553881227296  0.7977637875963879  0.5014003661593591  1.0000
  C   C41       1.0  0.20220922310360845  0.49292403402162693  0.16818452658552022  1.0000
  C   C42       1.0  0.5070181350593259  0.7094052088234195  0.8347975445103799  1.0000
  C   C43       1.0  0.7737786867775327  0.23482113157881201  0.9576780682188115  1.0000
  C   C44       1.0  0.7652505343261566  0.5389734717753712  0.6244753310629463  1.0000
  C   C45       1.0  0.46112945533831606  0.22612775171808155  0.2911111427761242  1.0000
  C   C46       1.0  0.22622268423401692  0.7651807113206458  0.4576776214419596  1.0000
  C   C47       1.0  0.23474655417773962  0.4610285296457236  0.1244750677132345  1.0000
  C   C48       1.0  0.5388700018865079  0.7738729173040186  0.7911130991138364  1.0000
  C   C49       1.0  0.8239923408202614  0.20367775001331276  0.9539861246283649  1.0000
  C   C50       1.0  0.7964276198111263  0.6203264137398534  0.6208319596980232  1.0000
  C   C51       1.0  0.37976124617802753  0.17593361806964233  0.2874309504754677  1.0000
  C   C52       1.0  0.1760074896020997  0.7963225556921574  0.4539856300164474  1.0000
  C   C53       1.0  0.20356997991711984  0.37967610209108943  0.12083172570957149  1.0000
  C   C54       1.0  0.6202379131469301  0.8240673485585291  0.7874329252825802  1.0000
  C   C55       1.0  0.8115693061295773  0.13967789854709198  0.9943164287735372  1.0000
  C   C56       1.0  0.8604051719578578  0.6718614952354758  0.6612049710545804  1.0000
  C   C57       1.0  0.3281923983551991  0.18842605302398854  0.3277199751140998  1.0000
  C   C58       1.0  0.18843003042091763  0.8603218776054078  0.4943149218994023  1.0000
  C   C59       1.0  0.13959444061027432  0.3281400364014076  0.161205711660962  1.0000
  C   C60       1.0  0.6718083188690541  0.8115764356920537  0.8277214965957568  1.0000
  C   C61       1.0  0.74671834232079  0.10737345375579835  0.0378223552914463  1.0000
  C   C62       1.0  0.8926473205312316  0.6392651215562211  0.7047293539686734  1.0000
  C   C63       1.0  0.3607530479401929  0.2533288414886314  0.3711775510216313  1.0000
  C   C64       1.0  0.2532818042059191  0.8926275366363045  0.5378211276978534  1.0000
  C   C65       1.0  0.10735209583566527  0.36073558312166654  0.2047320205437302  1.0000
  C   C66       1.0  0.6392468807325713  0.7466734124702795  0.8711795824189467  1.0000
  C   C67       1.0  0.6965232669720366  0.13849928688742358  0.0416728978425098  1.0000
  C   C68       1.0  0.8614994944205139  0.557937290968667  0.7085219949348556  1.0000
  C   C69       1.0  0.4420752233476363  0.303494119488569  0.375028617727736  1.0000
  C   C70       1.0  0.30347688137608514  0.861501701915174  0.5416722090811703  1.0000
  C   C71       1.0  0.13850021989919983  0.44206311605692866  0.20852365010947688  1.0000
  C   C72       1.0  0.5579252994648624  0.6965075407068326  0.8750301396475777  1.0000
  C   C73       1.0  0.6539738746528555  0.23283247837321144  0.004779697563776601  1.0000
  C   C74       1.0  0.7671749873668149  0.4211000984017802  0.6714358769721614  1.0000
  C   C75       1.0  0.5789330979740938  0.3460295240081451  0.3381055333369716  1.0000
  C   C76       1.0  0.3460273615109629  0.7671684463898034  0.5047790891901798  1.0000
  C   C77       1.0  0.23282147298394315  0.5788994566562168  0.1714365253855945  1.0000
  C   C78       1.0  0.42106667763809463  0.653970829528909  0.838107981657906  1.0000
  C   C79       1.0  0.11106107122326844  0.3937701601861008  0.9808038120828825  1.0000
  C   C80       1.0  0.6062926606988482  0.7174245407013374  0.64741855866896  1.0000
  C   C81       1.0  0.28285725519275223  0.8889989364353  0.31421429462768913  1.0000
  C   C82       1.0  0.8889396603615507  0.6062292461884695  0.48080483080576647  1.0000
  C   C83       1.0  0.39370915588023087  0.2825768380901935  0.1474189846124503  1.0000
  C   C84       1.0  0.7171439105434416  0.11100105160895878  0.8142137986482182  1.0000
  C   C85       1.0  0.11990079649447698  0.34104473636788424  0.9396815284033622  1.0000
  C   C86       1.0  0.6591125097689954  0.7790529751170541  0.6063821826232143  1.0000
  C   C87       1.0  0.22123267904337504  0.880159402418812  0.273151390560308  1.0000
  C   C88       1.0  0.8800982974262439  0.6589542533427493  0.4396830020120391  1.0000
  C   C89       1.0  0.3408895835592745  0.22094812452612442  0.1063826136144215  1.0000
  C   C90       1.0  0.7787678749519814  0.11984119474902857  0.7731509256818329  1.0000
  C   C91       1.0  0.06451973051429857  0.2607545681693892  0.9410180877884287  1.0000
  C   C92       1.0  0.7393852405995531  0.8038415950960885  0.6077216972392067  1.0000
  C   C93       1.0  0.19630889966183676  0.9355186835991847  0.274548805412671  1.0000
  C   C94       1.0  0.9354796601978776  0.739244124902449  0.44102003792983885  1.0000
  C   C95       1.0  0.2606172869392438  0.19616112198013988  0.10772209550340509  1.0000
  C   C96       1.0  0.8036929770485842  0.06448264271708846  0.7745469146270808  1.0000
  C   C97       1.0  0.998927519308701  0.231104014238028  0.9835935968414163  1.0000
  C   C98       1.0  0.7689430723631573  0.7677468176790399  0.6502267261469044  1.0000
  C   C99       1.0  0.23228092542498047  0.0011063777634560783  0.3171154769747559  1.0000
  C   C100      1.0  0.0010727006481162055  0.768894878078946  0.48359497938419344  1.0000
  C   C101      1.0  0.23105917912099017  0.23225617793942632  0.1502265948158623  1.0000
  C   C102      1.0  0.7677207546306236  0.9988941219896578  0.8171130169091754  1.0000
  C   C103      1.0  0.990136478214538  0.2845110544677712  0.0244617637683149  1.0000
  C   C104      1.0  0.7154276851837905  0.7054762017564685  0.6909900959341044  1.0000
  C   C105      1.0  0.2945233878359659  0.009893352536849366  0.3579358181394597  1.0000
  C   C106      1.0  0.009864333681910973  0.7154882441850249  0.5244614787842395  1.0000
  C   C107      1.0  0.2845748817403689  0.2945264809490454  0.1909899595885634  1.0000
  C   C108      1.0  0.7054780153684989  0.990107426453591  0.8579343086145529  1.0000
  C   C109      1.0  0.04537983307101003  0.3649154983310298  0.0228121311603289  1.0000
  C   C110      1.0  0.6350381100192235  0.6803930804495834  0.6893147247700782  1.0000
  C   C111      1.0  0.3197303903764424  0.954683032667177  0.3562209121414881  1.0000
  C   C112      1.0  0.9546215703635211  0.6350832088286609  0.522811958621446  1.0000
  C   C113      1.0  0.36496423932413796  0.31960879395439434  0.1893151120658487  1.0000
  C   C114      1.0  0.6802702822810147  0.045316425131964905  0.856220432978411  1.0000
  C   C115      1.0  0.17340000099751762  0.47874823137638606  0.9807375180267144  1.0000
  C   C116      1.0  0.5213476155248813  0.6949202261635251  0.6474180492416579  1.0000
  C   C117      1.0  0.305431144876124  0.8266179156312533  0.3140950020928912  1.0000
  C   C118      1.0  0.8266000008197169  0.5212498531266904  0.48073805887000276  1.0000
  C   C119      1.0  0.47865530631992936  0.30508107336017803  0.14741851200325584  1.0000
  C   C120      1.0  0.6945708299103116  0.17338228928132082  0.8140939652121375  1.0000
  C   C121      1.0  0.12636348899892633  0.7602937991498637  0.0673169666928217  1.0000
  C   C122      1.0  0.2397793784790139  0.36618004770662793  0.7339355085499123  1.0000
  C   C123      1.0  0.6338958026282809  0.8736212508791611  0.40081090224582283  1.0000
  C   C124      1.0  0.8736334563754654  0.23970218755843598  0.5673179604220095  1.0000
  C   C125      1.0  0.7602223996514111  0.6338224004531556  0.2339359442771354  1.0000
  C   C126      1.0  0.3661045949606533  0.12637848460165918  0.9008096995259008  1.0000
  C   C127      1.0  0.06453636045266355  0.7151398029528053  0.023310417782028  1.0000
  C   C128      1.0  0.28489716249292485  0.349433626342254  0.6899412582542724  1.0000
  C   C129      1.0  0.6505631549342966  0.9354744080775821  0.3568259498718547  1.0000
  C   C130      1.0  0.9354610770549812  0.2848567148257077  0.5233133855045081  1.0000
  C   C131      1.0  0.7151043780401024  0.6505680309840259  0.1899421486104487  1.0000
  C   C132      1.0  0.3494366295316809  0.06452593773296668  0.8568247736185981  1.0000
  C   C133      1.0  0.007312397490487404  0.7357538766541225  0.009680705556768  1.0000
  C   C134      1.0  0.2641973271711962  0.2715753847585135  0.6763714899101033  1.0000
  C   C135      1.0  0.7284077790336312  0.992672590732781  0.3431805540937134  1.0000
  C   C136      1.0  0.9926837908865237  0.2642408119455055  0.5096832280477486  1.0000
  C   C137      1.0  0.7358042069431646  0.7284262781691953  0.1763713647487464  1.0000
  C   C138      1.0  0.2715919989782734  0.007327760710097756  0.8431798565724478  1.0000
  C   C139      1.0  0.010719083606794376  0.8022473250516883  0.0399554098457102  1.0000
  C   C140      1.0  0.1977098231101806  0.20854947561264237  0.7067016966888815  1.0000
  C   C141      1.0  0.7915230049101184  0.989292716370969  0.3734322185887535  1.0000
  C   C142      1.0  0.9892767435599126  0.19774875221857993  0.5399569872964848  1.0000
  C   C143      1.0  0.8022909162435212  0.7914519579765413  0.2067020647264215  1.0000
  C   C144      1.0  0.2084762744632371  0.01070710967871955  0.8734324639577125  1.0000
  C   C145      1.0  0.07362473830120583  0.848134494631019  0.0832357426142565  1.0000
  C   C146      1.0  0.15188084943561364  0.22562944519715708  0.7499785687641349  1.0000
  C   C147      1.0  0.7745114195701532  0.9263917945544762  0.4166884998318068  1.0000
  C   C148      1.0  0.9263685445986667  0.1518590002444853  0.583237309940408  1.0000
  C   C149      1.0  0.8481202065472004  0.774371674441362  0.249979955842754  1.0000
  C   C150      1.0  0.2254881764225658  0.07360771755305255  0.9166897003588801  1.0000
  C   C151      1.0  0.13047659037939516  0.8270636524178486  0.0970667724165608  1.0000
  C   C152      1.0  0.1729948953589543  0.30358028705293105  0.7637339421662617  1.0000
  C   C153      1.0  0.69657586516999  0.8695142832649554  0.43052490165492685  1.0000
  C   C154      1.0  0.8695193431714544  0.17293129619841366  0.5970687849259164  1.0000
  C   C155      1.0  0.8270055748117571  0.6964214190817587  0.263735362535634  1.0000
  C   C156      1.0  0.3034245464737211  0.13048543995058282  0.9305246416549764  1.0000
  C   C157      1.0  0.18818613564463496  0.7384588609182218  0.0815467051406031  1.0000
  C   C158      1.0  0.2617064072775365  0.4498663563893715  0.7481141383882175  1.0000
  C   C159      1.0  0.550228323790705  0.8117584804043646  0.4149915077566463  1.0000
  C   C160      1.0  0.8118120591440885  0.26153895472138805  0.5815476496589014  1.0000
  C   C161      1.0  0.7382952981887456  0.5501371909977452  0.24811510131016948  1.0000
  C   C162      1.0  0.44977208050534045  0.18824124922330301  0.9149893359788734  1.0000
  C   C163      1.0  0.7243148634287309  0.530615967534942  0.0442123382964468  1.0000
  C   C164      1.0  0.4694378800186173  0.193783413438439  0.7109314136993136  1.0000
  C   C165      1.0  0.8062874292386581  0.2757009189858481  0.3775687714006395  1.0000
  C   C166      1.0  0.2756856616505346  0.46938361905232295  0.544212354193661  1.0000
  C   C167      1.0  0.5305614018634373  0.8062153746069641  0.21093161307442193  1.0000
  C   C168      1.0  0.19371112235538845  0.724297583457215  0.877570062559336  1.0000
  C   C169      1.0  0.7047720497293  0.5736175608369011  0.0002465305089885  1.0000
  C   C170      1.0  0.4264405497177747  0.13124330414935054  0.6669621928313774  1.0000
  C   C171      1.0  0.8689204282313838  0.2953240496965322  0.3336746833529816  1.0000
  C   C172      1.0  0.29522713249984633  0.4263813141733338  0.5002460921184523  1.0000
  C   C173      1.0  0.5735590075262492  0.8687552059582871  0.1669623808405518  1.0000
  C   C174      1.0  0.13107605081033588  0.7046724192409572  0.8336754581234516  1.0000
  C   C175      1.0  0.75277549006519  0.6551897332320564  0.9948092427664791  1.0000
  C   C176      1.0  0.3448762005660271  0.09771538734236172  0.6614897783481339  1.0000
  C   C177      1.0  0.9025234394749474  0.24735876748071228  0.3282474807056985  1.0000
  C   C178      1.0  0.2472222285047607  0.34480960907909974  0.4948075818771828  1.0000
  C   C179      1.0  0.6551238670372257  0.9022836379301112  0.1614899947182877  1.0000
  C   C180      1.0  0.0974738461062898  0.7526379205161576  0.8282472255180338  1.0000
  C   C181      1.0  0.822016865009772  0.6967223523163643  0.03296897853927311  1.0000
  C   C182      1.0  0.3033405510234317  0.12546538230743928  0.6996109551368761  1.0000
  C   C183      1.0  0.874754907245247  0.17805993723518299  0.3663534684396197  1.0000
  C   C184      1.0  0.17798063511215645  0.3032771806294151  0.5329665792468319  1.0000
  C   C185      1.0  0.6966603437174897  0.8745338440488697  0.19961023020511703  1.0000
  C   C186      1.0  0.12524304672498934  0.8219391620118727  0.8663517158984533  1.0000
  C   C187      1.0  0.8407478497912065  0.653346647850107  0.0776610024421913  1.0000
  C   C188      1.0  0.3467282737655282  0.18757621660812157  0.7443098296193469  1.0000
  C   C189      1.0  0.8126071308250715  0.1592974581683606  0.41100617983826737  1.0000
  C   C190      1.0  0.15925099352446634  0.34665359637283905  0.5776595487145144  1.0000
  C   C191      1.0  0.6532721291701905  0.8124224783916817  0.2443096065904413  1.0000
  C   C192      1.0  0.18739165337256486  0.8407018394661918  0.9110049439046222  1.0000
  C   C193      1.0  0.7930100044460316  0.5717654073753523  0.082643376232582  1.0000
  C   C194      1.0  0.4283108567310522  0.22136695367660772  0.7493359082861346  1.0000
  C   C195      1.0  0.7787318544498733  0.20701181756105333  0.4159836096052913  1.0000
  C   C196      1.0  0.20698972970397728  0.42823394652980806  0.5826428847985525  1.0000
  C   C197      1.0  0.5716892524228073  0.7786320353355836  0.2493356570394951  1.0000
  C   C198      1.0  0.2212667153139377  0.7929866690256658  0.9159838946616788  1.0000
  C   C199      1.0  0.6723849842176863  0.4437900618833056  0.05117842681192291  1.0000
  C   C200      1.0  0.5562763169676828  0.22868935199300483  0.7178832678338409  1.0000
  C   C201      1.0  0.7713113414759005  0.32756223565737497  0.3844636265615833  1.0000
  C   C202      1.0  0.3276171623704442  0.5562099554662084  0.551179895413064  1.0000
  C   C203      1.0  0.44372429025710847  0.7713101629077315  0.21788392756932498  1.0000
  C   C204      1.0  0.2286882392746676  0.6724372897516349  0.8844649687355499  1.0000
  S   S1        1.0  0.8163701584334788  0.0014555379794317738  0.9924776067386816  1.0000
  S   S2        1.0  0.9986578562189549  0.814926008299281  0.6593101297125941  1.0000
  S   S3        1.0  0.1851751825994796  0.18366759864920115  0.3258236212611791  1.0000
  S   S4        1.0  0.1836289604586411  0.9985434299392183  0.4924755249422432  1.0000
  S   S5        1.0  0.001343453037087291  0.18507485267780774  0.1593103818114585  1.0000
  S   S6        1.0  0.8148239948847902  0.8163333521317571  0.8258247331459643  1.0000
  S   S7        1.0  0.98970689444635  0.087462156880747  0.9820646048915832  1.0000
  S   S8        1.0  0.9125936828160376  0.9021559798946158  0.6487752785668519  1.0000
  S   S9        1.0  0.0978308212459424  0.010355083538840425  0.315490654722872  1.0000
  S   S10       1.0  0.010292002732917896  0.9125360063423218  0.4820663996258929  1.0000
  S   S11       1.0  0.08740835119287739  0.0978462073301998  0.1487741594539216  1.0000
  S   S12       1.0  0.9021698321456453  0.9896443910731846  0.8154872972136219  1.0000
  S   S13       1.0  0.9946224107067465  0.92763947704691  0.0071300992606425  1.0000
  S   S14       1.0  0.0723363718798353  0.06699368487456782  0.6738339102241824  1.0000
  S   S15       1.0  0.933026313714187  0.005429882081394295  0.3404449492380124  1.0000
  S   S16       1.0  0.005375907625200706  0.07235615914935781  0.5071331349862191  1.0000
  S   S17       1.0  0.9276649442457838  0.9330071701076009  0.1738337780347337  1.0000
  S   S18       1.0  0.06697243710893032  0.994569444678348  0.8404460072359186  1.0000
  S   S19       1.0  0.820876027733377  0.834445858745831  0.0082756214158266  1.0000
  S   S20       1.0  0.16570863271057593  0.9866568513866839  0.674690986153827  1.0000
  S   S21       1.0  0.013525655920339826  0.17913102783165877  0.3414094787769528  1.0000
  S   S22       1.0  0.1791206516019557  0.16555346757367317  0.5082733035795215  1.0000
  S   S23       1.0  0.8342921708727998  0.013343490335735616  0.174690847413018  1.0000
  S   S24       1.0  0.9864747135721642  0.8208687321682718  0.8414087250000007  1.0000
  O   O1        1.0  0.60322722641164  0.21126930649978698  0.0517676967510567  1.0000
  O   O2        1.0  0.7887097536295187  0.39183761231232256  0.718377252948251  1.0000
  O   O3        1.0  0.6081164196925997  0.3968437360890107  0.3850385407664234  1.0000
  O   O4        1.0  0.3967727099230415  0.7887308691427678  0.5517680876469342  1.0000
  O   O5        1.0  0.21128805097890788  0.608162653094368  0.21837885355389372  1.0000
  O   O6        1.0  0.3918825690114927  0.6031563812567596  0.8850395286540689  1.0000
  O   O7        1.0  0.6551498004458624  0.2814857392107868  0.9615089453278286  1.0000
  O   O8        1.0  0.7185835563048997  0.3737166206840714  0.6280872972962541  1.0000
  O   O9        1.0  0.6263934425613583  0.34488828678319555  0.2947918306858384  1.0000
  O   O10       1.0  0.34485084264169785  0.7185147802083096  0.46150908679381786  1.0000
  O   O11       1.0  0.2814128041716516  0.6262840573468582  0.1280884375460474  1.0000
  O   O12       1.0  0.37360725908816056  0.6551142155245558  0.7947937593725386  1.0000
  O   O13       1.0  0.23490187062252937  0.49858111178906495  0.9450974492425884  1.0000
  O   O14       1.0  0.5015891656536412  0.7367906216556722  0.6119684652174087  1.0000
  O   O15       1.0  0.2635653589272949  0.7650564617468377  0.2785688430212687  1.0000
  O   O16       1.0  0.7650978181778639  0.5014172835123248  0.445097474486559  1.0000
  O   O17       1.0  0.4984131471050546  0.2632112846749097  0.1119674911176816  1.0000
  O   O18       1.0  0.7364368952146306  0.2349434617429227  0.7785677946823384  1.0000
  O   O19       1.0  0.16546092097210877  0.5280437523543925  0.0162516215470063  1.0000
  O   O20       1.0  0.472008414537953  0.6375829116939541  0.6828224437640387  1.0000
  O   O21       1.0  0.36277274777709306  0.8345522694717502  0.3494640555541224  1.0000
  O   O22       1.0  0.8345388611459795  0.4719545238751338  0.5162524560236008  1.0000
  O   O23       1.0  0.5279952537888165  0.3624196951149872  0.18282191990861213  1.0000
  O   O24       1.0  0.6372300528455028  0.1654481376604765  0.849462989563193  1.0000
  O   O25       1.0  0.19020663305226995  0.6861576370432872  0.045942975363324506  1.0000
  O   O26       1.0  0.31424885862414  0.5041735233796133  0.7126508234870954  1.0000
  O   O27       1.0  0.49590627173891727  0.8098542894413043  0.3794545251158539  1.0000
  O   O28       1.0  0.8097925707915934  0.3138412191042763  0.5459448700503701  1.0000
  O   O29       1.0  0.6857543108638781  0.49582855821084615  0.21265129630793922  1.0000
  O   O30       1.0  0.5040941157484652  0.19014545485490686  0.879452875225965  1.0000
  O   O31       1.0  0.23567877260622067  0.7746977681616727  0.1293743577984898  1.0000
  O   O32       1.0  0.22530828184909513  0.46117347253989033  0.7957866118385085  1.0000
  O   O33       1.0  0.5389390800264239  0.7641301993679904  0.4627140897631961  1.0000
  O   O34       1.0  0.7643173930140393  0.22529797611224486  0.6293748045900003  1.0000
  O   O35       1.0  0.7746916111641652  0.5388288125382561  0.295788584861846  1.0000
  O   O36       1.0  0.4610624521082157  0.2358694312930397  0.9627123877142908  1.0000
  O   O37       1.0  0.6130232462713607  0.40765123078342935  0.0112109935146307  1.0000
  O   O38       1.0  0.5923794830693793  0.2054371037317609  0.6779173319186285  1.0000
  O   O39       1.0  0.7945243818772454  0.38687882151270264  0.34444414162721415  1.0000
  O   O40       1.0  0.3869774799870455  0.5923491784187291  0.5112114938343524  1.0000
  O   O41       1.0  0.40761948703814005  0.7945619940278307  0.177917956756076  1.0000
  O   O42       1.0  0.20547539673281526  0.6131215294081757  0.8444455049258437  1.0000
  O   O43       1.0  0.6859158298189597  0.4059178709747329  0.0954034890513142  1.0000
  O   O44       1.0  0.5941601447467876  0.28013315401501176  0.7620724667032945  1.0000
  O   O45       1.0  0.7198639632075936  0.3140253769059458  0.42865625531744916  1.0000
  O   O46       1.0  0.314086930005807  0.5940815359458398  0.5954054184891646  1.0000
  O   O47       1.0  0.4058394574839709  0.719865316833726  0.2620731343071157  1.0000
  O   O48       1.0  0.2801363681818429  0.6859754521606619  0.9286571288262309  1.0000
  O   O49       1.0  0.3909186465820512  0.7731549940816792  0.0478309747698233  1.0000
  O   O50       1.0  0.22689286484768453  0.6177638088061884  0.7143747301302027  1.0000
  O   O51       1.0  0.3824105525882472  0.609232964354618  0.3810999532693273  1.0000
  O   O52       1.0  0.6090832022630935  0.2268453207369989  0.5478303472100947  1.0000
  O   O53       1.0  0.7731060218093687  0.38224050321803565  0.21437384796035994  1.0000
  O   O54       1.0  0.6175914538913504  0.39076721290005906  0.8810997255860755  1.0000
  O   O55       1.0  0.3754393451890363  0.6325812970049257  0.013088512039914199  1.0000
  O   O56       1.0  0.36746398355126086  0.7429470707539992  0.6798792176670148  1.0000
  O   O57       1.0  0.2571497838950664  0.6245297200478106  0.34643057424836604  1.0000
  O   O58       1.0  0.6245608690097414  0.3674185985163092  0.513088793174937  1.0000
  O   O59       1.0  0.6325369599036179  0.2570551829000822  0.1798778351363879  1.0000
  O   O60       1.0  0.7428508841315778  0.37546974179252884  0.8464299382763514  1.0000
