data_image0
_chemical_formula_structural       Cd2H26C36N8O8
_chemical_formula_sum              "Cd2 H26 C36 N8 O8"
_cell_length_a       9.845992282398148
_cell_length_b       10.39906646490947
_cell_length_c       10.701275772321393
_cell_angle_alpha    61.28347407630025
_cell_angle_beta     65.06612579344298
_cell_angle_gamma    76.37437431426166

_space_group_name_H-M_alt    "P 1"
_space_group_IT_number       1

loop_
  _space_group_symop_operation_xyz
  'x, y, z'

loop_
  _atom_site_type_symbol
  _atom_site_label
  _atom_site_symmetry_multiplicity
  _atom_site_fract_x
  _atom_site_fract_y
  _atom_site_fract_z
  _atom_site_occupancy
  Cd  Cd1       1.0  0.6140437789346862  0.9938929484732101  0.6317993198023544  1.0000
  Cd  Cd2       1.0  0.3859571580966445  0.006106324675506903  0.36819949456024403  1.0000
  H   H1        1.0  0.9729032860344302  0.920032350147139  0.8312818292524823  1.0000
  H   H2        1.0  0.02709197568459841  0.07996921362401821  0.168719947994397  1.0000
  H   H3        1.0  0.1025439480736381  0.5677221370308771  0.19601921782511056  1.0000
  H   H4        1.0  0.8974546753568474  0.43227937987934706  0.8039812909432555  1.0000
  H   H5        1.0  0.7299444906421756  0.5252403467453207  0.10449579150134969  1.0000
  H   H6        1.0  0.2700553144682162  0.47475895997956746  0.8955053105589029  1.0000
  H   H7        1.0  0.14396307697904828  0.8303092177962625  0.17967176398669682  1.0000
  H   H8        1.0  0.8560367338065619  0.16969007995069768  0.8203284056378092  1.0000
  H   H9        1.0  0.404980905885722  0.9806159522258898  0.9992370143677645  1.0000
  H   H10       1.0  0.5950212625844528  0.0193789341283335  0.0007652742762687204  1.0000
  H   H11       1.0  0.27912587597774774  0.8749554603070067  0.7288142535685153  1.0000
  H   H12       1.0  0.7208739291326367  0.12504384641788138  0.27118684849173746  1.0000
  H   H13       1.0  0.09481416255970031  0.3391212995717581  0.3351802144958426  1.0000
  H   H14       1.0  0.9051855757660546  0.6608802106960852  0.6648208038820941  1.0000
  H   H15       1.0  0.9509937510822584  0.08716964882962229  0.5676180420166472  1.0000
  H   H16       1.0  0.049007096463526495  0.9128318637737682  0.43238441840660596  1.0000
  H   H17       1.0  0.659560737671363  0.3502367665241054  0.3347211427014969  1.0000
  H   H18       1.0  0.34044022423943693  0.6497614183200325  0.6652791121558722  1.0000
  H   H19       1.0  0.6315373928787056  0.4325083314060407  0.6780453898579494  1.0000
  H   H20       1.0  0.368464670398339  0.5674909171444327  0.3219520692427267  1.0000
  H   H21       1.0  0.5582237028606586  0.7292681868462197  0.2591182216542902  1.0000
  H   H22       1.0  0.4417772036159633  0.2707321835850109  0.7408800846492767  1.0000
  H   H23       1.0  0.7727526980914234  0.7572332809011469  0.3009292922800172  1.0000
  H   H24       1.0  0.22724935951039535  0.242765976627254  0.6990690992564055  1.0000
  H   H25       1.0  0.8173603949898975  0.6281853144412608  0.46177455955443486  1.0000
  H   H26       1.0  0.182642783182402  0.37181392746683173  0.5382234091558189  1.0000
  C   C1        1.0  0.8402445149173587  0.7282010125276344  0.9620483901049609  1.0000
  C   C2        1.0  0.1597530128221223  0.2717994316983194  0.0379539819843515  1.0000
  C   C3        1.0  0.9563766642223044  0.8106372999342356  0.9252613493605821  1.0000
  C   C4        1.0  0.0436219840876575  0.18936312867140975  0.07474059990256167  1.0000
  C   C5        1.0  0.049821546616030304  0.7504134273743689  0.009571035396234532  1.0000
  C   C6        1.0  0.9501771073691643  0.2495869922533416  0.9904299814311557  1.0000
  C   C7        1.0  0.026735661653198406  0.6120393264291835  0.13333656354433276  1.0000
  C   C8        1.0  0.9732629617772945  0.3879621904810478  0.8666639452240331  1.0000
  C   C9        1.0  0.9091642687042667  0.5313866175826049  0.17032890589108254  1.0000
  C   C10       1.0  0.090834385280921  0.4686138020451054  0.8296721109363075  1.0000
  C   C11       1.0  0.818183414254662  0.5879423468557549  0.08279459268850785  1.0000
  C   C12       1.0  0.18181637165147183  0.41205803919579165  0.9172041364412278  1.0000
  C   C13       1.0  0.7403306052341493  0.7893365943815809  0.8688523643009775  1.0000
  C   C14       1.0  0.25966810986044914  0.21066163068110913  0.13114966864447544  1.0000
  C   C15       1.0  0.212903978575234  0.8600927643580151  0.060502043462704935  1.0000
  C   C16       1.0  0.7870947002894368  0.1399065669651236  0.9395004138594627  1.0000
  C   C17       1.0  0.3428975347991425  0.9346985229043342  0.9684851859358046  1.0000
  C   C18       1.0  0.6571011135108263  0.06530190570131109  0.03151676332733196  1.0000
  C   C19       1.0  0.28004374657194125  0.8859515453436443  0.8240127068340113  1.0000
  C   C20       1.0  0.7199560223085086  0.1140488676416851  0.17598881960295637  1.0000
  C   C21       1.0  0.9822319968355586  0.30763736320322016  0.372351402508457  1.0000
  C   C22       1.0  0.017767710935487506  0.6923652443471369  0.6276491078104482  1.0000
  C   C23       1.0  0.9113091080808575  0.18095665531869543  0.4849709881586149  1.0000
  C   C24       1.0  0.08869062456966502  0.8190448639270828  0.5150309626550608  1.0000
  C   C25       1.0  0.7588395369077432  0.31211497586473774  0.36456315364495134  1.0000
  C   C26       1.0  0.24116135254319462  0.6878854215002832  0.6354379499658406  1.0000
  C   C27       1.0  0.6090471924820093  0.5929770020403639  0.46344054175475696  1.0000
  C   C28       1.0  0.3909536834399106  0.4070244656733736  0.5365572564897718  1.0000
  C   C29       1.0  0.5742253893951529  0.46294947829135674  0.5990917980664108  1.0000
  C   C30       1.0  0.425775517081469  0.5370508921398737  0.4009065082371492  1.0000
  C   C31       1.0  0.5330080093401081  0.6284357320665066  0.3651701210300758  1.0000
  C   C32       1.0  0.4669928971365138  0.37156463836471704  0.6348281852734912  1.0000
  C   C33       1.0  0.7236401863788019  0.6920465424355413  0.4254600255513734  1.0000
  C   C34       1.0  0.2763629917934978  0.3079526994725513  0.5745379431588801  1.0000
  C   C35       1.0  0.6651350461157861  0.8027408076727908  0.49420248965983404  1.0000
  C   C36       1.0  0.3348692277475251  0.19725950691957186  0.5057936157294662  1.0000
  N   N1        1.0  0.3838246424544566  0.949554938642784  0.8218706177901468  1.0000
  N   N2        1.0  0.6161763443358268  0.050442157896767995  0.17813107756199284  1.0000
  N   N3        1.0  0.17399291360119665  0.8300462206402202  0.9669540142133994  1.0000
  N   N4        1.0  0.8260068552792603  0.16995419234510933  0.03304751222356821  1.0000
  N   N5        1.0  0.7725654394268987  0.1853952632417588  0.4788215135924076  1.0000
  N   N6        1.0  0.2274343600082602  0.8146040524610642  0.5211805209035913  1.0000
  N   N7        1.0  0.8845795979073259  0.3906163132498505  0.29572927177807173  1.0000
  N   N8        1.0  0.11542017097312403  0.6093840997354859  0.7042722546588962  1.0000
  O   O1        1.0  0.7361559334184307  0.9305381792675929  0.7950312213596219  1.0000
  O   O2        1.0  0.2638405462104245  0.06946006805779352  0.20497072480243617  1.0000
  O   O3        1.0  0.6723036480745676  0.7026258770742543  0.8674676389516377  1.0000
  O   O4        1.0  0.32769622382045327  0.2973712261076855  0.1325335467909383  1.0000
  O   O5        1.0  0.7637901135015854  0.864591904695182  0.4924735883554375  1.0000
  O   O6        1.0  0.23621179700193548  0.13541283026784612  0.5075213304500821  1.0000
  O   O7        1.0  0.5251398043905979  0.8307602050108969  0.547236452978744  1.0000
  O   O8        1.0  0.4748645135564473  0.1692379419502359  0.4527634658358508  1.0000
