data_image0
_chemical_formula_structural       Co2H28C44N24O8
_chemical_formula_sum              "Co2 H28 C44 N24 O8"
_cell_length_a       10.46358484801338
_cell_length_b       12.793325858093457
_cell_length_c       15.128308582286339
_cell_angle_alpha    90.00021856213499
_cell_angle_beta     89.99930360304039
_cell_angle_gamma    105.14382262715527

_space_group_name_H-M_alt    "P 1"
_space_group_IT_number       1

loop_
  _space_group_symop_operation_xyz
  'x, y, z'

loop_
  _atom_site_type_symbol
  _atom_site_label
  _atom_site_symmetry_multiplicity
  _atom_site_fract_x
  _atom_site_fract_y
  _atom_site_fract_z
  _atom_site_occupancy
  Co  Co1       1.0  0.9999980505656582  0.9999982772502348  0.5000011367484023  1.0000
  Co  Co2       1.0  0.5000004877831685  0.4999982280182707  4.9174438700000046e-08  1.0000
  H   H1        1.0  0.4833320102793905  0.4796386926252437  0.2221068718745159  1.0000
  H   H2        1.0  0.016689098991491805  0.0203730809695131  0.7221038219736615  1.0000
  H   H3        1.0  0.516673444587539  0.5203639216637652  0.7778966252593807  1.0000
  H   H4        1.0  0.9833092206274969  0.9796343137509852  0.2779056243094544  1.0000
  H   H5        1.0  0.24009252806776266  0.6026820891675088  0.053584284492743016  1.0000
  H   H6        1.0  0.2599072076703521  0.8973164043463697  0.5535830711433578  1.0000
  H   H7        1.0  0.759915766827348  0.3973173208411466  0.9464139245247485  1.0000
  H   H8        1.0  0.7400787601655807  0.10267876642124209  0.4464184430222603  1.0000
  H   H9        1.0  0.027237056181313262  0.5915043762643107  0.10594857285241943  1.0000
  H   H10       1.0  0.4727605200300857  0.90849010903095  0.6059469479615986  1.0000
  H   H11       1.0  0.9727637846175269  0.40849254390830225  0.8940502972044799  1.0000
  H   H12       1.0  0.5272358828372249  0.09151726836122981  0.3940552271927374  1.0000
  H   H13       1.0  0.8853829823540592  0.7831249717521446  0.29817896596605215  1.0000
  H   H14       1.0  0.6146153368574333  0.7168693865917959  0.7981783790779675  1.0000
  H   H15       1.0  0.11461885213421398  0.21687518734802316  0.7018152770049328  1.0000
  H   H16       1.0  0.3853841191859076  0.28313236598680896  0.20182115200489656  1.0000
  H   H17       1.0  0.23739712996200518  0.6782321895980415  0.3521729856947645  1.0000
  H   H18       1.0  0.2626007110376918  0.82176494971538  0.852172167519804  1.0000
  H   H19       1.0  0.7626023260871195  0.32176956298030746  0.6478258843756779  1.0000
  H   H20       1.0  0.7373945924397136  0.17822949794848603  0.1478319906555541  1.0000
  H   H21       1.0  0.7870185071840086  0.515015727883842  0.09299804093720353  1.0000
  H   H22       1.0  0.7129805317748038  0.9849784460009303  0.592995517144118  1.0000
  H   H23       1.0  0.2129830436160844  0.48498039121894  0.9070001681030181  1.0000
  H   H24       1.0  0.28701576543257096  0.015019240588699698  0.40699938685832404  1.0000
  H   H25       1.0  0.5934054374880019  0.762838141118088  0.07161218787155832  1.0000
  H   H26       1.0  0.906601430171648  0.7371585060896777  0.5716198151472441  1.0000
  H   H27       1.0  0.40659394813081934  0.2371571509248014  0.9283807330769069  1.0000
  H   H28       1.0  0.0933890812673255  0.26283589826041265  0.42838434304796663  1.0000
  C   C1        1.0  0.4056198989003263  0.5144834587398108  0.19874905484645217  1.0000
  C   C2        1.0  0.09439369207244397  0.9855249849578627  0.698748179742353  1.0000
  C   C3        1.0  0.5943821486894693  0.4855142798291681  0.8012531202688893  1.0000
  C   C4        1.0  0.9056036339092233  0.0144791708327858  0.3012599445148113  1.0000
  C   C5        1.0  0.2794092580514871  0.5705797398525404  0.11070942445486764  1.0000
  C   C6        1.0  0.2205940556782835  0.9294212616292511  0.6107073193707822  1.0000
  C   C7        1.0  0.7205944579472502  0.4294172063093667  0.8892920896398384  1.0000
  C   C8        1.0  0.7793957809948612  0.07057717405749739  0.3892981608585871  1.0000
  C   C9        1.0  0.14421251850021108  0.6314729217641568  0.22549753685909485  1.0000
  C   C10       1.0  0.3557870804121066  0.8685257305129567  0.7254934506006807  1.0000
  C   C11       1.0  0.8557912327686878  0.36852725466305  0.774500672178519  1.0000
  C   C12       1.0  0.6442123755791159  0.1314760220679432  0.27451202959404963  1.0000
  C   C13       1.0  0.037237080029306854  0.6311963788326976  0.17016661370581695  1.0000
  C   C14       1.0  0.4627591226185146  0.8687973463283426  0.670164283048351  1.0000
  C   C15       1.0  0.9627659612557126  0.36880459866358006  0.8298302733111886  1.0000
  C   C16       1.0  0.5372343345491047  0.13120354454214583  0.3298372310953469  1.0000
  C   C17       1.0  0.9436428925490504  0.6841125951594548  0.19851573734199957  1.0000
  C   C18       1.0  0.5563569596965012  0.8158841067437735  0.6985133097833017  1.0000
  C   C19       1.0  0.056360148753341804  0.31588838233605543  0.8014791666377195  1.0000
  C   C20       1.0  0.44364231839966106  0.18412329663642168  0.301488204346697  1.0000
  C   C21       1.0  0.9576277719140335  0.7399314166537251  0.2785253745378641  1.0000
  C   C22       1.0  0.5423720985288796  0.7600637449031992  0.7785175952834255  1.0000
  C   C23       1.0  0.0423767246031233  0.26007118896997383  0.7214715124757094  1.0000
  C   C24       1.0  0.4576249791100508  0.23993960115205226  0.22148259682432342  1.0000
  C   C25       1.0  0.06441591149517466  0.73788828379201  0.3333752683863978  1.0000
  C   C26       1.0  0.4355873698278785  0.7621161545807452  0.8333701758401448  1.0000
  C   C27       1.0  0.9355862066291609  0.262115915307831  0.6666209576271956  1.0000
  C   C28       1.0  0.5644156714223955  0.23788482291706  0.16663067725143327  1.0000
  C   C29       1.0  0.1562283843030272  0.6813720246174384  0.3081763408901921  1.0000
  C   C30       1.0  0.343768807618666  0.8186266828523117  0.8081695497032443  1.0000
  C   C31       1.0  0.8437718169711916  0.31863215715842585  0.691823851205925  1.0000
  C   C32       1.0  0.6562265311173263  0.18137099507737275  0.19183262543988636  1.0000
  C   C33       1.0  0.7625902527967484  0.5921085814141023  0.09671646159540614  1.0000
  C   C34       1.0  0.7374077625561597  0.9078855866819351  0.596719435426458  1.0000
  C   C35       1.0  0.2374098780297942  0.40788913982706987  0.90327976441602  1.0000
  C   C36       1.0  0.2625882861984508  0.0921112901771508  0.4032800956627228  1.0000
  C   C37       1.0  0.6656784317814086  0.7188559434553312  0.08915971353814463  1.0000
  C   C38       1.0  0.8343269568736391  0.7811431291756532  0.5891647783253051  1.0000
  C   C39       1.0  0.33432574585268077  0.28113939190236437  0.9108358514401902  1.0000
  C   C40       1.0  0.1656650450386863  0.2188561335684369  0.4108393798715398  1.0000
  C   C41       1.0  0.08432894847041437  0.7986346829209906  0.420290485723065  1.0000
  C   C42       1.0  0.4156739463406324  0.7013641804428447  0.9202873460195139  1.0000
  C   C43       1.0  0.9156775001207008  0.20137117029403126  0.5797044182503373  1.0000
  C   C44       1.0  0.584330266488337  0.298634385183469  0.07971350706330332  1.0000
  N   N1        1.0  0.24374237183447187  0.5832393657220223  0.19530331970286607  1.0000
  N   N2        1.0  0.2562551292823087  0.9167600469794902  0.695300877330347  1.0000
  N   N3        1.0  0.7562602078383592  0.416763222577444  0.8046968723807881  1.0000
  N   N4        1.0  0.7437376178666854  0.0832416449616034  0.3047032808673152  1.0000
  N   N5        1.0  0.3248364977447267  0.5481700185123798  0.2526047715440996  1.0000
  N   N6        1.0  0.17516965394015213  0.9518359856070687  0.752604438350872  1.0000
  N   N7        1.0  0.6751670050945721  0.45182934818326004  0.7473954205305378  1.0000
  N   N8        1.0  0.8248295888800571  0.04816818750807529  0.24740104184864017  1.0000
  N   N9        1.0  0.38188993736629573  0.5271741872324894  0.11066530171520843  1.0000
  N   N10       1.0  0.11811965964542989  0.9728317159231422  0.6106635274391865  1.0000
  N   N11       1.0  0.6181188895655224  0.47283007250869247  0.889336212370033  1.0000
  N   N12       1.0  0.8818733006514139  0.0271675554847235  0.3893432748034017  1.0000
  N   N13       1.0  0.829980910739238  0.6774554147931224  0.14542500282476575  1.0000
  N   N14       1.0  0.6700188780453119  0.8225380071768953  0.6454236348139663  1.0000
  N   N15       1.0  0.170022343711004  0.3225431421691595  0.8545725451998794  1.0000
  N   N16       1.0  0.3299719523114746  0.1774636674376637  0.3545778793419246  1.0000
  N   N17       1.0  0.7684741894914496  0.7592954470331958  0.14159746737036027  1.0000
  N   N18       1.0  0.731529038357131  0.7406996174355884  0.6416012734177701  1.0000
  N   N19       1.0  0.23152640295307247  0.24070066340453167  0.8583947925619743  1.0000
  N   N20       1.0  0.2684656256188234  0.25930209183050573  0.35840156274709073  1.0000
  N   N21       1.0  0.6579441020363179  0.6157716737721798  0.060295810892796516  1.0000
  N   N22       1.0  0.8420600886992204  0.8842249387060406  0.5603004825239426  1.0000
  N   N23       1.0  0.34205840718883007  0.38422445399258726  0.9397004151061739  1.0000
  N   N24       1.0  0.1579330848381275  0.11577191216451867  0.439698387564711  1.0000
  O   O1        1.0  0.04720560073299398  0.8872890490839609  0.418745996820107  1.0000
  O   O2        1.0  0.4527888733468047  0.6127040843236955  0.9187488729801462  1.0000
  O   O3        1.0  0.9527856207303956  0.11270455419527539  0.5812548563087179  1.0000
  O   O4        1.0  0.5472095890650054  0.3872944293248039  0.08124867506435153  1.0000
  O   O5        1.0  0.13742557302569472  0.7618216561957849  0.4828345407075504  1.0000
  O   O6        1.0  0.36259688449285216  0.738182287126733  0.9828418761567905  1.0000
  O   O7        1.0  0.8626080299331988  0.23819170983936996  0.5171537530407948  1.0000
  O   O8        1.0  0.6374114103617218  0.26181712288371267  0.017160959947702305  1.0000
