data_image0
_chemical_formula_structural       Ag2H18C28S2N4
_chemical_formula_sum              "Ag2 H18 C28 S2 N4"
_cell_length_a       5.875463887084117
_cell_length_b       7.700785420688055
_cell_length_c       14.053479801931134
_cell_angle_alpha    89.99762470380323
_cell_angle_beta     99.14218208833839
_cell_angle_gamma    90.00027647946398

_space_group_name_H-M_alt    "P 1"
_space_group_IT_number       1

loop_
  _space_group_symop_operation_xyz
  'x, y, z'

loop_
  _atom_site_type_symbol
  _atom_site_label
  _atom_site_symmetry_multiplicity
  _atom_site_fract_x
  _atom_site_fract_y
  _atom_site_fract_z
  _atom_site_occupancy
  Ag  Ag1       1.0  0.2462259037173666  0.44886662139168015  0.9220203645415096  1.0000
  Ag  Ag2       1.0  0.753759254030065  0.9488747122544366  0.07797635422574699  1.0000
  H   H1        1.0  0.126707603444288  0.5262879992923006  0.7026812961563706  1.0000
  H   H2        1.0  0.8732785699373479  0.026275908186811102  0.29731190808780633  1.0000
  H   H3        1.0  0.3071123938918703  0.5252735637590648  0.5541693404236767  1.0000
  H   H4        1.0  0.6928808578042336  0.025258083249269703  0.44582783718144725  1.0000
  H   H5        1.0  0.8682798594318515  0.2265642625766731  0.7123874717972498  1.0000
  H   H6        1.0  0.13170945313455457  0.7265522935587329  0.2876186099913553  1.0000
  H   H7        1.0  0.6612665208737026  0.23860411073480492  0.8541616861827918  1.0000
  H   H8        1.0  0.3387095420448887  0.7385905090522017  0.14584339848919106  1.0000
  H   H9        1.0  0.6155975787637403  0.5281728063906783  0.30535198014075593  1.0000
  H   H10       1.0  0.38440522039388714  0.02818422086116361  0.6946314261013454  1.0000
  H   H11       1.0  0.7636463683031779  0.5299587581726398  0.14895691695578248  1.0000
  H   H12       1.0  0.2363914829785543  0.0299667354812669  0.851036221646275  1.0000
  H   H13       1.0  0.13629061925968952  0.38576946550281127  0.13561588954754455  1.0000
  H   H14       1.0  0.8637628416825436  0.8857782454282415  0.8643931102953742  1.0000
  H   H15       1.0  0.3617983439558472  0.24212928707285636  0.27869793527878517  1.0000
  H   H16       1.0  0.6382148491219796  0.742141233366695  0.7213212294225143  1.0000
  H   H17       1.0  0.2151851838454562  0.24077961033632525  0.4358131449453636  1.0000
  H   H18       1.0  0.7848153330313465  0.7407950816869544  0.5641968053068281  1.0000
  C   C1        1.0  0.289975963651024  0.4596605047208869  0.7015312391992197  1.0000
  C   C2        1.0  0.7100200603498691  0.9596435643750425  0.2984665574214347  1.0000
  C   C3        1.0  0.3908867191759883  0.459087263328925  0.6187936732093107  1.0000
  C   C4        1.0  0.6091094637026657  0.959071467936653  0.38120699202337954  1.0000
  C   C5        1.0  0.6050293426188276  0.37507383793820287  0.6204899156926016  1.0000
  C   C6        1.0  0.39496304985910774  0.8750578766398859  0.37951166516652524  1.0000
  C   C7        1.0  0.7038608947032543  0.2938244208118661  0.7070958703367154  1.0000
  C   C8        1.0  0.2961349540740272  0.7938043886983694  0.2929105262066969  1.0000
  C   C9        1.0  0.5891084266283569  0.3003739744680232  0.786185301270869  1.0000
  C   C10       1.0  0.4108788672778729  0.8003586934815273  0.21381691906547215  1.0000
  C   C11       1.0  0.7166135583929717  0.3754302181729869  0.538574824051885  1.0000
  C   C12       1.0  0.28338592750152714  0.8754157090627005  0.461429989149785  1.0000
  C   C13       1.0  0.8110770567480898  0.3801924331425326  0.46720525646475847  1.0000
  C   C14       1.0  0.18891361015298713  0.8801797954852049  0.5327925577338135  1.0000
  C   C15       1.0  0.9057328257730574  0.38526298843159174  0.3806944889817955  1.0000
  C   C16       1.0  0.0942667301244597  0.885274436944883  0.6193044181933515  1.0000
  C   C17       1.0  0.7795977480590751  0.46702416462103  0.2990161961334721  1.0000
  C   C18       1.0  0.22041197588226422  0.9670277508759498  0.7009757915822661  1.0000
  C   C19       1.0  0.8626258496625708  0.4669265811580844  0.21166574364000465  1.0000
  C   C20       1.0  0.13739947184651408  0.9669409372970321  0.7883285335969957  1.0000
  C   C21       1.0  0.0720975867012825  0.38596234772945337  0.204260716026063  1.0000
  C   C22       1.0  0.9279207718435458  0.8859671433001992  0.7957363700102389  1.0000
  C   C23       1.0  0.19909994080104101  0.3056257283828927  0.2849826458204986  1.0000
  C   C24       1.0  0.8009242374788598  0.8056344363965097  0.7150286204345163  1.0000
  C   C25       1.0  0.1183373622641284  0.30514799296763323  0.3730351549622454  1.0000
  C   C26       1.0  0.8816605306026087  0.8051525300400469  0.6269682595878123  1.0000
  C   C27       1.0  0.7517187672256326  0.5950639991768368  0.9586830018045588  1.0000
  C   C28       1.0  0.24826339394402916  0.09505600735036521  0.0413056287600995  1.0000
  S   S1        1.0  0.5238524332474199  0.7152879250352272  0.9634583975682672  1.0000
  S   S2        1.0  0.4761272536947417  0.21529456641304992  0.0365395674787905  1.0000
  N   N1        1.0  0.385452123619288  0.3820096055272232  0.784355193115985  1.0000
  N   N2        1.0  0.6145352239425036  0.8820025115828473  0.21564310926312658  1.0000
  N   N3        1.0  0.9138364019390223  0.506162280768592  0.9545566802188145  1.0000
  N   N4        1.0  0.0861644299949447  0.006147290945314399  0.045438487883025395  1.0000
