data_image0
_chemical_formula_structural       Ag4H44C68N12O16
_chemical_formula_sum              "Ag4 H44 C68 N12 O16"
_cell_length_a       4.819410534778602
_cell_length_b       15.987862644
_cell_length_c       19.077
_cell_angle_alpha    90.0
_cell_angle_beta     92.43005755753983
_cell_angle_gamma    90.0

_space_group_name_H-M_alt    "P 1"
_space_group_IT_number       1

loop_
  _space_group_symop_operation_xyz
  'x, y, z'

loop_
  _atom_site_type_symbol
  _atom_site_label
  _atom_site_symmetry_multiplicity
  _atom_site_fract_x
  _atom_site_fract_y
  _atom_site_fract_z
  _atom_site_occupancy
  Ag  Ag1       1.0  0.6993782882027801  0.12473962557768203  0.0158385678129633  1.0000
  Ag  Ag2       1.0  0.8006248611760114  0.624742670262336  0.48416109898739285  1.0000
  Ag  Ag3       1.0  0.3006224268429634  0.8752595835723869  0.9841599721101842  1.0000
  Ag  Ag4       1.0  0.1993737770595558  0.3752602917345911  0.5158384670730171  1.0000
  H   H1        1.0  0.6568867519669652  0.20306779413184736  0.8690071579740248  1.0000
  H   H2        1.0  0.8431163974118334  0.7030677114441206  0.6309940814006367  1.0000
  H   H3        1.0  0.3431160398889617  0.796932040492706  0.1309908800033028  1.0000
  H   H4        1.0  0.156890548064446  0.2969339996038585  0.3690066220250898  1.0000
  H   H5        1.0  0.847899291251082  0.17916653800344315  0.7505866455403307  1.0000
  H   H6        1.0  0.6520997045073571  0.6791658298412389  0.7494140251516725  1.0000
  H   H7        1.0  0.1521097310353738  0.8208332966211105  0.24941198336527037  1.0000
  H   H8        1.0  0.3478947801078576  0.3208383831046363  0.2505860206089423  1.0000
  H   H9        1.0  0.21118875016050961  0.07003875533170152  0.7365295765364193  1.0000
  H   H10       1.0  0.2888053769318262  0.5700392981184523  0.7634698887840301  1.0000
  H   H11       1.0  0.7888161185055935  0.9299604538183674  0.26347005626082165  1.0000
  H   H12       1.0  0.7111911844935577  0.42996491482742283  0.2365296550307576  1.0000
  H   H13       1.0  0.1698747652954538  0.0200477078854746  0.9585989699266122  1.0000
  H   H14       1.0  0.3301235154172417  0.520050127095651  0.5414000156936324  1.0000
  H   H15       1.0  0.8301217961299373  0.9799515012646014  0.0413995255053123  1.0000
  H   H16       1.0  0.6698688923877896  0.4799559622736497  0.4585994836299391  1.0000
  H   H17       1.0  0.1865972408463179  0.2315156242219203  0.05703253411904541  1.0000
  H   H18       1.0  0.3134093471070827  0.7315192943810518  0.4429660162922104  1.0000
  H   H19       1.0  0.8134076278197782  0.7684842104026259  0.9429665744867606  1.0000
  H   H20       1.0  0.6865955215590134  0.2684836676158753  0.5570325681221604  1.0000
  H   H21       1.0  0.8439471214829126  0.2990881336971257  0.1325247073805116  1.0000
  H   H22       1.0  0.6560726423773033  0.7990849236370254  0.3674751373847371  1.0000
  H   H23       1.0  0.1560577471831905  0.7009129518763688  0.8674754496081647  1.0000
  H   H24       1.0  0.3439405335295049  0.20091366003857306  0.63252353601208  1.0000
  H   H25       1.0  0.765508077881222  0.24672778893808817  0.2524928160429027  1.0000
  H   H26       1.0  0.734505455548458  0.7467258298269357  0.24750643779407971  1.0000
  H   H27       1.0  0.23449886759505742  0.7532707947375101  0.7475073631913887  1.0000
  H   H28       1.0  0.265499413117638  0.2532721283741851  0.752491622428856  1.0000
  H   H29       1.0  0.030076364993505002  0.1249385264608591  0.3015571559771217  1.0000
  H   H30       1.0  0.4699239925293668  0.624937818298662  0.1984418518887381  1.0000
  H   H31       1.0  0.9699285036725982  0.8750594317402618  0.6984414284372491  1.0000
  H   H32       1.0  0.5300725688960242  0.3750607653769364  0.8015576919260567  1.0000
  H   H33       1.0  0.8014452011962092  0.39978452044049123  0.06291706847527222  1.0000
  H   H34       1.0  0.6985454873215247  0.8997869396506675  0.4370850858085759  1.0000
  H   H35       1.0  0.1985472066088292  0.6002140632351072  0.9370897695283773  1.0000
  H   H36       1.0  0.3014510741038663  0.10021414592283413  0.5629139338147765  1.0000
  H   H37       1.0  0.5439186623507695  0.9869524370677356  0.7336177295854752  1.0000
  H   H38       1.0  0.9560824102178458  0.4869537707044104  0.7663808665864024  1.0000
  H   H39       1.0  0.45608412950515037  0.0130448956589149  0.2663803083918523  1.0000
  H   H40       1.0  0.0439245352584337  0.513044812971188  0.23362088522219443  1.0000
  H   H41       1.0  0.1777147237162851  0.3258609431420895  0.9033508718390522  1.0000
  H   H42       1.0  0.3222794033760579  0.8258608604543625  0.5966491176728326  1.0000
  H   H43       1.0  0.8222984521905303  0.6741363895845611  0.09665147089781098  1.0000
  H   H44       1.0  0.6777005435679087  0.17413897417018387  0.4033507723684906  1.0000
  C   C1        1.0  0.8178790001323719  0.15658565849260245  0.8609177035511378  1.0000
  C   C2        1.0  0.6821179188158837  0.6565862012793533  0.639082420703815  1.0000
  C   C3        1.0  0.1821217149133716  0.8434154270808991  0.13908083637200966  1.0000
  C   C4        1.0  0.3178807194196835  0.3434173861920513  0.3609171453565878  1.0000
  C   C5        1.0  0.9270465271233661  0.1429840905505841  0.7955236432062378  1.0000
  C   C6        1.0  0.5729503918248895  0.6429840078628573  0.7044770052401502  1.0000
  C   C7        1.0  0.07295834154273  0.8570176204973876  0.2044744170166979  1.0000
  C   C8        1.0  0.4270440927903181  0.3570202050830176  0.2955240889033348  1.0000
  C   C9        1.0  0.1291381336597937  0.08195154219014712  0.7880499210834131  1.0000
  C   C10       1.0  0.3708559934325493  0.5819520849768909  0.7119490200456013  1.0000
  C   C11       1.0  0.8708667350063096  0.9180470414854514  0.21194709075665227  1.0000
  C   C12       1.0  0.6291405679928417  0.4180508770200292  0.2880510479606215  1.0000
  C   C13       1.0  0.220694310343859  0.0351335267576118  0.8470722397003884  1.0000
  C   C14       1.0  0.2793018935586602  0.5351353204933105  0.6529267236742413  1.0000
  C   C15       1.0  0.7793064047018845  0.9648650569179864  0.15292682441419458  1.0000
  C   C16       1.0  0.7206988214870904  0.4648657650801838  0.3470733888232046  1.0000
  C   C17       1.0  0.1026504966533608  0.0538633599234188  0.9110591711373459  1.0000
  C   C18       1.0  0.397349860869511  0.553864528184647  0.5889398367285139  1.0000
  C   C19       1.0  0.897352295202559  0.9461364747011276  0.0889399152228521  1.0000
  C   C20       1.0  0.6026487773660563  0.4461390592867574  0.41105972933189605  1.0000
  C   C21       1.0  0.42697555805445825  0.9687442496144103  0.8418728856468006  1.0000
  C   C22       1.0  0.0730206458480609  0.4687455832510851  0.6581250293449656  1.0000
  C   C23       1.0  0.5730251569912923  0.03125495953566571  0.1581251300849118  1.0000
  C   C24       1.0  0.9269883764383948  0.5312561277968941  0.3418767447092392  1.0000
  C   C25       1.0  0.2999246186232583  0.1387909096675131  0.1372017191601813  1.0000
  C   C26       1.0  0.2000798925199732  0.6387914524542639  0.362798381579772  1.0000
  C   C27       1.0  0.7000760964224924  0.8612076740080854  0.8627968207629665  1.0000
  C   C28       1.0  0.7999249761461301  0.3612083821702896  0.6372017754089043  1.0000
  C   C29       1.0  0.1531024463003163  0.20792272700988695  0.10958197096408638  1.0000
  C   C30       1.0  0.3469041416530914  0.7079257716945406  0.3904171036386046  1.0000
  C   C31       1.0  0.8469003455556036  0.7920764821401891  0.8904171153961045  1.0000
  C   C32       1.0  0.6531007270130118  0.2920765648279087  0.6095820049672014  1.0000
  C   C33       1.0  0.9630957981879505  0.24583773875959747  0.1526257232056025  1.0000
  C   C34       1.0  0.5369073511908411  0.7458357796484449  0.347371846829013  1.0000
  C   C35       1.0  0.03690491685779311  0.7541639722883746  0.84737229252611  1.0000
  C   C36       1.0  0.46309544066507874  0.2541653059250565  0.6526267153397498  1.0000
  C   C37       1.0  0.9175658886621534  0.21592129460128726  0.2207683204288386  1.0000
  C   C38       1.0  0.5824393375268215  0.715919335490135  0.2792303202342552  1.0000
  C   C39       1.0  0.0824369031937664  0.7840766635998409  0.7792312901227874  1.0000
  C   C40       1.0  0.4175634543291054  0.2840779972365156  0.7207671935516302  1.0000
  C   C41       1.0  0.0616272652131755  0.14756256371050117  0.24880605119401616  1.0000
  C   C42       1.0  0.43837516911987257  0.6475643574462  0.25119402730032186  1.0000
  C   C43       1.0  0.938373449832568  0.8524353944906198  0.7511919645376962  1.0000
  C   C44       1.0  0.5616276227360544  0.3524361026528241  0.7488071558256095  1.0000
  C   C45       1.0  0.2535764458874397  0.11003722255896523  0.2059818796511763  1.0000
  C   C46       1.0  0.2464259884456084  0.6100383908201934  0.2940181988431618  1.0000
  C   C47       1.0  0.7464242691583038  0.8899601101676853  0.7940171844634065  1.0000
  C   C48       1.0  0.7535768034103114  0.3899601928554049  0.7059819358999064  1.0000
  C   C49       1.0  0.5129762675131674  0.320167248992533  0.9694769930521687  1.0000
  C   C50       1.0  0.9870268818656315  0.8201709191516644  0.5305242463224928  1.0000
  C   C51       1.0  0.4870348315834648  0.6798300837341105  0.030526375821956695  1.0000
  C   C52       1.0  0.0129613723190474  0.1798320428452627  0.46947625689271894  1.0000
  C   C53       1.0  0.4900109005681159  0.4136813123348945  0.9808586154764284  1.0000
  C   C54       1.0  0.0099832265242199  0.9136818551216452  0.5191429466097617  1.0000
  C   C55       1.0  0.5099856608572679  0.586316020391749  0.0191466944441387  1.0000
  C   C56       1.0  0.9900154117113473  0.08631860497737882  0.4808566194506412  1.0000
  C   C57       1.0  0.3171953720610361  0.4721919476105328  0.9440470900412876  1.0000
  C   C58       1.0  0.1827987550312997  0.9721937413462316  0.5559544720449024  1.0000
  C   C59       1.0  0.6827991125541716  0.52780475964164  0.05595767344223649  1.0000
  C   C60       1.0  0.8171998832042675  0.027806093278314806  0.44404247305832456  1.0000
  C   C61       1.0  0.1146835348229729  0.455835790078858  0.8825273713305463  1.0000
  C   C62       1.0  0.3853126690795392  0.9558357073911312  0.6174731646183885  1.0000
  C   C63       1.0  0.8853171802227707  0.5441640445456886  0.11747588631551759  1.0000
  C   C64       1.0  0.6146880459662044  0.044166629131318316  0.3825248511133239  1.0000
  C   C65       1.0  0.6662905484516061  0.44411752578226793  0.0351193134796688  1.0000
  C   C66       1.0  0.8337022168762972  0.9441193195179667  0.46488181466692413  1.0000
  C   C67       1.0  0.33369978254324917  0.5558804324188602  0.9648869780869376  1.0000
  C   C68       1.0  0.1662901909287342  0.05587988963210931  0.5351150636994717  1.0000
  N   N1        1.0  0.9043532223115988  0.11199558314143593  0.9177563215470742  1.0000
  N   N2        1.0  0.5956457734468401  0.6119961259281865  0.5822438249534869  1.0000
  N   N3        1.0  0.0956474927341446  0.8880055024320586  0.08224326675893678  1.0000
  N   N4        1.0  0.4043507879785508  0.3880074615432109  0.41775676724417105  1.0000
  N   N5        1.0  0.5003326471513034  0.0883657829353552  0.1085348311466277  1.0000
  N   N6        1.0  0.9996767326580241  0.5883663257221059  0.39146595077343693  1.0000
  N   N7        1.0  0.49967014470461635  0.9116334262147137  0.8914642552135702  1.0000
  N   N8        1.0  0.0003260591979029  0.4116347598513955  0.6085347081610664  1.0000
  N   N9        1.0  0.5735921261697996  0.9574106521201886  0.7831000137466971  1.0000
  N   N10       1.0  0.9264068695886393  0.4574113602823858  0.7168990843709935  1.0000
  N   N11       1.0  0.42640651206576763  0.0425885570298874  0.21689850393083526  1.0000
  N   N12       1.0  0.0736000758876401  0.542587848867683  0.2831021432461611  1.0000
  O   O1        1.0  0.704316942805363  0.281197687277306  0.0008151980252009003  1.0000
  O   O2        1.0  0.7956758225225472  0.7811976045895792  0.49918278497278823  1.0000
  O   O3        1.0  0.2956983099116286  0.7188015218727699  0.9991876911487126  1.0000
  O   O4        1.0  0.2042978939908906  0.21880348098392235  0.5008165141402685  1.0000
  O   O5        1.0  0.329811993890587  0.2811457728958473  0.9287437460007126  1.0000
  O   O6        1.0  0.1701821332017488  0.7811463156825982  0.5712567677026144  1.0000
  O   O7        1.0  0.6702032588263975  0.7188509343563254  0.0712586189817657  1.0000
  O   O8        1.0  0.8297874296913293  0.21885414441642587  0.4287445836849599  1.0000
  O   O9        1.0  0.0364251737067462  0.5180717513299629  0.8458574824577028  1.0000
  O   O10       1.0  0.4635731070059493  0.0180693321197865  0.6541415031625419  1.0000
  O   O11       1.0  0.9635693109084684  0.4819262068711582  0.1541462326429581  1.0000
  O   O12       1.0  0.5364317616601468  0.981929251555812  0.34585498448608826  1.0000
  O   O13       1.0  0.0291418004135409  0.3811916661847974  0.8693555010630689  1.0000
  O   O14       1.0  0.47085232667880217  0.8811909580225932  0.6306429158745174  1.0000
  O   O15       1.0  0.9708630682525623  0.6188050410673755  0.1306457043084777  1.0000
  O   O16       1.0  0.5291421579364126  0.11880825112748283  0.3693545089289216  1.0000
