data_image0
_chemical_formula_structural       Cu2H24C32S2N4O8
_chemical_formula_sum              "Cu2 H24 C32 S2 N4 O8"
_cell_length_a       9.216131829193912
_cell_length_b       9.40488683411928
_cell_length_c       9.869713396280055
_cell_angle_alpha    75.00561249760241
_cell_angle_beta     66.8921398248649
_cell_angle_gamma    82.92152947176908

_space_group_name_H-M_alt    "P 1"
_space_group_IT_number       1

loop_
  _space_group_symop_operation_xyz
  'x, y, z'

loop_
  _atom_site_type_symbol
  _atom_site_label
  _atom_site_symmetry_multiplicity
  _atom_site_fract_x
  _atom_site_fract_y
  _atom_site_fract_z
  _atom_site_occupancy
  Cu  Cu1       1.0  0.8392616121385715  0.2035213872609134  0.5594928219053514  1.0000
  Cu  Cu2       1.0  0.16073955835529571  0.7964791850960605  0.4405055587166089  1.0000
  H   H1        1.0  0.8680925697552482  0.9703556473617427  0.4033686967593438  1.0000
  H   H2        1.0  0.1319016505246111  0.029640539875501297  0.596636397622234  1.0000
  H   H3        1.0  0.7213744973192034  0.8919804311057076  0.26812922132779704  1.0000
  H   H4        1.0  0.27861864829053934  0.10801135320150476  0.7318783620038687  1.0000
  H   H5        1.0  0.4930409441856369  0.048586908366900196  0.23170057875628905  1.0000
  H   H6        1.0  0.5069533228900198  0.9514059830859696  0.76830327462482  1.0000
  H   H7        1.0  0.42525029675407916  0.28409277075976996  0.32814551201693126  1.0000
  H   H8        1.0  0.5747462365458135  0.7159023275683224  0.6718529010480478  1.0000
  H   H9        1.0  0.5807414789413483  0.3428758428453662  0.4610033511834289  1.0000
  H   H10       1.0  0.41925736709726646  0.6571225411765622  0.5389954207922046  1.0000
  H   H11       1.0  0.7954033273948369  0.11946532024148837  0.8784460673671645  1.0000
  H   H12       1.0  0.20460259724733731  0.880533033508797  0.12155005833901822  1.0000
  H   H13       1.0  0.9064114096815955  0.18256261076576408  0.05025422288471066  1.0000
  H   H14       1.0  0.09359692115023678  0.8174346244110778  0.9497432998448047  1.0000
  H   H15       1.0  0.1226472392964482  0.3672950545803601  0.9377052451170654  1.0000
  H   H16       1.0  0.8773538376761536  0.6327110156946247  0.06229385744902764  1.0000
  H   H17       1.0  0.22572267671066018  0.47206937480574845  0.6545510485337473  1.0000
  H   H18       1.0  0.7742724312671216  0.5279411175468026  0.34545124072918293  1.0000
  H   H19       1.0  0.10453522678495371  0.39444170522260436  0.5015810826267141  1.0000
  H   H20       1.0  0.895465873620715  0.6055621703348135  0.498416519410732  1.0000
  H   H21       1.0  0.4046417432001235  0.5706258215692583  0.8885162914635811  1.0000
  H   H22       1.0  0.5953547896778062  0.42937583866330437  0.11149268194228056  1.0000
  H   H23       1.0  0.1872459763032737  0.4928425088813596  0.16635688635403062  1.0000
  H   H24       1.0  0.8127542361934986  0.5071503425129933  0.8336488009725044  1.0000
  C   C1        1.0  0.7688517607684845  0.034773723232774494  0.38357797711755376  1.0000
  C   C2        1.0  0.23114712027906856  0.9652235560143009  0.6164220641787425  1.0000
  C   C3        1.0  0.6871398528009394  0.993320261123294  0.3080409194422771  1.0000
  C   C4        1.0  0.31285553567030183  0.006674831125970098  0.6919609640450872  1.0000
  C   C5        1.0  0.560817255123382  0.08132672200979127  0.2871784918012139  1.0000
  C   C6        1.0  0.43917697687300716  0.918668367868669  0.7128258523160439  1.0000
  C   C7        1.0  0.521913484404763  0.20977814124567118  0.34110540188405736  1.0000
  C   C8        1.0  0.4780842753175277  0.7902158435542643  0.6588948492491724  1.0000
  C   C9        1.0  0.6087976700273502  0.24456556194534318  0.41543705269460657  1.0000
  C   C10       1.0  0.39120590679683426  0.7554317045367042  0.5845592048370704  1.0000
  C   C11       1.0  0.890558885682097  0.19682450205726806  0.8357015901906234  1.0000
  C   C12       1.0  0.10944460926702251  0.8031782586347587  0.16429639907767074  1.0000
  C   C13       1.0  0.9532302253284896  0.23296842954431426  0.9294360913956582  1.0000
  C   C14       1.0  0.046770910086109986  0.7670343412382579  0.07056277996245089  1.0000
  C   C15       1.0  0.0740419055706667  0.3344902435186226  0.8663868938357238  1.0000
  C   C16       1.0  0.925955608737425  0.6655169429590018  0.13361327233691628  1.0000
  C   C17       1.0  0.1306519597831439  0.39378013162182407  0.710736621313927  1.0000
  C   C18       1.0  0.8693443748280173  0.6062259662503278  0.28926222584681227  1.0000
  C   C19       1.0  0.0629879547847381  0.35193884604870357  0.623695925541476  1.0000
  C   C20       1.0  0.9370131454802714  0.6480672168102115  0.3763051966096001  1.0000
  C   C21       1.0  0.5750234306289173  0.3365734049553666  0.7426913903508919  1.0000
  C   C22       1.0  0.42498234204999347  0.6634337462053422  0.2573056885073867  1.0000
  C   C23       1.0  0.442627257668441  0.33792296240508785  0.8894180178408037  1.0000
  C   C24       1.0  0.5573821944183166  0.6620786608696462  0.11058105510859656  1.0000
  C   C25       1.0  0.37162626672063936  0.45820779133445194  0.9495390854279647  1.0000
  C   C26       1.0  0.6283760950460363  0.5417949595707013  0.050463384055213126  1.0000
  C   C27       1.0  0.25623192656340876  0.41719769561690595  0.09691772660276143  1.0000
  C   C28       1.0  0.7437681575438122  0.5827995711688203  0.9030838932336138  1.0000
  C   C29       1.0  0.23877205530000367  0.2661089849875679  0.14685349935517425  1.0000
  C   C30       1.0  0.7612268023848118  0.7338893953263224  0.8531462824129432  1.0000
  C   C31       1.0  0.12532045986729662  0.18215189466704365  0.2913467696068537  1.0000
  C   C32       1.0  0.8746784094637263  0.817846481938808  0.7086540219537624  1.0000
  S   S1        1.0  0.36645836332434095  0.17469446438784078  0.013965646396023592  1.0000
  S   S2        1.0  0.6335463697637137  0.8253060854172386  0.9860334306762012  1.0000
  N   N1        1.0  0.7294875497910169  0.15809000840005888  0.4367917727272824  1.0000
  N   N2        1.0  0.270511202937314  0.8419105925876448  0.5632024410220353  1.0000
  N   N3        1.0  0.9439896016649881  0.25651889344981516  0.6853962526286137  1.0000
  N   N4        1.0  0.05601266686173291  0.7434849807703684  0.31459989857143705  1.0000
  O   O1        1.0  0.6317312116189341  0.20508527156577822  0.7285926400080031  1.0000
  O   O2        1.0  0.3682733698574907  0.7949186073960063  0.27139858993225363  1.0000
  O   O3        1.0  0.6245532240440426  0.45410678620601164  0.6469746989858932  1.0000
  O   O4        1.0  0.37545382185305687  0.5458959556421518  0.3530229769401672  1.0000
  O   O5        1.0  0.1287456056263423  0.04409316610673388  0.3171170523706691  1.0000
  O   O6        1.0  0.8712579594109826  0.9559062913848417  0.6828817154821395  1.0000
  O   O7        1.0  0.030270587931539705  0.26368208985424957  0.3775368748253385  1.0000
  O   O8        1.0  0.9697259570145604  0.7363130047658043  0.6224625480321249  1.0000
