data_image0
_chemical_formula_structural       Li8H32C40N24O40
_chemical_formula_sum              "Li8 H32 C40 N24 O40"
_cell_length_a       9.372921892
_cell_length_b       12.427445358
_cell_length_c       12.81
_cell_angle_alpha    90.0
_cell_angle_beta     90.0
_cell_angle_gamma    90.0

_space_group_name_H-M_alt    "P 1"
_space_group_IT_number       1

loop_
  _space_group_symop_operation_xyz
  'x, y, z'

loop_
  _atom_site_type_symbol
  _atom_site_label
  _atom_site_symmetry_multiplicity
  _atom_site_fract_x
  _atom_site_fract_y
  _atom_site_fract_z
  _atom_site_occupancy
  Li  Li1       1.0  0.4769345196203432  0.3928804238802783  0.6107384855581587  1.0000
  Li  Li2       1.0  0.5230642116184185  0.10711855587786087  0.11073926619828002  1.0000
  Li  Li3       1.0  0.9769365524976265  0.6071183403066058  0.8892615144418414  1.0000
  Li  Li4       1.0  0.0230621787411351  0.8928802083090231  0.3892615144418414  1.0000
  Li  Li5       1.0  0.5230631447152589  0.6071183403066058  0.3892615144418414  1.0000
  Li  Li6       1.0  0.4769377203298291  0.8928794036384105  0.8892607338017202  1.0000
  Li  Li7       1.0  0.023065379450621  0.3928804238802783  0.11073926619828002  1.0000
  Li  Li8       1.0  0.976935485594467  0.10711855587786087  0.6107392661982802  1.0000
  H   H1        1.0  0.1383218610950507  0.4835611685978165  0.6475768930523034  1.0000
  H   H2        1.0  0.8616758032405443  0.0164353971484985  0.1475745511319246  1.0000
  H   H3        1.0  0.6383228270691745  0.5164384002596734  0.852423106947697  1.0000
  H   H4        1.0  0.3616737703632609  0.9835641717089914  0.3524254488680754  1.0000
  H   H5        1.0  0.861676870143711  0.5164351815772434  0.3524254488680754  1.0000
  H   H6        1.0  0.1383250618045366  0.9835633670383856  0.8524246682279468  1.0000
  H   H7        1.0  0.3616801717822327  0.4835627779390279  0.1475768930523031  1.0000
  H   H8        1.0  0.6383238939723341  0.0164353971484985  0.6475745511319249  1.0000
  H   H9        1.0  0.9951496563692926  0.6553140863144051  0.6166315378610465  1.0000
  H   H10       1.0  0.0048554762884407  0.8446852669718224  0.11662763466042493  1.0000
  H   H11       1.0  0.49514975729832855  0.3446846778724719  0.8833700234192038  1.0000
  H   H12       1.0  0.5048532415530786  0.15531269254444877  0.3833723653395752  1.0000
  H   H13       1.0  0.0048554762884407  0.34468548254307757  0.3833708040593322  1.0000
  H   H14       1.0  0.9951443218534806  0.1553143018856602  0.8833692427790822  1.0000
  H   H15       1.0  0.5048511077467523  0.6553165003262292  0.11662919594067493  1.0000
  H   H16       1.0  0.4951454896856831  0.8446852669718224  0.6166276346604249  1.0000
  H   H17       1.0  0.7260958832708013  0.6355706883004258  0.6011334894613611  1.0000
  H   H18       1.0  0.2739071155805988  0.86443671169188  0.10113036690086122  1.0000
  H   H19       1.0  0.2260970511030038  0.36442968522766955  0.898869633099139  1.0000
  H   H20       1.0  0.7739059477484034  0.1355620524950041  0.39886963309913886  1.0000
  H   H21       1.0  0.2739092493869251  0.3644361225925222  0.3988680718188888  1.0000
  H   H22       1.0  0.7260926825613225  0.1355628571656098  0.8988672911787676  1.0000
  H   H23       1.0  0.7739059477484034  0.6355714929710317  0.1011319281811112  1.0000
  H   H24       1.0  0.22609278349035833  0.86443671169188  0.6011303669008612  1.0000
  H   H25       1.0  0.0171131267120543  0.3163667098700245  0.6625745511319252  1.0000
  H   H26       1.0  0.9828792031077355  0.1836346838999319  0.16257689305230372  1.0000
  H   H27       1.0  0.5171140926861781  0.6836328589874652  0.8374246682279465  1.0000
  H   H28       1.0  0.48287823713361183  0.816364884957558  0.3374238875878249  1.0000
  H   H29       1.0  0.982878136204576  0.6836344683286766  0.3374238875878249  1.0000
  H   H30       1.0  0.017122728840512  0.8163640802869523  0.8374231069476963  1.0000
  H   H31       1.0  0.4828857054557432  0.3163675145406373  0.1625753317720537  1.0000
  H   H32       1.0  0.5171215610083095  0.1836354885705376  0.6625761124121753  1.0000
  C   C1        1.0  0.8099598062883331  0.38501074534356405  0.6446682279469158  1.0000
  C   C2        1.0  0.1900357242409427  0.11499386710882219  0.1446705698672943  1.0000
  C   C3        1.0  0.309959907217376  0.6149880188433201  0.8553325526932057  1.0000
  C   C4        1.0  0.6900345564087402  0.8850057017486674  0.35532943013270574  1.0000
  C   C5        1.0  0.1900357242409427  0.6149928468669614  0.35532943013270574  1.0000
  C   C6        1.0  0.8099651408041382  0.8850057017486674  0.8553294301327057  1.0000
  C   C7        1.0  0.6900388240213857  0.38501155001416976  0.14466978922716583  1.0000
  C   C8        1.0  0.3099652417331811  0.1149930624382165  0.6446705698672943  1.0000
  C   C9        1.0  0.0218939197791812  0.4850087710198565  0.6413793911006993  1.0000
  C   C10       1.0  0.9781048114595733  0.0149918180794941  0.1413786104605776  1.0000
  C   C11       1.0  0.521894885753305  0.5149907978376334  0.8586198282591724  1.0000
  C   C12       1.0  0.4781038454854567  0.9850069461073899  0.3586213895394224  1.0000
  C   C13       1.0  0.9781048114595733  0.5149907978376334  0.3586206088993009  1.0000
  C   C14       1.0  0.0218971204886671  0.9850077507779956  0.858620608899301  1.0000
  C   C15       1.0  0.47810704619493555  0.48500957569046216  0.1413786104605776  1.0000
  C   C16       1.0  0.5218959526564646  0.0149918180794941  0.6413793911006993  1.0000
  C   C17       1.0  0.7370209716455847  0.2762007718497371  0.6582474629195971  1.0000
  C   C18       1.0  0.262977759593177  0.22380303593204323  0.1582490241998471  1.0000
  C   C19       1.0  0.2370221394777872  0.7237987970077525  0.8417525370804029  1.0000
  C   C20       1.0  0.762975524857815  0.7761965329254463  0.3417517564402814  1.0000
  C   C21       1.0  0.2629756257868507  0.7238028203607882  0.3417509758001529  1.0000
  C   C22       1.0  0.7370241723550706  0.7761957282548336  0.841750975800153  1.0000
  C   C23       1.0  0.7629797924704604  0.2762023811909486  0.1582474629195971  1.0000
  C   C24       1.0  0.23702427328410644  0.22380303593204323  0.6582490241998473  1.0000
  C   C25       1.0  0.9426665560438892  0.57759175705241  0.6243130366900829  1.0000
  C   C26       1.0  0.0573343090011988  0.9224100102456488  0.12431069476971153  1.0000
  C   C27       1.0  0.44266772387609166  0.4224078118050797  0.8756877439500387  1.0000
  C   C28       1.0  0.5573331411689963  0.0775887539412352  0.37568930523028854  1.0000
  C   C29       1.0  0.0573353759043584  0.42240942114629826  0.3756885245901672  1.0000
  C   C30       1.0  0.9426676229470488  0.0775887539412352  0.8756885245901673  1.0000
  C   C31       1.0  0.5573331411689963  0.5775925617230157  0.12430991412958291  1.0000
  C   C32       1.0  0.442666656972925  0.9224100102456488  0.6243106947697116  1.0000
  C   C33       1.0  0.7945835979233635  0.5665146614760914  0.6166861826697883  1.0000
  C   C34       1.0  0.20541620021855778  0.9334903245043903  0.11668384074941683  1.0000
  C   C35       1.0  0.2945858326587256  0.4334849073813984  0.8833161592505834  1.0000
  C   C36       1.0  0.705416099289522  0.0665092443530995  0.3833169398907117  1.0000
  C   C37       1.0  0.2054172671217245  0.43348973540503977  0.3833145979703332  1.0000
  C   C38       1.0  0.7945835979233635  0.0665092443530995  0.8833145979703334  1.0000
  C   C39       1.0  0.705416099289522  0.5665154661466971  0.11668384074941683  1.0000
  C   C40       1.0  0.2945836988523993  0.9334903245043903  0.616683840749417  1.0000
  N   N1        1.0  0.9534806864898613  0.3900359132844429  0.6500647931303691  1.0000
  N   N2        1.0  0.0465159109425741  0.10996628515612629  0.1500671350507403  1.0000
  N   N3        1.0  0.4534807874188971  0.609963655573047  0.8499344262295098  1.0000
  N   N4        1.0  0.5465147431103787  0.8900332837013634  0.3499328649492598  1.0000
  N   N5        1.0  0.0465148440394145  0.6099652649142655  0.3499336455893811  1.0000
  N   N6        1.0  0.9534860210056664  0.8900324790307577  0.8499328649492599  1.0000
  N   N7        1.0  0.5465190107230242  0.3900367179550486  0.1500655737704903  1.0000
  N   N8        1.0  0.4534850550315426  0.10996628515612629  0.6500671350507404  1.0000
  N   N9        1.0  0.7289562506470517  0.47089887192566227  0.6275917252146783  1.0000
  N   N10       1.0  0.2710403467853837  0.02910574052672389  0.1275925058547998  1.0000
  N   N11       1.0  0.22895741847925416  0.5290998922612217  0.8724090554254503  1.0000
  N   N12       1.0  0.7710402458563479  0.9708930236601603  0.3724082747853217  1.0000
  N   N13       1.0  0.2710414136885433  0.5291055249554687  0.3724059328649503  1.0000
  N   N14       1.0  0.7289594513565376  0.9708930236601603  0.8724059328649503  1.0000
  N   N15       1.0  0.7710434465658267  0.47089967659626797  0.1275925058547998  1.0000
  N   N16       1.0  0.2289595522855734  0.02910574052672389  0.6275925058547999  1.0000
  N   N17       1.0  0.375783564675416  0.6170705063742972  0.5877494145199051  1.0000
  N   N18       1.0  0.6242162334665053  0.8829288469119304  0.0877494145199051  1.0000
  N   N19       1.0  0.8757845306495396  0.3829282578125799  0.9122505854800949  1.0000
  N   N20       1.0  0.12421633439554819  0.1170707219455522  0.4122498048399664  1.0000
  N   N21       1.0  0.6242162334665053  0.3829282578125799  0.4122505854800949  1.0000
  N   N22       1.0  0.375783564675416  0.1170707219455522  0.9122505854800949  1.0000
  N   N23       1.0  0.12421633439554819  0.6170705063742972  0.08775019516003373  1.0000
  N   N24       1.0  0.8757845306495396  0.8829288469119304  0.5877494145199051  1.0000
  O   O1        1.0  0.6031000860921267  0.28329474792127474  0.6748290398126502  1.0000
  O   O2        1.0  0.3968965113403087  0.2167082551899  0.17482903981264294  1.0000
  O   O3        1.0  0.1031012539243292  0.7167048209362149  0.8251717408274788  1.0000
  O   O4        1.0  0.8968964104112659  0.783292923008801  0.3251717408274787  1.0000
  O   O5        1.0  0.3968954444371491  0.7167072349480392  0.3251709601873572  1.0000
  O   O6        1.0  0.6031043537047722  0.7832913136675896  0.8251717408274788  1.0000
  O   O7        1.0  0.8968996111207517  0.28329555259188055  0.1748282591725214  1.0000
  O   O8        1.0  0.1031044546338151  0.21670745051929424  0.6748290398126502  1.0000
  O   O9        1.0  0.3671917935150546  0.5258417809733729  0.6329789227166247  1.0000
  O   O10       1.0  0.6328069377237071  0.9741575723128618  0.1329789227166245  1.0000
  O   O11       1.0  0.8671916925860189  0.4741585925547227  0.8670226385636255  1.0000
  O   O12       1.0  0.1328081055559096  0.0258419965446279  0.3670210772833755  1.0000
  O   O13       1.0  0.6328080046268667  0.474157787884117  0.3670210772833755  1.0000
  O   O14       1.0  0.3671928604182142  0.0258411918740222  0.8670210772833756  1.0000
  O   O15       1.0  0.1328091724590692  0.5258417809733729  0.132979703356753  1.0000
  O   O16       1.0  0.8671927594891783  0.9741575723128618  0.6329789227166247  1.0000
  O   O17       1.0  0.8090145300871541  0.192212472570823  0.6520741608118643  1.0000
  O   O18       1.0  0.1909842011516005  0.30779294455216893  0.1520733801717427  1.0000
  O   O19       1.0  0.3090156979193566  0.8077870962866669  0.8479266198282576  1.0000
  O   O20       1.0  0.6909851671257243  0.692205819634715  0.3479258391881359  1.0000
  O   O21       1.0  0.1909842011516005  0.8077935336515196  0.34792661982825734  1.0000
  O   O22       1.0  0.8090166638934804  0.6922066243053209  0.847925839188136  1.0000
  O   O23       1.0  0.690986234028891  0.192212472570823  0.1520725995316141  1.0000
  O   O24       1.0  0.3090156979193566  0.30779294455216893  0.6520741608118643  1.0000
  O   O25       1.0  0.4896712095635181  0.6428095050812317  0.5398836846213869  1.0000
  O   O26       1.0  0.5103296554815699  0.8571898482050031  0.0398836846213868  1.0000
  O   O27       1.0  0.9896721755376419  0.3571892591056525  0.9601155347384849  1.0000
  O   O28       1.0  0.0103286895074461  0.1428097206524868  0.4601163153786132  1.0000
  O   O29       1.0  0.5103285885784032  0.3571892591056525  0.4601163153786132  1.0000
  O   O30       1.0  0.4896712095635181  0.1428097206524868  0.9601163153786132  1.0000
  O   O31       1.0  0.0103286895074461  0.6428095050812317  0.0398844652615153  1.0000
  O   O32       1.0  0.9896711086344752  0.8571898482050031  0.5398836846213869  1.0000
  O   O33       1.0  0.271764774032107  0.6805340724798085  0.5914832162373145  1.0000
  O   O34       1.0  0.7282360910129739  0.8194660854770319  0.0914832162373145  1.0000
  O   O35       1.0  0.7717646731030712  0.31946469170707553  0.9085167837626855  1.0000
  O   O36       1.0  0.2282361919420097  0.1805342880510636  0.4085167837626856  1.0000
  O   O37       1.0  0.7282360910129739  0.31946469170707553  0.4085167837626856  1.0000
  O   O38       1.0  0.271764774032107  0.1805342880510636  0.9085167837626855  1.0000
  O   O39       1.0  0.22823512503885007  0.680534877150414  0.0914832162373145  1.0000
  O   O40       1.0  0.7717646731030712  0.8194660854770319  0.591483996877443  1.0000
