data_image0
_chemical_formula_structural       Zn2H24C44N6O20
_chemical_formula_sum              "Zn2 H24 C44 N6 O20"
_cell_length_a       14.178042876798205
_cell_length_b       15.188940870976865
_cell_length_c       19.2951946099507
_cell_angle_alpha    92.35091543139637
_cell_angle_beta     90.8823458829412
_cell_angle_gamma    89.9701643606734

_space_group_name_H-M_alt    "P 1"
_space_group_IT_number       1

loop_
  _space_group_symop_operation_xyz
  'x, y, z'

loop_
  _atom_site_type_symbol
  _atom_site_label
  _atom_site_symmetry_multiplicity
  _atom_site_fract_x
  _atom_site_fract_y
  _atom_site_fract_z
  _atom_site_occupancy
  Zn  Zn1       1.0  0.3911481056927714  0.49567153150202614  0.5017729115567136  1.0000
  Zn  Zn2       1.0  0.6038940692351461  0.496394276557183  0.5014218521385203  1.0000
  H   H1        1.0  0.360128974649115  0.45675000786726366  0.8500685055377489  1.0000
  H   H2        1.0  0.580459119353819  0.4013589581311409  0.1452672340976875  1.0000
  H   H3        1.0  0.40042062613918017  0.6314330656989284  0.16086883567088248  1.0000
  H   H4        1.0  0.6458633282330769  0.5567359375148442  0.8511888480717502  1.0000
  H   H5        1.0  0.37145949672017775  0.7827447300549225  0.560382201948606  1.0000
  H   H6        1.0  0.6322526340301169  0.2237773612387741  0.5479793928388972  1.0000
  H   H7        1.0  0.3681536892864374  0.21393434203972825  0.4312063466729654  1.0000
  H   H8        1.0  0.6286480521197079  0.7628304569288176  0.4416980208350481  1.0000
  H   H9        1.0  0.9306522098877397  0.6365171943445986  0.5381480316549272  1.0000
  H   H10       1.0  0.06093332189251302  0.432161011474122  0.4019636588548963  1.0000
  H   H11       1.0  0.9317250770292633  0.3609651158450618  0.4694620893104542  1.0000
  H   H12       1.0  0.06795039115549882  0.5676433403751135  0.6044193979217596  1.0000
  H   H13       1.0  0.35722984211374614  0.3888481194855089  0.6631527352014572  1.0000
  H   H14       1.0  0.5834022420647859  0.3647007842655797  0.3370738711939794  1.0000
  H   H15       1.0  0.3994947159985786  0.6408653669138075  0.3563974427884276  1.0000
  H   H16       1.0  0.6557106562783309  0.5923792829133278  0.6649350507016933  1.0000
  H   H17       1.0  0.3775599622810973  0.0158604243890252  0.5599708700502006  1.0000
  H   H18       1.0  0.6364192268084569  0.9918533607397678  0.5579538896336302  1.0000
  H   H19       1.0  0.3753499303046156  0.9806121988764717  0.4177302458484888  1.0000
  H   H20       1.0  0.6302250445605326  0.9926948296574026  0.4181575548286461  1.0000
  H   H21       1.0  0.6820375669285429  0.6448743941985879  0.5321098389664414  1.0000
  H   H22       1.0  0.307502183562285  0.44509706204822663  0.3889000379473018  1.0000
  H   H23       1.0  0.6832124589583445  0.350487602530329  0.4697981780966601  1.0000
  H   H24       1.0  0.3154165647765483  0.5563384946678981  0.6126668482685389  1.0000
  C   C1        1.0  0.4959640564066492  0.6660210613499302  0.5057352659603964  1.0000
  C   C2        1.0  0.4955829437688808  0.32628743385737385  0.4925173585973468  1.0000
  C   C3        1.0  0.49993096014712546  0.7637516860330537  0.5018533600491324  1.0000
  C   C4        1.0  0.49973009201325896  0.22808019504319788  0.48978814845938257  1.0000
  C   C5        1.0  0.5030180793556414  0.9468235823451323  0.4921939844382379  1.0000
  C   C6        1.0  0.5042224102501153  0.0440412482020491  0.48869078377774133  1.0000
  C   C7        1.0  0.8958027252513435  0.5747024591475665  0.523384545413812  1.0000
  C   C8        1.0  0.09786791749415612  0.46086396654722955  0.4472257445002299  1.0000
  C   C9        1.0  0.8963096864731955  0.42244503298317687  0.48362959286127705  1.0000
  C   C10       1.0  0.10165775062923645  0.5387547670720066  0.5586314994824448  1.0000
  C   C11       1.0  0.7973997720811357  0.5725605753261362  0.5211470794222706  1.0000
  C   C12       1.0  0.1962005559890302  0.4632795298425377  0.4474426965850212  1.0000
  C   C13       1.0  0.7979123328607401  0.4236986848202449  0.4841115865914816  1.0000
  C   C14       1.0  0.1999994114448001  0.5365485880292766  0.5566278090885034  1.0000
  C   C15       1.0  0.9458095866647586  0.4988754123772238  0.5037650188645557  1.0000
  C   C16       1.0  0.05008307951276692  0.49946876268163004  0.5034455967891917  1.0000
  C   C17       1.0  0.5018678441945144  0.4925703826956393  0.6362422320788782  1.0000
  C   C18       1.0  0.4940670688851373  0.5022436016639561  0.366637208330566  1.0000
  C   C19       1.0  0.4238875673545835  0.46668528186991415  0.7506210791013217  1.0000
  C   C20       1.0  0.539646617928888  0.4432657676689259  0.24792023531928456  1.0000
  C   C21       1.0  0.4403860463230701  0.5743226684111205  0.2570036753076295  1.0000
  C   C22       1.0  0.5830283045592995  0.5278232038058591  0.7508561555135671  1.0000
  C   C23       1.0  0.42285681146635334  0.4773017119777093  0.8229387115900124  1.0000
  C   C24       1.0  0.5405963885500215  0.4500422503127979  0.1759114453434947  1.0000
  C   C25       1.0  0.43945853949264113  0.5783003702477387  0.1846330322933412  1.0000
  C   C26       1.0  0.5829351831581138  0.5326482288779603  0.8233278541583928  1.0000
  C   C27       1.0  0.5020380748034727  0.5102883072508745  0.8594454766537041  1.0000
  C   C28       1.0  0.490733115094763  0.5172831956252608  0.1440619133855989  1.0000
  C   C29       1.0  0.5028775420777125  0.4953088425318554  0.7139450802093492  1.0000
  C   C30       1.0  0.490610665117025  0.5064680979375283  0.2888619081228114  1.0000
  C   C31       1.0  0.495274970983907  0.5244094195813813  0.0684040386667846  1.0000
  C   C32       1.0  0.5009738034061045  0.5209988608513427  0.9355349313881121  1.0000
  C   C33       1.0  0.4319794908782414  0.9053521102926608  0.5301615178046007  1.0000
  C   C34       1.0  0.5759854784482957  0.09453059535596252  0.5231620471359265  1.0000
  C   C35       1.0  0.43109992635071864  0.08872103136357622  0.45365063802287153  1.0000
  C   C36       1.0  0.572637720834237  0.8935662516892862  0.4594954154813209  1.0000
  C   C37       1.0  0.4282728333505049  0.8138051110643899  0.5329666440978684  1.0000
  C   C38       1.0  0.575698228842363  0.1863529941626751  0.5218251748179837  1.0000
  C   C39       1.0  0.4267332523702551  0.1806310980986865  0.4561958183712918  1.0000
  C   C40       1.0  0.5733362333262448  0.8023069063164386  0.46620139750073963  1.0000
  C   C41       1.0  0.34362346406279454  0.4175919365259304  0.7160210614125903  1.0000
  C   C42       1.0  0.5887005486057576  0.3678288945127975  0.2796570186163549  1.0000
  C   C43       1.0  0.39264587720465044  0.6450555582920643  0.29903570415227426  1.0000
  C   C44       1.0  0.6679485559273035  0.5631233844741957  0.7161559146566958  1.0000
  N   N1        1.0  0.5824374379217759  0.5059412016828659  0.9703546575362907  1.0000
  N   N2        1.0  0.41823264502900775  0.5530899179115353  0.0340451751578499  1.0000
  N   N3        1.0  0.5796122951842338  0.5072204362503429  0.038637594700929895  1.0000
  N   N4        1.0  0.4207992122386417  0.5509437122787233  0.9655589505753142  1.0000
  N   N5        1.0  0.7480924483130099  0.49792049766834623  0.5021400502154663  1.0000
  N   N6        1.0  0.24729773864612542  0.4993187657766213  0.5018563457227785  1.0000
  O   O1        1.0  0.41816258335148876  0.6281940763980388  0.4921882482454549  1.0000
  O   O2        1.0  0.5717990003809349  0.3675789436156549  0.47834923462055906  1.0000
  O   O3        1.0  0.4184859288365318  0.36315660929071925  0.5082260702367094  1.0000
  O   O4        1.0  0.572389432791333  0.6258097364694849  0.5226149127613979  1.0000
  O   O5        1.0  0.42456588242484394  0.5149753987265697  0.6061716939127564  1.0000
  O   O6        1.0  0.5708198939985041  0.5225977045082644  0.3970469957530369  1.0000
  O   O7        1.0  0.41863713553519244  0.4781660122284351  0.396204026952752  1.0000
  O   O8        1.0  0.5765459731195723  0.4701177870925407  0.6052691445894212  1.0000
  O   O9        1.0  0.26846200816718396  0.4054931544591724  0.7443223828289547  1.0000
  O   O10       1.0  0.6316824944288516  0.3112522579570012  0.2460812407354496  1.0000
  O   O11       1.0  0.34919316091869507  0.7057785713552321  0.2736410751200751  1.0000
  O   O12       1.0  0.7463668788028816  0.5633293982434255  0.7433175479070329  1.0000
  O   O13       1.0  0.3650785261381843  0.9530392829568085  0.5648837512408988  1.0000
  O   O14       1.0  0.6469025781902719  0.05561055634724709  0.559174221742559  1.0000
  O   O15       1.0  0.36202889452761183  0.04384867370948341  0.4173603962284247  1.0000
  O   O16       1.0  0.6413372848841024  0.9292887866255695  0.42077648727867967  1.0000
  O   O17       1.0  0.7525033769182702  0.6473859151300799  0.5384123173875395  1.0000
  O   O18       1.0  0.23969010583170572  0.42842519514851324  0.3916699445852387  1.0000
  O   O19       1.0  0.75364169658252  0.3484716277437911  0.46592852619505715  1.0000
  O   O20       1.0  0.24755436906124842  0.5730946686736189  0.6109188428125236  1.0000
