data_image0
_chemical_formula_structural       Al2H24C42N6O12
_chemical_formula_sum              "Al2 H24 C42 N6 O12"
_cell_length_a       3.986504032412166
_cell_length_b       27.876363549158803
_cell_length_c       27.8761265855535
_cell_angle_alpha    119.99946835299203
_cell_angle_beta     89.99843126365728
_cell_angle_gamma    90.00035681616157

_space_group_name_H-M_alt    "P 1"
_space_group_IT_number       1

loop_
  _space_group_symop_operation_xyz
  'x, y, z'

loop_
  _atom_site_type_symbol
  _atom_site_label
  _atom_site_symmetry_multiplicity
  _atom_site_fract_x
  _atom_site_fract_y
  _atom_site_fract_z
  _atom_site_occupancy
  Al  Al1       1.0  0.0034195716399309994  0.5000020608345466  0.5000040603860896  1.0000
  Al  Al2       1.0  0.0033706810436839995  0.1666637470996123  0.8333351272952856  1.0000
  H   H1        1.0  0.20652453855224445  0.18751054135106662  0.6968060218424696  1.0000
  H   H2        1.0  0.22290551695220268  0.24418302872445716  0.649338213306642  1.0000
  H   H3        1.0  0.7667926587870397  0.3718294292697877  0.7874204720403669  1.0000
  H   H4        1.0  0.7871609151791504  0.31197391563071614  0.8316227459325917  1.0000
  H   H5        1.0  0.7668491800153275  0.2948307717167823  0.5459060867115683  1.0000
  H   H6        1.0  0.2229360914704515  0.42247973864081706  0.6840005386454706  1.0000
  H   H7        1.0  0.20655653633855306  0.4791514908907644  0.6365299767510209  1.0000
  H   H8        1.0  0.787168201605894  0.35469245129148413  0.5017111557690727  1.0000
  H   H9        1.0  0.2064921685915024  0.009286074794374608  0.8124884804512363  1.0000
  H   H10       1.0  0.222864218093747  0.9051474042477636  0.7558149562956374  1.0000
  H   H11       1.0  0.766761678176735  0.9155874786039319  0.6281628191100452  1.0000
  H   H12       1.0  0.7871232631185449  0.019643503216009425  0.688021881690709  1.0000
  H   H13       1.0  0.7667583723542749  0.7510765018826221  0.7051683531143028  1.0000
  H   H14       1.0  0.22289824705234196  0.7615105074575652  0.5775148031376389  1.0000
  H   H15       1.0  0.20655629672076967  0.6573709908246386  0.5208417230916923  1.0000
  H   H16       1.0  0.7871531760411443  0.647020863009999  0.6453104336146184  1.0000
  H   H17       1.0  0.2065089932170849  0.3031997199378651  0.9907075342928382  1.0000
  H   H18       1.0  0.2228352357546015  0.3506646783080286  0.09484729144038785  1.0000
  H   H19       1.0  0.7667133507855369  0.21258059234452287  0.08441775259103679  1.0000
  H   H20       1.0  0.7871160927331785  0.16837879915101436  0.9803594489224495  1.0000
  H   H21       1.0  0.7667479321642431  0.45408799297084107  0.24892022785187604  1.0000
  H   H22       1.0  0.2228734786018052  0.3160001976801539  0.2384912214446331  1.0000
  H   H23       1.0  0.20658211532430928  0.3634687842145681  0.3426320366488369  1.0000
  H   H24       1.0  0.7871478037392733  0.4982841579286088  0.35297642796228257  1.0000
  C   C1        1.0  0.5022749580024879  0.46057216325029776  0.4149457117016624  1.0000
  C   C2        1.0  0.5022729874342603  0.4543723129328541  0.5394320982328864  1.0000
  C   C3        1.0  0.5022801831352697  0.5850569598908637  0.5456288651067568  1.0000
  C   C4        1.0  0.5022360606083821  0.2122938723766339  0.793905855773204  1.0000
  C   C5        1.0  0.5022163232110799  0.08160457688639167  0.7877015407781158  1.0000
  C   C6        1.0  0.5022215476692509  0.20609473951692087  0.9183929597864805  1.0000
  C   C7        1.0  0.5000771012154033  0.2463232480919189  0.766488709894837  1.0000
  C   C8        1.0  0.3372747611315318  0.22713698448910696  0.7153707367572653  1.0000
  C   C9        1.0  0.3447832429586768  0.25835091421830475  0.6891863452677144  1.0000
  C   C10       1.0  0.5017589724789603  0.3105533551496789  0.7155713567314663  1.0000
  C   C11       1.0  0.6501475920291427  0.3310061385271156  0.7679045160556585  1.0000
  C   C12       1.0  0.6593732040536011  0.29813767806587793  0.792320428230781  1.0000
  C   C13       1.0  0.650177035644262  0.3356607235341968  0.5654311516851749  1.0000
  C   C14       1.0  0.5018068938978502  0.3561076164441985  0.6177588996956942  1.0000
  C   C15       1.0  0.34482332687124273  0.40831097984317927  0.6441482401766409  1.0000
  C   C16       1.0  0.3372709932216366  0.43953143265837713  0.6179695676770507  1.0000
  C   C17       1.0  0.5000797628521951  0.4203463501540767  0.5668472791550769  1.0000
  C   C18       1.0  0.6594362925151318  0.368519197137566  0.5410014947122478  1.0000
  C   C19       1.0  0.5000308860244402  0.02016060617013693  0.7536752669672284  1.0000
  C   C20       1.0  0.3372302225837344  0.9882281837928631  0.7728621639337733  1.0000
  C   C21       1.0  0.3447247638811817  0.9308250477196225  0.7416452377588313  1.0000
  C   C22       1.0  0.5017264032297105  0.9050123733302657  0.6894401601078641  1.0000
  C   C23       1.0  0.6501121729116123  0.9368921786866907  0.6689898914310247  1.0000
  C   C24       1.0  0.6593363813420439  0.9941793984866296  0.7018558912071029  1.0000
  C   C25       1.0  0.6501483615125351  0.7297704044049239  0.6643448165304734  1.0000
  C   C26       1.0  0.5017452685886354  0.7616494267088213  0.643887616414375  1.0000
  C   C27       1.0  0.344782594632747  0.7358332591029964  0.5916841089841115  1.0000
  C   C28       1.0  0.3372890662611354  0.6784333214277467  0.5604683342964378  1.0000
  C   C29       1.0  0.5000958767759086  0.6465044802925562  0.579656624548548  1.0000
  C   C30       1.0  0.6593839368433192  0.6724841814866949  0.6314727419899102  1.0000
  C   C31       1.0  0.5000389220782893  0.23351479033055975  0.9798381178235971  1.0000
  C   C32       1.0  0.33722769696150573  0.2846338002560103  0.011771277796583449  1.0000
  C   C33       1.0  0.34472559202030345  0.3108146698035554  0.06916795031942505  1.0000
  C   C34       1.0  0.5016871674491981  0.2844313634401275  0.0949887455661127  1.0000
  C   C35       1.0  0.650089801829793  0.23209737185558768  0.06310663279953127  1.0000
  C   C36       1.0  0.6593208765376984  0.20768127069149503  0.00582484898388457  1.0000
  C   C37       1.0  0.6500994230797942  0.4345678302176594  0.2702304121855974  1.0000
  C   C38       1.0  0.5017182106044443  0.3822388060342304  0.23835498875430255  1.0000
  C   C39       1.0  0.3447832019717083  0.3558517884305914  0.26416968001706215  1.0000
  C   C40       1.0  0.33725038308076444  0.3820300721830706  0.32157041861885466  1.0000
  C   C41       1.0  0.5000878399001252  0.43315498529298685  0.35350343359314  1.0000
  C   C42       1.0  0.6593858259044791  0.4589937298439893  0.3275174081307668  1.0000
  N   N1        1.0  0.5129546487443764  0.34582814494275027  0.6928786956662663  1.0000
  N   N2        1.0  0.5129666447123499  0.3208343568852926  0.6404513980011048  1.0000
  N   N3        1.0  0.5129062524974658  0.8470490642498092  0.6541665690612605  1.0000
  N   N4        1.0  0.5129032869072034  0.8196138924341411  0.6791635707210163  1.0000
  N   N5        1.0  0.5128447826931009  0.3071205915671058  0.15295275279145665  1.0000
  N   N6        1.0  0.5128708704836313  0.3595485564818972  0.1803861960374533  1.0000
  O   O1        1.0  0.7383628361285658  0.5595214288681448  0.5545564219398146  1.0000
  O   O2        1.0  0.7383673322517694  0.49503581630425236  0.4404838484738107  1.0000
  O   O3        1.0  0.7383425715773483  0.44545247072825594  0.5049710555162079  1.0000
  O   O4        1.0  0.26881537667038896  0.5617481559708324  0.5099200327372913  1.0000
  O   O5        1.0  0.2687747415285955  0.4900823969908572  0.551835500203552  1.0000
  O   O6        1.0  0.26879973686170183  0.4481740363814454  0.4382558406366713  1.0000
  O   O7        1.0  0.7382922477500384  0.1716313622169353  0.8928559932555233  1.0000
  O   O8        1.0  0.7383270422638049  0.22121810279703888  0.8283696958635077  1.0000
  O   O9        1.0  0.7382917270885655  0.10714755815605059  0.7787823287279779  1.0000
  O   O10       1.0  0.2687412646076268  0.21849226887980672  0.8950834015782335  1.0000
  O   O11       1.0  0.26871810003218843  0.1049129349194827  0.8234115097325159  1.0000
  O   O12       1.0  0.268763751240165  0.17658657095721259  0.7815068189434486  1.0000
