data_image0
_chemical_formula_structural       Cd4P4H20C24N4O22
_chemical_formula_sum              "Cd4 P4 H20 C24 N4 O22"
_cell_length_a       7.109641606130872
_cell_length_b       7.1096025130012706
_cell_length_c       18.861660488737524
_cell_angle_alpha    85.2551655688065
_cell_angle_beta     85.25510571398473
_cell_angle_gamma    62.75363297025355

_space_group_name_H-M_alt    "P 1"
_space_group_IT_number       1

loop_
  _space_group_symop_operation_xyz
  'x, y, z'

loop_
  _atom_site_type_symbol
  _atom_site_label
  _atom_site_symmetry_multiplicity
  _atom_site_fract_x
  _atom_site_fract_y
  _atom_site_fract_z
  _atom_site_occupancy
  Cd  Cd1       1.0  0.4818621711509721  0.34622872434879787  0.6847704639624437  1.0000
  Cd  Cd2       1.0  0.6537816066474632  0.5181199231733942  0.8152303197270641  1.0000
  Cd  Cd3       1.0  0.5181243449017431  0.6537776255196304  0.31522925573665356  1.0000
  Cd  Cd4       1.0  0.3462261658245184  0.48187043086471704  0.18477080346182356  1.0000
  P   P1        1.0  0.555955972910617  0.8263622377601294  0.6523250116650345  1.0000
  P   P2        1.0  0.17363726360851942  0.44403676500329675  0.847673773032099  1.0000
  P   P3        1.0  0.44403900931415313  0.17363767737363392  0.3476735752967882  1.0000
  P   P4        1.0  0.8263662530301518  0.5559567836505578  0.1523268576921879  1.0000
  H   H1        1.0  0.9743022413098786  0.5703215365464088  0.7024838116672425  1.0000
  H   H2        1.0  0.42967993083918543  0.025688789155402996  0.7975147723461615  1.0000
  H   H3        1.0  0.025689195226931413  0.42967686310026204  0.29751548560859215  1.0000
  H   H4        1.0  0.5703242654591776  0.9743031527843159  0.2024848309122191  1.0000
  H   H5        1.0  0.710278686400109  0.8852208106503455  0.5027370423806159  1.0000
  H   H6        1.0  0.11479246488323722  0.2897073865089014  0.9972641133790034  1.0000
  H   H7        1.0  0.2897086375897971  0.11479659632622231  0.497264376040185  1.0000
  H   H8        1.0  0.8852259373820888  0.7102812389583234  0.0027361628571754156  1.0000
  H   H9        1.0  0.38301061552452625  0.5430159823919567  0.5306304792094991  1.0000
  H   H10       1.0  0.45699703965520666  0.6169757239685936  0.9693669602603947  1.0000
  H   H11       1.0  0.6169788643483118  0.457009256888682  0.4693700535845834  1.0000
  H   H12       1.0  0.5430192403802822  0.38301450449440466  0.030633334451792407  1.0000
  H   H13       1.0  0.24937851523709748  0.993182434489924  0.5996491141353458  1.0000
  H   H14       1.0  0.006817152043765863  0.7506141040022883  0.900351396847057  1.0000
  H   H15       1.0  0.7506136500892426  0.006817541461863597  0.40035063134641996  1.0000
  H   H16       1.0  0.9931870933844281  0.24938102095669018  0.09964968208316088  1.0000
  H   H17       1.0  0.9201873141794509  0.14960873410128528  0.7101898150204915  1.0000
  H   H18       1.0  0.850401432429699  0.07980739528778709  0.7898050431038469  1.0000
  H   H19       1.0  0.07981047310227755  0.8504005100111058  0.28980462860420175  1.0000
  H   H20       1.0  0.1496111804430384  0.9201843300704623  0.21018949634486714  1.0000
  C   C1        1.0  0.9905728917347931  0.61590751199941  0.6464998687425945  1.0000
  C   C2        1.0  0.38409572167444145  0.009413893912807194  0.8534988117851011  1.0000
  C   C3        1.0  0.00941788015123996  0.3840956432532747  0.3535003434211105  1.0000
  C   C4        1.0  0.6159077949642299  0.9905796547410475  0.14650181893918557  1.0000
  C   C5        1.0  0.8140435555689935  0.7387496176618101  0.6065170559511087  1.0000
  C   C6        1.0  0.26125255998775293  0.18594631653574106  0.8934826977845061  1.0000
  C   C7        1.0  0.18594791872400412  0.2612519536283173  0.39348318757993883  1.0000
  C   C8        1.0  0.7387566436807302  0.8140440298449505  0.10651890497766199  1.0000
  C   C9        1.0  0.8460780274009425  0.7913524541083203  0.5348507440165731  1.0000
  C   C10       1.0  0.20865776914589423  0.15390241837761207  0.9651495949118283  1.0000
  C   C11       1.0  0.15390998762229915  0.20866335752990753  0.4651501763549462  1.0000
  C   C12       1.0  0.7913521369295609  0.8460863440405221  0.03485203921768229  1.0000
  C   C13       1.0  0.053550787680059435  0.7224672735146597  0.506072973919693  1.0000
  C   C14       1.0  0.277536943990512  0.9464397028723184  0.9939268965356831  1.0000
  C   C15       1.0  0.9464365476834901  0.2775501448377042  0.49392897391772544  1.0000
  C   C16       1.0  0.7224736531182787  0.053547464207476  0.0060742395445458905  1.0000
  C   C17       1.0  0.21989944937742942  0.600475990121275  0.5504927751492443  1.0000
  C   C18       1.0  0.3995344833166073  0.7800828344281782  0.9495070828481784  1.0000
  C   C19       1.0  0.7800899740950272  0.3995397911079408  0.44950756596230684  1.0000
  C   C20       1.0  0.6004782624045647  0.21990588992351695  0.05049445159463059  1.0000
  C   C21       1.0  0.11385329403832863  0.7655568497284122  0.43002879872734917  1.0000
  C   C22       1.0  0.23445906207528114  0.8861274565395404  0.0699704143149233  1.0000
  C   C23       1.0  0.8861333389182422  0.23446215258650227  0.5699731177427336  1.0000
  C   C24       1.0  0.7655607486392599  0.11386113851867209  0.9300292826612875  1.0000
  N   N1        1.0  0.18983822410947945  0.5471205560558516  0.6187715173689978  1.0000
  N   N2        1.0  0.452885578959041  0.8101518280540956  0.8812271515193401  1.0000
  N   N3        1.0  0.810150444190896  0.4528904886005589  0.3812279586980338  1.0000
  N   N4        1.0  0.547122899555184  0.18984007953755366  0.11877336104224408  1.0000
  O   O1        1.0  0.56082592009885  0.6390919565370509  0.7003440836304407  1.0000
  O   O2        1.0  0.3609157725879016  0.4391621932386584  0.7996576996569189  1.0000
  O   O3        1.0  0.4391648895433706  0.3609143703590973  0.29965707478847037  1.0000
  O   O4        1.0  0.6390906100790373  0.5608344776164316  0.20034324821926217  1.0000
  O   O5        1.0  0.40507179031275353  0.8780094813397171  0.5893572706994945  1.0000
  O   O6        1.0  0.12198626750334546  0.5949208992633217  0.9106448881037038  1.0000
  O   O7        1.0  0.5949168520728988  0.12198900187656392  0.41064424392951787  1.0000
  O   O8        1.0  0.8780179856632274  0.4050710995553715  0.08935736223778429  1.0000
  O   O9        1.0  0.5035596674260177  0.019709352646728507  0.6938159923342582  1.0000
  O   O10       1.0  0.9802924960083105  0.4964399445787322  0.8061806594079143  1.0000
  O   O11       1.0  0.496441662376235  0.9802888682642177  0.30618083837165233  1.0000
  O   O12       1.0  0.019710291840837595  0.5035520277699987  0.19381952311044157  1.0000
  O   O13       1.0  0.9727545996803786  0.8569091788698912  0.384027229960374  1.0000
  O   O14       1.0  0.1431084136304364  0.0272329356842391  0.11597411505793788  1.0000
  O   O15       1.0  0.027239744276165805  0.14309865213756012  0.6159726887279149  1.0000
  O   O16       1.0  0.8569078513961513  0.9727541438868739  0.8840262922322776  1.0000
  O   O17       1.0  0.3103058529700816  0.7019162006600936  0.4165516433473115  1.0000
  O   O18       1.0  0.29809694103642675  0.6896823652574112  0.08344679847169799  1.0000
  O   O19       1.0  0.6896793183043359  0.2981059127009472  0.5834475633049863  1.0000
  O   O20       1.0  0.7019214839761858  0.3103062829614061  0.9165545365977221  1.0000
  O   O21       1.0  0.8106672574480029  0.18932797670722576  0.7499982368050124  1.0000
  O   O22       1.0  0.18933406098061317  0.8106702328279238  0.24999806448428064  1.0000
