data_image0
_chemical_formula_structural       C56F8H32N16Zn4
_chemical_formula_sum              "C56 F8 H32 N16 Zn4"
_cell_length_a       14.91420989232996
_cell_length_b       14.91243033765512
_cell_length_c       14.912613640128155
_cell_angle_alpha    97.26210960068235
_cell_angle_beta     115.79317271277716
_cell_angle_gamma    116.00501477308337

_space_group_name_H-M_alt    "P 1"
_space_group_IT_number       1

loop_
  _space_group_symop_operation_xyz
  'x, y, z'

loop_
  _atom_site_type_symbol
  _atom_site_label
  _atom_site_symmetry_multiplicity
  _atom_site_fract_x
  _atom_site_fract_y
  _atom_site_fract_z
  _atom_site_occupancy
  C   C1        1.0  0.6073894811050522  0.4166069200258846  0.3177650293455727  1.0000
  C   C2        1.0  0.10176535574009173  0.7857321712843585  0.616276986420395  1.0000
  C   C3        1.0  0.36719490779698555  0.28679114773288455  0.38113836741604246  1.0000
  C   C4        1.0  0.28278859783801386  0.2970241996870016  0.391133300237314  1.0000
  C   C5        1.0  0.09445123982251152  0.7132498783223015  0.08050497328608935  1.0000
  C   C6        1.0  0.7172229312498998  0.10832230394761673  0.014206198076358588  1.0000
  C   C7        1.0  0.905512161117606  0.9860195939930776  0.6187814516076101  1.0000
  C   C8        1.0  0.9057334094834604  0.8916006982165499  0.6087806244585677  1.0000
  C   C9        1.0  0.6328060891147373  0.013931229439677287  0.9195317289199424  1.0000
  C   C10       1.0  0.09416893746190147  0.7029762058688217  0.9858288612081194  1.0000
  C   C11       1.0  0.3925415448418336  0.7103656948996289  0.8091670520499717  1.0000
  C   C12       1.0  0.8981075039717935  0.5144603196391556  0.683843191753482  1.0000
  C   C13       1.0  0.09872227709050202  0.2895344436898595  0.6821074035034654  1.0000
  C   C14       1.0  0.16942608641713974  0.4855819696931151  0.3837059444530411  1.0000
  C   C15       1.0  0.9012735529227386  0.5833546640016253  0.19081387719938897  1.0000
  C   C16       1.0  0.8306809055250993  0.21429272831685617  0.3162073485956894  1.0000
  C   C17       1.0  0.2393869107259476  0.15875800509657262  0.7211318324054545  1.0000
  C   C18       1.0  0.641359406880518  0.9491839269851993  0.1823125992495633  1.0000
  C   C19       1.0  0.760465784729874  0.48183767194114324  0.9192961847078536  1.0000
  C   C20       1.0  0.35909659147412026  0.5412731784832729  0.3083708276416743  1.0000
  C   C21       1.0  0.4378348856473694  0.5184737875716651  0.27904972101725173  1.0000
  C   C22       1.0  0.7668747335868459  0.4589882580766584  0.8177060135082499  1.0000
  C   C23       1.0  0.5625709858637647  0.8411440442638778  0.08067981412351337  1.0000
  C   C24       1.0  0.2328423981119627  0.05071633951020252  0.6917813341317753  1.0000
  C   C25       1.0  0.09626337408170113  0.6129714236830707  0.7850991647453965  1.0000
  C   C26       1.0  0.600923644212017  0.31409553312749955  0.41230744910263445  1.0000
  C   C27       1.0  0.9036077256248375  0.6887575569255304  0.5166035791474285  1.0000
  C   C28       1.0  0.3990617401871432  0.8113803581294476  0.7131452151326131  1.0000
  C   C29       1.0  0.8279327457537208  0.3111806926108969  0.21490096427206834  1.0000
  C   C30       1.0  0.9017190280354799  0.1885770560988576  0.587611546978252  1.0000
  C   C31       1.0  0.17213281361846106  0.38702789833154577  0.4833557586069475  1.0000
  C   C32       1.0  0.09826385467992779  0.6859003116232643  0.2868525560547325  1.0000
  C   C33       1.0  0.5389111618103684  0.35773562047006635  0.3557539340659586  1.0000
  C   C34       1.0  0.003638756848147271  0.7924469661409219  0.5951824792194457  1.0000
  C   C35       1.0  0.46111829208631133  0.8168227718485354  0.8187969590069172  1.0000
  C   C36       1.0  0.9962322459045864  0.5915071347226472  0.7887284450418119  1.0000
  C   C37       1.0  0.0018640447531481923  0.18307611042790467  0.6441627410579754  1.0000
  C   C38       1.0  0.1972816010210748  0.4085663927976099  0.4048078233817661  1.0000
  C   C39       1.0  0.9980909752010235  0.6423107621321622  0.18119372069868686  1.0000
  C   C40       1.0  0.8028525935830614  0.20751929724261237  0.21131424965438578  1.0000
  C   C41       1.0  0.10867727924787146  0.9938276021682952  0.6695680115171073  1.0000
  C   C42       1.0  0.5939553801604943  0.9117648890992243  0.020960601416007155  1.0000
  C   C43       1.0  0.8911256233479464  0.5609012768181287  0.8850232127021086  1.0000
  C   C44       1.0  0.40629218265218003  0.42721067605301494  0.3180763756592526  1.0000
  C   C45       1.0  0.3243555985499497  0.43925853702057077  0.33049551202240923  1.0000
  C   C46       1.0  0.8908104423831277  0.5729378964371251  0.9790446465460149  1.0000
  C   C47       1.0  0.6759402588825197  0.006103070829560453  0.1149783303625896  1.0000
  C   C48       1.0  0.10906622488883497  0.0882034085938058  0.6819744975458875  1.0000
  C   C49       1.0  0.007032704701828281  0.8902899152246916  0.6291381374728927  1.0000
  C   C50       1.0  0.5626281988616314  0.9111914891310704  0.9176436120587964  1.0000
  C   C51       1.0  0.9928286936241902  0.6220863119545682  0.8831837160226356  1.0000
  C   C52       1.0  0.43747713434537877  0.35512444951071853  0.3486936215260883  1.0000
  C   C53       1.0  0.2611695491901358  0.3780165553590251  0.3708438576848891  1.0000
  C   C54       1.0  0.9935969283734067  0.644966517191584  0.08235728039133515  1.0000
  C   C55       1.0  0.7389912808798157  0.1096533755495131  0.11686670082622184  1.0000
  C   C56       1.0  0.006316337701967553  0.08872673165367209  0.6512730871755962  1.0000
  F   F1        1.0  0.26757796737544465  0.22233941106829025  0.6629653675443946  1.0000
  F   F2        1.0  0.7327611862637794  0.9564461902123186  0.2759634646556392  1.0000
  F   F3        1.0  0.7322130529308878  0.3954876709138942  0.9546875018108024  1.0000
  F   F4        1.0  0.2677333477925075  0.5435569956892721  0.22424589454902116  1.0000
  F   F5        1.0  0.5596015837794184  0.6047453653439446  0.3373385996204589  1.0000
  F   F6        1.0  0.6804362177747905  0.45667080170645136  0.7240330263175494  1.0000
  F   F7        1.0  0.4408461387794489  0.7775263660499692  0.04525026920757812  1.0000
  F   F8        1.0  0.31926932644844197  0.04348520783360486  0.7759251471035071  1.0000
  H   H1        1.0  0.5944302133307815  0.4652801406691793  0.27132052592907036  1.0000
  H   H2        1.0  0.1966961397238761  0.846056875335691  0.673632885256083  1.0000
  H   H3        1.0  0.40551787134899797  0.6769169743293162  0.8708215843133542  1.0000
  H   H4        1.0  0.8031712242972018  0.4768554972147213  0.6492030563706379  1.0000
  H   H5        1.0  0.19383393148243758  0.32300201958924635  0.7285689639162456  1.0000
  H   H6        1.0  0.1723990334786549  0.5231813310452864  0.32636080564127207  1.0000
  H   H7        1.0  0.8061746289794413  0.5346842187136787  0.1291533238746965  1.0000
  H   H8        1.0  0.8276960000716258  0.15398210889517125  0.35084932171596966  1.0000
  H   H9        1.0  0.30269221495386484  0.21189194364593072  0.8076831054252621  1.0000
  H   H10       1.0  0.5886977212594997  0.9671093279632289  0.20583798748968712  1.0000
  H   H11       1.0  0.6972441687635114  0.50517216460225  0.9092079732727925  1.0000
  H   H12       1.0  0.41177480465963606  0.6173501535331027  0.37909326819366373  1.0000
  H   H13       1.0  0.4044613619094548  0.49526193591970014  0.1924826910268321  1.0000
  H   H14       1.0  0.7612520477521799  0.3827804483306423  0.7941588391544059  1.0000
  H   H15       1.0  0.5960066326172039  0.787993202511764  0.09073665283584373  1.0000
  H   H16       1.0  0.238279669498624  0.03269050735075734  0.6211087895569989  1.0000
  H   H17       1.0  0.1908597921693485  0.6667329820639977  0.8481501757221465  1.0000
  H   H18       1.0  0.5821975458456591  0.26472996892342576  0.45735457757514547  1.0000
  H   H19       1.0  0.8089776825295304  0.6571237921639225  0.47572306733835745  1.0000
  H   H20       1.0  0.41783699676794567  0.8751919889744144  0.6825535044605502  1.0000
  H   H21       1.0  0.8186318330098316  0.34271595584083764  0.15183218051970468  1.0000
  H   H22       1.0  0.8072972240436016  0.12483346606965993  0.5425841859784555  1.0000
  H   H23       1.0  0.18139381731248955  0.3332656709647351  0.5242319585389197  1.0000
  H   H24       1.0  0.1926723384056216  0.7352945576633089  0.31748235986142953  1.0000
  H   H25       1.0  0.8223046317441958  0.8153720471849581  0.5793702253657642  1.0000
  H   H26       1.0  0.6184900454910573  0.02086186753323457  0.8431362415900095  1.0000
  H   H27       1.0  0.1775834482321836  0.7569250953645716  0.9929829311635882  1.0000
  H   H28       1.0  0.38131570937270703  0.22458370983451903  0.4022176879712305  1.0000
  H   H29       1.0  0.23591559260273692  0.242999218533093  0.420491933034249  1.0000
  H   H30       1.0  0.17778864284348814  0.7753295607648596  0.15688786188167098  1.0000
  H   H31       1.0  0.7640333221883182  0.18460315477125988  0.007090043584661045  1.0000
  H   H32       1.0  0.8222120739721603  0.9790487009593816  0.5976300803046045  1.0000
  N   N1        1.0  0.7015911385854494  0.4084363868563159  0.3489078280210903  1.0000
  N   N2        1.0  0.06220331569265642  0.6868093350742371  0.5533082826706491  1.0000
  N   N3        1.0  0.29827700537435226  0.6473471579244148  0.7068229601103583  1.0000
  N   N4        1.0  0.9376834779382933  0.49106133599514823  0.6244985573542081  1.0000
  N   N5        1.0  0.05940951621636254  0.3525963604672525  0.6509407883883752  1.0000
  N   N6        1.0  0.13340843174280081  0.5089255306062981  0.4466333312815464  1.0000
  N   N7        1.0  0.9406055387270482  0.5914556992599245  0.2931725962492137  1.0000
  N   N8        1.0  0.8665971466404866  0.3132057444265752  0.3755312072809218  1.0000
  N   N9        1.0  0.0592180949740068  0.5514422081598908  0.6866966305485674  1.0000
  N   N10       1.0  0.6979481996323783  0.344713807361387  0.408159295575821  1.0000
  N   N11       1.0  0.9406739518960093  0.6274174123097181  0.49211814801167014  1.0000
  N   N12       1.0  0.30193692909611525  0.7102402314199808  0.6467365346520566  1.0000
  N   N13       1.0  0.864778434515287  0.37257038791378955  0.31327262957876895  1.0000
  N   N14       1.0  0.9365283208061468  0.2897693080723086  0.5917438015650448  1.0000
  N   N15       1.0  0.13521542555304908  0.44851203232241926  0.5078379067596612  1.0000
  N   N16       1.0  0.0634918810680958  0.6551703273980963  0.35323662082274143  1.0000
  Zn  Zn1       1.0  0.8562292059924559  0.499967959203218  0.3562256468754298  1.0000
  Zn  Zn2       1.0  0.14762683816243066  0.6476660930960988  0.5000106108384299  1.0000
  Zn  Zn3       1.0  0.14367686411695485  0.4999680066452185  0.6437397401964801  1.0000
  Zn  Zn4       1.0  0.8522542685885597  0.35228048206080587  0.4999872153846922  1.0000
