data_image0
_chemical_formula_structural       Ag4H8C16N12O12
_chemical_formula_sum              "Ag4 H8 C16 N12 O12"
_cell_length_a       5.5130762270086136
_cell_length_b       8.284037058451872
_cell_length_c       13.661711651570439
_cell_angle_alpha    89.99601580585872
_cell_angle_beta     91.77417686395441
_cell_angle_gamma    90.00786412037945

_space_group_name_H-M_alt    "P 1"
_space_group_IT_number       1

loop_
  _space_group_symop_operation_xyz
  'x, y, z'

loop_
  _atom_site_type_symbol
  _atom_site_label
  _atom_site_symmetry_multiplicity
  _atom_site_fract_x
  _atom_site_fract_y
  _atom_site_fract_z
  _atom_site_occupancy
  Ag  Ag1       1.0  0.23606110496233865  0.9916417383612167  0.2696415069540308  1.0000
  Ag  Ag2       1.0  0.7639339728264216  0.4916386920821483  0.7303755262628471  1.0000
  Ag  Ag3       1.0  0.922964996777999  0.20775966422728942  0.887539534060707  1.0000
  Ag  Ag4       1.0  0.07697568298400628  0.707763765293052  0.1124584000598077  1.0000
  H   H1        1.0  0.7712835942761558  0.22348065824085236  0.3167951443518362  1.0000
  H   H2        1.0  0.2287314684318672  0.7234779288430245  0.683203595513291  1.0000
  H   H3        1.0  0.5038412009467663  0.34945393614540177  0.02405063606653359  1.0000
  H   H4        1.0  0.4962120319362455  0.8494735892136378  0.975942364028711  1.0000
  H   H5        1.0  0.12892863825413767  0.5990570495133695  0.3411872614447732  1.0000
  H   H6        1.0  0.8710416304280244  0.09902891572073001  0.6588155098520119  1.0000
  H   H7        1.0  0.5248067079699651  0.8488365226298598  0.4690054198445779  1.0000
  H   H8        1.0  0.4752442525373226  0.3488319545764328  0.5309912255021773  1.0000
  C   C1        1.0  0.613020385841139  0.30129523495909893  0.1764749787023234  1.0000
  C   C2        1.0  0.3869852202908675  0.80130727314522  0.8235211945832077  1.0000
  C   C3        1.0  0.780292985551199  0.21862525102839211  0.2371244355718432  1.0000
  C   C4        1.0  0.21970426058009454  0.7186279229753725  0.7628712459081726  1.0000
  C   C5        1.0  0.629673961406155  0.28746574339027126  0.07439311859800309  1.0000
  C   C6        1.0  0.3703540157549127  0.7874787522886635  0.9256051127713221  1.0000
  C   C7        1.0  0.9740364868170772  0.12205020646640462  0.0972604245095425  1.0000
  C   C8        1.0  0.025933925268922985  0.622066455849357  0.9027497929561223  1.0000
  C   C9        1.0  0.8324911182284822  0.7132325923447879  0.418111008953872  1.0000
  C   C10       1.0  0.1675294607791784  0.21321425635390773  0.5818884575855634  1.0000
  C   C11       1.0  0.959585607754626  0.6676222406376198  0.3351835998019013  1.0000
  C   C12       1.0  0.040392097816081204  0.1676070042331901  0.6648153398057416  1.0000
  C   C13       1.0  0.6200835497541775  0.8051491329413025  0.4055121588222335  1.0000
  C   C14       1.0  0.37995943159773304  0.3051476916970087  0.5944883169843393  1.0000
  C   C15       1.0  0.6563817206818995  0.788424353981064  0.23425936416738577  1.0000
  C   C16       1.0  0.343606005010514  0.28843104484013793  0.7657481299566626  1.0000
  N   N1        1.0  0.430551709904968  0.3992107157835604  0.2176840997394223  1.0000
  N   N2        1.0  0.5694662028396708  0.8992153992080177  0.7823044447860781  1.0000
  N   N3        1.0  0.950098578117732  0.12739944471118753  0.1990514654300739  1.0000
  N   N4        1.0  0.049869958991116924  0.6273895503657057  0.8009598614615712  1.0000
  N   N5        1.0  0.8063903631624781  0.2028104923416478  0.0365115721014959  1.0000
  N   N6        1.0  0.19361151961717124  0.7028192106556403  0.963496855752318  1.0000
  N   N7        1.0  0.9260991386933526  0.6780116785250956  0.5139836461460874  1.0000
  N   N8        1.0  0.0739185938829223  0.1779984978272608  0.486013417519679  1.0000
  N   N9        1.0  0.8768000925909049  0.7066841450081187  0.24627249741256924  1.0000
  N   N10       1.0  0.12315085936378978  0.20669057366460217  0.7537293986027507  1.0000
  N   N11       1.0  0.5348358305078591  0.8428843432649985  0.31690722933753795  1.0000
  N   N12       1.0  0.4651854248765943  0.34288775956149925  0.6830956651012201  1.0000
  O   O1        1.0  0.1447286588659082  0.04619315107120062  0.062013946916827906  1.0000
  O   O2        1.0  0.8551895897638673  0.5462257327076472  0.9380068131048702  1.0000
  O   O3        1.0  0.4641567781104285  0.45169663526400683  0.3031237535920397  1.0000
  O   O4        1.0  0.5358651918574963  0.9516819327325833  0.6968559629386631  1.0000
  O   O5        1.0  0.24392784029451056  0.42915094804963166  0.1660503929666959  1.0000
  O   O6        1.0  0.7560986371609673  0.9291722921952755  0.8339366012660037  1.0000
  O   O7        1.0  0.5705093660437939  0.8160628118727402  0.15104410696044823  1.0000
  O   O8        1.0  0.4294645957724865  0.31607601947985847  0.8489577930523852  1.0000
  O   O9        1.0  0.1343192231859121  0.6177411398977315  0.5236359375723794  1.0000
  O   O10       1.0  0.8656685540663888  0.11774084410632209  0.47636395091939937  1.0000
  O   O11       1.0  0.7960423337151991  0.7101821561931132  0.5851600926883266  1.0000
  O   O12       1.0  0.20401366293648948  0.21016742430730062  0.4148374436077873  1.0000
