data_image0
_chemical_formula_structural       Zn4H24C76N16O16F24
_chemical_formula_sum              "Zn4 H24 C76 N16 O16 F24"
_cell_length_a       17.24524096953879
_cell_length_b       22.854950499671876
_cell_length_c       23.942643662407797
_cell_angle_alpha    93.80046308559352
_cell_angle_beta     89.88576481675726
_cell_angle_gamma    95.90562629773765

_space_group_name_H-M_alt    "P 1"
_space_group_IT_number       1

loop_
  _space_group_symop_operation_xyz
  'x, y, z'

loop_
  _atom_site_type_symbol
  _atom_site_label
  _atom_site_symmetry_multiplicity
  _atom_site_fract_x
  _atom_site_fract_y
  _atom_site_fract_z
  _atom_site_occupancy
  Zn  Zn1       1.0  0.9983254800151116  0.9516147412296619  0.4599198954873387  1.0000
  Zn  Zn2       1.0  0.9983434676157896  0.03657343734074909  0.54997325395491  1.0000
  Zn  Zn3       1.0  0.9473293994400719  0.5288568735858021  0.0529458472247484  1.0000
  Zn  Zn4       1.0  0.9477360712696523  0.44296323374916113  0.9653465424395762  1.0000
  H   H1        1.0  0.02848185029366591  0.6486542611506892  0.07654533603954411  1.0000
  H   H2        1.0  0.038771303201578226  0.7293795951333878  0.1548296964891378  1.0000
  H   H3        1.0  0.09114227541732596  0.8650017739225223  0.26726264027838914  1.0000
  H   H4        1.0  0.9049577518210016  0.7566772571747576  0.3450270487884382  1.0000
  H   H5        1.0  0.05348644243204601  0.4160408570926464  0.8713639416220785  1.0000
  H   H6        1.0  0.06335093762882592  0.33703225331260717  0.7930896936502947  1.0000
  H   H7        1.0  0.10636190119544152  0.23295117421844225  0.6593841222660046  1.0000
  H   H8        1.0  0.8972490304638825  0.1446068574103734  0.7297959038641082  1.0000
  H   H9        1.0  0.7555459273402648  0.05123635482311071  0.5636803420826197  1.0000
  H   H10       1.0  0.6092655969733372  0.047512896333287806  0.561978537383979  1.0000
  H   H11       1.0  0.3958410978531078  0.08516207725240581  0.5716748641928504  1.0000
  H   H12       1.0  0.38526268970673533  0.9279304282454675  0.4599600202092518  1.0000
  H   H13       1.0  0.9447680495453954  0.5538292043302134  0.8274563038572823  1.0000
  H   H14       1.0  0.957305781092714  0.6309952014300677  0.7568832454481155  1.0000
  H   H15       1.0  0.9505589668001946  0.7164743491389701  0.6262257470466324  1.0000
  H   H16       1.0  0.01943641378930749  0.8522541041095052  0.7561732624144852  1.0000
  H   H17       1.0  0.9957459421323874  0.4261626160039285  0.1873505040070995  1.0000
  H   H18       1.0  0.033722829979289805  0.3552361946495708  0.255943622037627  1.0000
  H   H19       1.0  0.0500552874475275  0.2725645927722979  0.3873376689086996  1.0000
  H   H20       1.0  0.0627889483393531  0.13758955219741154  0.253279458067162  1.0000
  H   H21       1.0  0.705981421709005  0.5391773422024073  0.07107388539384371  1.0000
  H   H22       1.0  0.5604327864029343  0.5405665304461494  0.0667882856942015  1.0000
  H   H23       1.0  0.33844173126872334  0.5371449410228735  0.106065312552424  1.0000
  H   H24       1.0  0.34429363793016426  0.4644179492602589  0.9348915225939081  1.0000
  C   C1        1.0  0.8489579767098406  0.9916729408692574  0.4977589772134863  1.0000
  C   C2        1.0  0.9892181424850791  0.9121974446322909  0.5737251647436636  1.0000
  C   C3        1.0  0.14725645361841092  0.9986701732454364  0.51344593193636  1.0000
  C   C4        1.0  0.0173363063716323  0.0747703164608353  0.43486977608163363  1.0000
  C   C5        1.0  0.9551843729731361  0.5674736733784087  0.9383758208536932  1.0000
  C   C6        1.0  0.09949259722660743  0.4994132000527216  0.0095481001533813  1.0000
  C   C7        1.0  0.9672929200018102  0.4075772190386289  0.0785142193557959  1.0000
  C   C8        1.0  0.797460430103584  0.47678416326122175  0.006455046854398506  1.0000
  C   C9        1.0  0.9961733930431363  0.6445552896901603  0.11545498772559172  1.0000
  C   C10       1.0  0.0014987289117201136  0.6884191746446007  0.1582478519727246  1.0000
  C   C11       1.0  0.9574649534713943  0.679781621090882  0.20722584289944726  1.0000
  C   C12       1.0  0.9100209217159757  0.6265745681307422  0.210350998793551  1.0000
  C   C13       1.0  0.9089593801743162  0.5844903868601463  0.16506843615903216  1.0000
  C   C14       1.0  0.050586585714732714  0.8564375403557349  0.3012779471869891  1.0000
  C   C15       1.0  0.9980113202765468  0.8056074399831984  0.3001435363262104  1.0000
  C   C16       1.0  0.946369117427153  0.7958169857913617  0.344672516598429  1.0000
  C   C17       1.0  0.9509179221183004  0.8385851996097103  0.3884858983947836  1.0000
  C   C18       1.0  0.04878925124616982  0.8957190544336627  0.348008154250067  1.0000
  C   C19       1.0  0.010407742423240092  0.37778966422694527  0.8653507402851516  1.0000
  C   C20       1.0  0.015680772516411395  0.3344697864792535  0.8229151057352126  1.0000
  C   C21       1.0  0.9580774534545142  0.28587722394418336  0.8183797204064263  1.0000
  C   C22       1.0  0.8981198305528508  0.28344877293003634  0.8579496383741373  1.0000
  C   C23       1.0  0.8975347173089858  0.3295428170986341  0.8995619670567548  1.0000
  C   C24       1.0  0.06024570996832071  0.19676707568883964  0.6593627804304774  1.0000
  C   C25       1.0  0.0020871755984118055  0.1947546276077787  0.7000685863812565  1.0000
  C   C26       1.0  0.9432377631863815  0.14744490692461207  0.6987037447071672  1.0000
  C   C27       1.0  0.9467161449104821  0.1044686025455519  0.6556208748091734  1.0000
  C   C28       1.0  0.0566410162202189  0.150357377366646  0.6185587464717557  1.0000
  C   C29       1.0  0.7616484635897792  0.9889720483709967  0.4934829840880753  1.0000
  C   C30       1.0  0.7209356695309664  0.0232942655740729  0.5323745223447531  1.0000
  C   C31       1.0  0.6405817068449835  0.0214558695503371  0.53152599290393  1.0000
  C   C32       1.0  0.5965502954675657  0.9848031517469594  0.4909273636485665  1.0000
  C   C33       1.0  0.6365804063647361  0.9507116869628051  0.45176274320042614  1.0000
  C   C34       1.0  0.7178824313930505  0.9528423762229321  0.45295742867727984  1.0000
  C   C35       1.0  0.3619885402171334  0.0495199365339047  0.5473439871859327  1.0000
  C   C36       1.0  0.3996281787071965  0.007165195086372503  0.5157642450874178  1.0000
  C   C37       1.0  0.35615771480962627  0.9610919674734858  0.484289041646548  1.0000
  C   C38       1.0  0.27585316149012584  0.9590578494466938  0.4850490272952896  1.0000
  C   C39       1.0  0.23458727901479648  0.0008587456869050994  0.5155697037316712  1.0000
  C   C40       1.0  0.2812250939575733  0.04555591392177401  0.5465590718183577  1.0000
  C   C41       1.0  0.9648493655241025  0.6155091469369722  0.8983493249677253  1.0000
  C   C42       1.0  0.9570381920266796  0.6004312206849177  0.8404463106060263  1.0000
  C   C43       1.0  0.9642153205085507  0.6426715267636567  0.8015477566023179  1.0000
  C   C44       1.0  0.9808862574191582  0.7028126074952895  0.818896302147877  1.0000
  C   C45       1.0  0.989866439938247  0.718188869905049  0.876512194791104  1.0000
  C   C46       1.0  0.9815836117813673  0.6751302449499121  0.9155927505852121  1.0000
  C   C47       1.0  0.9666346380258732  0.762637679073741  0.6392869453775276  1.0000
  C   C48       1.0  0.9841009897001033  0.7795458592869124  0.6955349231361794  1.0000
  C   C49       1.0  0.005145835703800114  0.839059036719199  0.7125926905528601  1.0000
  C   C50       1.0  0.006925265084994722  0.880198250141973  0.6727135444740638  1.0000
  C   C51       1.0  0.9885319595614989  0.8659606450487162  0.6156323152201395  1.0000
  C   C52       1.0  0.969057987240241  0.8057130524585006  0.6009668844257732  1.0000
  C   C53       1.0  0.9941810515402594  0.36405138207444304  0.1164626636519799  1.0000
  C   C54       1.0  0.005753576518117105  0.38117211875324136  0.17375859242918779  1.0000
  C   C55       1.0  0.0273657359159429  0.34258200510633685  0.21142823661696036  1.0000
  C   C56       1.0  0.03937437090625911  0.2842868600076969  0.19315576028691336  1.0000
  C   C57       1.0  0.031474462690347614  0.2675692096425309  0.1357157766425487  1.0000
  C   C58       1.0  0.008656285420130413  0.30680547797781094  0.09794534350044871  1.0000
  C   C59       1.0  0.049786132314885406  0.2263262825419972  0.3730322419329752  1.0000
  C   C60       1.0  0.05675867845168631  0.21001202435013516  0.3159833261833569  1.0000
  C   C61       1.0  0.05681124713735391  0.15045688676499216  0.2975273918172121  1.0000
  C   C62       1.0  0.04635916189273101  0.10853037082603831  0.33654132119471575  1.0000
  C   C63       1.0  0.034807617426913906  0.12189305628486842  0.3943627247958261  1.0000
  C   C64       1.0  0.03855967890231681  0.1824863530027585  0.4105160350095929  1.0000
  C   C65       1.0  0.7102365990076152  0.4740772769973489  0.003050558889753998  1.0000
  C   C66       1.0  0.6706480235021388  0.5108567723303069  0.0404476302579724  1.0000
  C   C67       1.0  0.590704620068536  0.5116502712053902  0.03829080351023611  1.0000
  C   C68       1.0  0.5460279496369226  0.4749987240343786  0.9980528137640547  1.0000
  C   C69       1.0  0.584815178759321  0.437919616808479  0.9608566050168008  1.0000
  C   C70       1.0  0.665701840288449  0.4373122115653559  0.9633878024925195  1.0000
  C   C71       1.0  0.3083110268970942  0.521871549129763  0.0670709146519357  1.0000
  C   C72       1.0  0.3499095924432751  0.5003181332446047  0.021211676379735412  1.0000
  C   C73       1.0  0.31166502270805563  0.4805539350009768  0.9706336381045091  1.0000
  C   C74       1.0  0.23201629812025001  0.4820991987875729  0.9678848005035405  1.0000
  C   C75       1.0  0.1867302632139314  0.5021483127680141  0.012930810121041195  1.0000
  C   C76       1.0  0.22826676067946042  0.5221242384054392  0.06206655250199591  1.0000
  N   N1        1.0  0.9500953838719965  0.5931395187769226  0.11923096590685842  1.0000
  N   N2        1.0  0.9555741292156414  0.7197908273471257  0.2544146895624806  1.0000
  N   N3        1.0  0.0016334617310392063  0.7662408878395436  0.2519761185232312  1.0000
  N   N4        1.0  0.00037412096172319596  0.8879969809343322  0.391066319670891  1.0000
  N   N5        1.0  0.951224749274587  0.37526288846633793  0.9028835001140223  1.0000
  N   N6        1.0  0.9545525641537509  0.23837810966014675  0.7775090819553299  1.0000
  N   N7        1.0  0.007335616257258012  0.24302889822605075  0.7409139847272925  1.0000
  N   N8        1.0  0.0014582600566442024  0.10476907157705989  0.6157971070269282  1.0000
  N   N9        1.0  0.5148607321933767  0.9783982926015968  0.4867294123520267  1.0000
  N   N10       1.0  0.48182132531842825  0.0146885612972625  0.5187169964292906  1.0000
  N   N11       1.0  0.9889152748200729  0.7494520608443693  0.7831399804700183  1.0000
  N   N12       1.0  0.9777620285103127  0.7331329723184583  0.7318307938659884  1.0000
  N   N13       1.0  0.051461590027962203  0.23941132738888632  0.2285116665500411  1.0000
  N   N14       1.0  0.057147798841889114  0.25652285662630453  0.2799993874396236  1.0000
  N   N15       1.0  0.4651336126458715  0.4733745270023562  0.9907044937008251  1.0000
  N   N16       1.0  0.4308409897349108  0.5003628006877889  0.0299562765549481  1.0000
  O   O1        1.0  0.8811871135937679  0.949102808898772  0.47409317243812404  1.0000
  O   O2        1.0  0.8831794995755544  0.03620153730141599  0.5258211030887097  1.0000
  O   O3        1.0  0.9673740309242833  0.9615422922716378  0.5912840138197736  1.0000
  O   O4        1.0  0.011377034860473121  0.8979013508339477  0.5245455823350227  1.0000
  O   O5        1.0  0.11284081509110422  0.017680530115001102  0.5568664672763362  1.0000
  O   O6        1.0  0.11532207879272253  0.978289682125258  0.4674751484467805  1.0000
  O   O7        1.0  0.9888584593981308  0.024430301808728003  0.4145688857560046  1.0000
  O   O8        1.0  0.032227090530191994  0.08925752816992367  0.4861890210872133  1.0000
  O   O9        1.0  0.9341040913730723  0.5813590983276029  0.9880348187241808  1.0000
  O   O10       1.0  0.9681705962326177  0.5163044459800618  0.9186076687302034  1.0000
  O   O11       1.0  0.06565749522231101  0.4536048474474725  0.9833701139861901  1.0000
  O   O12       1.0  0.06704322488307211  0.5415117105631637  0.0336438386491977  1.0000
  O   O13       1.0  0.9392217188841911  0.3887097082244821  0.0309957678345754  1.0000
  O   O14       1.0  0.9751153976356193  0.46128289129064365  0.09780921124833239  1.0000
  O   O15       1.0  0.8295164054621083  0.5030357621919136  0.0503592855949861  1.0000
  O   O16       1.0  0.8325540089803241  0.45371969511381144  0.9651745897959003  1.0000
  F   F1        1.0  0.8645848467045666  0.5334560762143497  0.1682539937009082  1.0000
  F   F2        1.0  0.8662185716654633  0.6147169327376005  0.2552696019629366  1.0000
  F   F3        1.0  0.09808672819512762  0.9445818050088022  0.3511963887883383  1.0000
  F   F4        1.0  0.9038241282772504  0.8316898978223151  0.43228886380640574  1.0000
  F   F5        1.0  0.8406363753483533  0.3272187412207614  0.9371517469009588  1.0000
  F   F6        1.0  0.8414084098721588  0.23880547950170697  0.8570432730670134  1.0000
  F   F7        1.0  0.1109811904430629  0.1503960845057222  0.5791182168044955  1.0000
  F   F8        1.0  0.8921330976774158  0.0583716028729668  0.6517681439309229  1.0000
  F   F9        1.0  0.7509977868161074  0.9193443593734756  0.4128959713156704  1.0000
  F   F10       1.0  0.5973311364184042  0.9154514112021984  0.4115960703637498  1.0000
  F   F11       1.0  0.24725774890720237  0.0883657708576635  0.5765200057442285  1.0000
  F   F12       1.0  0.2353114436053261  0.9132530908991399  0.4553482031136369  1.0000
  F   F13       1.0  0.9923169765236681  0.6939465264391629  0.970093888015633  1.0000
  F   F14       1.0  0.006658100458885504  0.7749216675814666  0.8956330477343855  1.0000
  F   F15       1.0  0.9496294160851022  0.7878117411942468  0.5472428431405021  1.0000
  F   F16       1.0  0.02913434988861503  0.9372045277232246  0.6899251043909302  1.0000
  F   F17       1.0  0.0019713173671718014  0.2866969976698357  0.0436828962811759  1.0000
  F   F18       1.0  0.04416052606048741  0.21283035251047278  0.1157530336983825  1.0000
  F   F19       1.0  0.028253014511974994  0.20066408210801964  0.46485853687007506  1.0000
  F   F20       1.0  0.04743251881660631  0.051631394603475704  0.3169633330978101  1.0000
  F   F21       1.0  0.6972583911267379  0.3994797416344086  0.9264325585101787  1.0000
  F   F22       1.0  0.5446345968379732  0.4015048091969364  0.9220380617606025  1.0000
  F   F23       1.0  0.1890401234070893  0.5413024237769548  0.1077749061536935  1.0000
  F   F24       1.0  0.19596698729361614  0.4641372043449508  0.9182353722383354  1.0000
