data_image0
_chemical_formula_structural       Gd2Cu4H16C16N12Cl2O24
_chemical_formula_sum              "Gd2 Cu4 H16 C16 N12 Cl2 O24"
_cell_length_a       6.294344023539642
_cell_length_b       11.327384281422798
_cell_length_c       12.294853139476533
_cell_angle_alpha    102.27796685430381
_cell_angle_beta     89.9985867634363
_cell_angle_gamma    89.99991385954183

_space_group_name_H-M_alt    "P 1"
_space_group_IT_number       1

loop_
  _space_group_symop_operation_xyz
  'x, y, z'

loop_
  _atom_site_type_symbol
  _atom_site_label
  _atom_site_symmetry_multiplicity
  _atom_site_fract_x
  _atom_site_fract_y
  _atom_site_fract_z
  _atom_site_occupancy
  Gd  Gd1       1.0  0.5179409172691508  0.7499972447514551  0.5000010077582928  1.0000
  Gd  Gd2       1.0  0.48206668716312634  0.2500032376550648  0.49999954838675364  1.0000
  Cu  Cu1       1.0  0.13209543514459912  0.38686947044651276  0.080093409445368  1.0000
  Cu  Cu2       1.0  0.1319713433201528  0.11312020803858051  0.9198619167284363  1.0000
  Cu  Cu3       1.0  0.8679089919316854  0.6131274597994931  0.9199031427200737  1.0000
  Cu  Cu4       1.0  0.8680283174725859  0.8868802743830458  0.08013863947105891  1.0000
  H   H1        1.0  0.7221268541539133  0.5302753545275465  0.5391424019656412  1.0000
  H   H2        1.0  0.7221263671275084  0.9697324903781989  0.4608768817139719  1.0000
  H   H3        1.0  0.27787916166327165  0.46972249437693153  0.46085353072496105  1.0000
  H   H4        1.0  0.27787647099028595  0.030273335597136998  0.5391288702336681  1.0000
  H   H5        1.0  0.7916253839275174  0.5426174080241213  0.4186498809173145  1.0000
  H   H6        1.0  0.7915748025113347  0.957384660638489  0.5813721671947433  1.0000
  H   H7        1.0  0.2083774543470228  0.45738491171444207  0.581349436332502  1.0000
  H   H8        1.0  0.2084216808126058  0.0426149031276921  0.418629008490484  1.0000
  H   H9        1.0  0.7263494874365365  0.6399708997105195  0.2691006376103289  1.0000
  H   H10       1.0  0.7262874511276679  0.8600388431221976  0.7309132985181038  1.0000
  H   H11       1.0  0.27364858455343477  0.3600322468390403  0.7309029216010927  1.0000
  H   H12       1.0  0.2737153872118442  0.13996806992383173  0.2690829214119432  1.0000
  H   H13       1.0  0.7008484013915538  0.7832612770655986  0.2765721962391581  1.0000
  H   H14       1.0  0.700787193683695  0.7167529111192154  0.7234519558503294  1.0000
  H   H15       1.0  0.29915443685204934  0.21674283406616718  0.7234283127791983  1.0000
  H   H16       1.0  0.29921882193487204  0.283254767482994  0.2765517469154801  1.0000
  C   C1        1.0  0.28713293444770477  0.5376119532843974  0.2769642166916952  1.0000
  C   C2        1.0  0.2870613939170569  0.9623695884203516  0.7230046914509387  1.0000
  C   C3        1.0  0.7128826135292315  0.46238845255737704  0.7230403905596532  1.0000
  C   C4        1.0  0.7129335009745292  0.037625672930005294  0.2769841871541061  1.0000
  C   C5        1.0  0.20174185320084356  0.6205302863796902  0.20901590797339503  1.0000
  C   C6        1.0  0.2017388949823627  0.8794602920258469  0.7909730928079811  1.0000
  C   C7        1.0  0.7982625739723802  0.3794721711451956  0.7909761171761929  1.0000
  C   C8        1.0  0.798254410860807  0.12054015978801402  0.20902908389937383  1.0000
  C   C9        1.0  0.21334646010181058  0.8537278707124333  0.3049582498727831  1.0000
  C   C10       1.0  0.21330429592091352  0.6462690636348256  0.6950278763165301  1.0000
  C   C11       1.0  0.7866468457923049  0.1462735303827714  0.6950416869063217  1.0000
  C   C12       1.0  0.7866778888508393  0.3537277747939243  0.3049735373942539  1.0000
  C   C13       1.0  0.15843429072676682  0.7441091615231483  0.21849019437859601  1.0000
  C   C14       1.0  0.15842106814088205  0.7558832199359814  0.781508694228691  1.0000
  C   C15       1.0  0.8415653700610267  0.25589494961466397  0.7815103146615385  1.0000
  C   C16       1.0  0.8415627054427195  0.24411822710713688  0.2184888119193005  1.0000
  N   N1        1.0  0.11576229491248571  0.5628663394421665  0.11094773400510147  1.0000
  N   N2        1.0  0.11581650466099094  0.937120600382663  0.8890603172697098  1.0000
  N   N3        1.0  0.8842421321697814  0.43712968745227704  0.8890486273921496  1.0000
  N   N4        1.0  0.8841768011761959  0.06288075478276062  0.1109420502058356  1.0000
  N   N5        1.0  0.0219822482066974  0.6425158561286325  0.0637911674186569  1.0000
  N   N6        1.0  0.022071052572826506  0.857474778193293  0.9362335164192147  1.0000
  N   N7        1.0  0.9780205900348523  0.35748280427389295  0.9362098174548166  1.0000
  N   N8        1.0  0.9779397293012411  0.14252206018107222  0.0637678970955662  1.0000
  N   N9        1.0  0.04565422153851271  0.7527877920586618  0.12678003451240724  1.0000
  N   N10       1.0  0.045708218948703916  0.7471973934125983  0.8732399395278634  1.0000
  N   N11       1.0  0.9543438504683694  0.24720991907157952  0.8732231903219798  1.0000
  N   N12       1.0  0.9542946193547196  0.2527976842035217  0.1267586618085232  1.0000
  Cl  Cl1       1.0  0.4115217982276604  0.24998991064449427  0.9999871110937661  1.0000
  Cl  Cl2       1.0  0.5884778627109031  0.7500115976081078  7.154016728409127e-06  1.0000
  O   O1        1.0  0.28542958801141793  0.42482083765234097  0.22705818016498108  1.0000
  O   O2        1.0  0.28531569313772565  0.07516735418516872  0.7728948532468252  1.0000
  O   O3        1.0  0.7145764279625199  0.5751735050153642  0.7729313178277907  1.0000
  O   O4        1.0  0.7146633141173669  0.9248357924006501  0.22710870609526523  1.0000
  O   O5        1.0  0.348755725575515  0.5727477746776942  0.3757676153528706  1.0000
  O   O6        1.0  0.3487064122566466  0.9272253105506395  0.6242035923835374  1.0000
  O   O7        1.0  0.6512582340987976  0.42724025982388275  0.624219736975931  1.0000
  O   O8        1.0  0.651283716098746  0.07277420729784011  0.3758000140416939  1.0000
  O   O9        1.0  0.17243221248546092  0.9565581320984576  0.28645874519634157  1.0000
  O   O10       1.0  0.17235298365927326  0.5434347473960842  0.7135107836207197  1.0000
  O   O11       1.0  0.8275563269632118  0.0434367005860281  0.7135528199524331  1.0000
  O   O12       1.0  0.8276450885583916  0.4565685828726061  0.2864830528049112  1.0000
  O   O13       1.0  0.29785043729629024  0.8347283481112415  0.39368127331295005  1.0000
  O   O14       1.0  0.297826669342193  0.6652645747955859  0.6063069824470445  1.0000
  O   O15       1.0  0.7021476346955426  0.16526299362826793  0.6063230468405081  1.0000
  O   O16       1.0  0.7021650478809394  0.33473687223241916  0.393690523646498  1.0000
  O   O17       1.0  0.7594533631728881  0.5910462066184794  0.49491918873114576  1.0000
  O   O18       1.0  0.7594414726485541  0.9089578982241595  0.5050980100451953  1.0000
  O   O19       1.0  0.24055265256942704  0.4089543064109121  0.5050797469604973  1.0000
  O   O20       1.0  0.24055659936038862  0.09104526363532979  0.4949047389340748  1.0000
  O   O21       1.0  0.696079764870561  0.7176711485561285  0.3180887191619348  1.0000
  O   O22       1.0  0.69603140662462  0.7823359687207655  0.6819266799736353  1.0000
  O   O23       1.0  0.303921484606157  0.28233020659418884  0.6819136482591687  1.0000
  O   O24       1.0  0.30397619783570223  0.21767180173797843  0.3180721613883932  1.0000
