data_image0
_chemical_formula_structural       Zn2P2H38C52N4O14
_chemical_formula_sum              "Zn2 P2 H38 C52 N4 O14"
_cell_length_a       10.749702625229435
_cell_length_b       10.75426423039399
_cell_length_c       11.4734915527348
_cell_angle_alpha    106.15637135174802
_cell_angle_beta     97.44979593204754
_cell_angle_gamma    103.57471945685138

_space_group_name_H-M_alt    "P 1"
_space_group_IT_number       1

loop_
  _space_group_symop_operation_xyz
  'x, y, z'

loop_
  _atom_site_type_symbol
  _atom_site_label
  _atom_site_symmetry_multiplicity
  _atom_site_fract_x
  _atom_site_fract_y
  _atom_site_fract_z
  _atom_site_occupancy
  Zn  Zn1       1.0  0.4365343237182415  0.8753047702245809  0.2767676172863246  1.0000
  Zn  Zn2       1.0  0.5634638589312929  0.12469618671398314  0.7232324512203903  1.0000
  P   P1        1.0  0.20792559108943456  0.7694078879628776  0.42790592192918814  1.0000
  P   P2        1.0  0.7920733776497002  0.2305890290709911  0.5720905889087079  1.0000
  H   H1        1.0  0.9635736692056012  0.0523764739066124  0.9333413285996883  1.0000
  H   H2        1.0  0.03642121751214944  0.947609359980291  0.06666836314948907  1.0000
  H   H3        1.0  0.44473966351458233  0.10991729750332267  0.43518784745723593  1.0000
  H   H4        1.0  0.5552618988776885  0.8900856811680029  0.564811429071554  1.0000
  H   H5        1.0  0.5787982761925009  0.1351480502548554  0.38925226920802203  1.0000
  H   H6        1.0  0.4212032809597446  0.8648549297838457  0.6107478785986942  1.0000
  H   H7        1.0  0.9911743113027711  0.39407569965102607  0.03648042764555007  1.0000
  H   H8        1.0  0.008824652196338375  0.6059212187502182  0.9635169544702863  1.0000
  H   H9        1.0  0.057369838281815126  0.6340196687779596  0.17413639330337108  1.0000
  H   H10       1.0  0.9426342401415367  0.36597523035814555  0.8258550162749501  1.0000
  H   H11       1.0  0.2517635165008514  0.5243256351749751  0.4660940518607575  1.0000
  H   H12       1.0  0.748232571982541  0.4756813738258714  0.5339073127333691  1.0000
  H   H13       1.0  0.1870906171255839  0.28259833211145496  0.3246389461522057  1.0000
  H   H14       1.0  0.8129018814525394  0.7174026286515414  0.6753691171432123  1.0000
  H   H15       1.0  0.7612381738470474  0.7405031829277463  0.5095775211756219  1.0000
  H   H16       1.0  0.23875852200355746  0.2594957514590419  0.4904209648054305  1.0000
  H   H17       1.0  0.9854621680097111  0.7061659716077956  0.5453157203478511  1.0000
  H   H18       1.0  0.014537630870073306  0.2938339747403305  0.45468167786397373  1.0000
  H   H19       1.0  0.09552198101024345  0.9196409289158608  0.29096061460383277  1.0000
  H   H20       1.0  0.9044809208987206  0.08036002939361  0.7090356958387503  1.0000
  H   H21       1.0  0.8718601056329549  0.9508983055204328  0.2554555926816064  1.0000
  H   H22       1.0  0.1281403446650913  0.0491006354325947  0.7445433719598854  1.0000
  H   H23       1.0  0.4443540785373087  0.5692396115974957  0.279092801697267  1.0000
  H   H24       1.0  0.5556447607705125  0.43076033857858675  0.7209079619611813  1.0000
  H   H25       1.0  0.3905090743029191  0.3398212942514292  0.11915601381911498  1.0000
  H   H26       1.0  0.6094925808404881  0.6601786608493327  0.8808451088346629  1.0000
  H   H27       1.0  0.302865787047935  0.31223839921156576  0.8963925877239731  1.0000
  H   H28       1.0  0.6971389658846193  0.6877625692179167  0.10360831843850349  1.0000
  H   H29       1.0  0.24044578946104878  0.4226736929737384  0.7381801393503763  1.0000
  H   H30       1.0  0.759557634434863  0.5773292930828404  0.26182199034243325  1.0000
  H   H31       1.0  0.22923690284429912  0.632256110997595  0.6894107894248265  1.0000
  H   H32       1.0  0.7707631465489087  0.36774485195884665  0.3105912609679748  1.0000
  H   H33       1.0  0.25864574989059713  0.8808922179028045  0.7625610958434308  1.0000
  H   H34       1.0  0.7413568491046901  0.1191077374721345  0.23743927519752353  1.0000
  H   H35       1.0  0.3127141451505863  0.0942776293883938  0.9403363794972606  1.0000
  H   H36       1.0  0.6872891209830384  0.9057213164893057  0.05966294413955343  1.0000
  H   H37       1.0  0.3777194020940016  0.0875190713267244  0.1595300991678528  1.0000
  H   H38       1.0  0.6222826927652605  0.912485932356958  0.8404732540552898  1.0000
  C   C1        1.0  0.048280536122966594  0.18205303818520946  0.0960195991477377  1.0000
  C   C2        1.0  0.9517088085950433  0.8179499232479799  0.9039807355684388  1.0000
  C   C3        1.0  0.0857133251445674  0.3252118491452691  0.17389583363576117  1.0000
  C   C4        1.0  0.9142857258656533  0.674782047052794  0.8261042658829963  1.0000
  C   C5        1.0  0.049126087848840407  0.4236774662780647  0.130077538028516  1.0000
  C   C6        1.0  0.9508728808902944  0.576319450755804  0.8699189728093799  1.0000
  C   C7        1.0  0.08613703160723671  0.556921145379711  0.20715471301284785  1.0000
  C   C8        1.0  0.9138638195956472  0.4430757735699018  0.7928411658773342  1.0000
  C   C9        1.0  0.15940684298461597  0.5936059496064343  0.3283507134524228  1.0000
  C   C10       1.0  0.8405979466281223  0.40639500925139777  0.6716440937645061  1.0000
  C   C11       1.0  0.19530517689165092  0.49479240931079005  0.37165438073614604  1.0000
  C   C12       1.0  0.8046961087870627  0.5052095595891118  0.6283446000013342  1.0000
  C   C13       1.0  0.15934929342220983  0.3614228600955016  0.2943336018455511  1.0000
  C   C14       1.0  0.8406464585765078  0.6385760740171024  0.7056656357483321  1.0000
  C   C15       1.0  0.6670413013481423  0.8541573311011352  0.35218397542301016  1.0000
  C   C16       1.0  0.3329590561987672  0.145844633422449  0.6478131430934866  1.0000
  C   C17       1.0  0.8034377624716385  0.844912948923131  0.37948048347281815  1.0000
  C   C18       1.0  0.19656147250099557  0.15508498061691256  0.6205180657122611  1.0000
  C   C19       1.0  0.8364186898934278  0.7784502598200902  0.46285313090501745  1.0000
  C   C20       1.0  0.16357920556250596  0.2215496900818151  0.5371483843662617  1.0000
  C   C21       1.0  0.9602068973733819  0.7596282171056713  0.4818075629688109  1.0000
  C   C22       1.0  0.0397910138026276  0.24037172869409318  0.518191338468661  1.0000
  C   C23       1.0  0.05297122536265412  0.8088043774601912  0.41805203107000466  1.0000
  C   C24       1.0  0.9470270814781685  0.19119354770353436  0.5819446558940911  1.0000
  C   C25       1.0  0.021591547982112082  0.8793392003807557  0.337779044713301  1.0000
  C   C26       1.0  0.9784090265072223  0.1206567087974335  0.6622165383855716  1.0000
  C   C27       1.0  0.8973183066233545  0.8969954433113828  0.3182918346358291  1.0000
  C   C28       1.0  0.1026816007276423  0.10300147536404579  0.6817047958671765  1.0000
  C   C29       1.0  0.4048495387943802  0.5527758774434659  0.1817756323063335  1.0000
  C   C30       1.0  0.5951511724971398  0.44722407738311887  0.8182262419602749  1.0000
  C   C31       1.0  0.3743101350115765  0.4247421318035973  0.09138591632927971  1.0000
  C   C32       1.0  0.6256930226508359  0.5752598417468063  0.9086141750163533  1.0000
  C   C33       1.0  0.3258045224088306  0.40963614317173846  0.9690145061573149  1.0000
  C   C34       1.0  0.6741986300135565  0.5903658317460483  0.030986456466251845  1.0000
  C   C35       1.0  0.3092624838163189  0.5234032991878834  0.9368041982503643  1.0000
  C   C36       1.0  0.6907421606450299  0.47660069691429635  0.06319747562092452  1.0000
  C   C37       1.0  0.2663377043704571  0.5193684093490489  0.8118420824696031  1.0000
  C   C38       1.0  0.7336642274864927  0.48063255552313666  0.18815933597548437  1.0000
  C   C39       1.0  0.2587382981260546  0.6336949810890999  0.7846008135828059  1.0000
  C   C40       1.0  0.7412614850336539  0.3663049693611669  0.2153991984628192  1.0000
  C   C41       1.0  0.28992577929376756  0.7607518564211092  0.8812086042689272  1.0000
  C   C42       1.0  0.7100752139513277  0.23924910680951683  0.11879269451104338  1.0000
  C   C43       1.0  0.28411983904690175  0.8818795170055581  0.8581217758960732  1.0000
  C   C44       1.0  0.7158811594382185  0.11812144485769241  0.14187865160597105  1.0000
  C   C45       1.0  0.31447139982487476  0.9999053771591521  0.9571087369774673  1.0000
  C   C46       1.0  0.6855314758839625  9.558798721089957e-05  0.042891929854789554  1.0000
  C   C47       1.0  0.35174582296151163  0.9974465226422996  0.0781529542971526  1.0000
  C   C48       1.0  0.6482541232005091  0.0025574666194643006  0.9218489925265345  1.0000
  C   C49       1.0  0.32976721051279156  0.767773767973452  0.006352627648986652  1.0000
  C   C50       1.0  0.6702331208339911  0.2322282033870309  0.9936488472571912  1.0000
  C   C51       1.0  0.3420394317010675  0.6480140719060402  0.03455797395753276  1.0000
  C   C52       1.0  0.6579618382575702  0.3519879010960024  0.9654436206137545  1.0000
  N   N1        1.0  0.3881005399688675  0.6606784056566043  0.15422229105101334  1.0000
  N   N2        1.0  0.6118995146643584  0.339322555932455  0.8457788880638546  1.0000
  N   N3        1.0  0.36018610817202285  0.8848617035246346  0.10164845015735567  1.0000
  N   N4        1.0  0.6398132793228727  0.11514026756166368  0.8983537763616455  1.0000
  O   O1        1.0  0.07369401769034307  0.09408039210619988  0.139706083910859  1.0000
  O   O2        1.0  0.9263028830533104  0.9059094907122116  0.860310138336267  1.0000
  O   O3        1.0  0.9883741735370464  0.1558263702219449  0.9804323227122396  1.0000
  O   O4        1.0  0.011620501478304708  0.8441655176429704  0.01957803317662862  1.0000
  O   O5        1.0  0.585857244686828  0.8214151410437865  0.4176347830389346  1.0000
  O   O6        1.0  0.4141438345295115  0.1785928804667591  0.582363990560296  1.0000
  O   O7        1.0  0.6335383150977449  0.8903171783768611  0.2583094743011357  1.0000
  O   O8        1.0  0.3664627043474696  0.1096837780168727  0.7416874680891609  1.0000
  O   O9        1.0  0.2893042784810475  0.8551400798802999  0.3640474958722136  1.0000
  O   O10       1.0  0.7106956624409477  0.14486391074884608  0.6359553222294068  1.0000
  O   O11       1.0  0.26430082332702654  0.7759446091578184  0.5580996674401816  1.0000
  O   O12       1.0  0.7356979284696834  0.22405836322145234  0.4418983788153383  1.0000
  O   O13       1.0  0.48294613767671984  0.08547835262849898  0.3607134107196401  1.0000
  O   O14       1.0  0.5170547680572638  0.914525632805308  0.6392851706574092  1.0000
