data_image0
_chemical_formula_structural       Cu12H132C204N12O48
_chemical_formula_sum              "Cu12 H132 C204 N12 O48"
_cell_length_a       18.445563716254917
_cell_length_b       18.471285749183604
_cell_length_c       18.47128551587582
_cell_angle_alpha    109.49810823109694
_cell_angle_beta     109.44437082216528
_cell_angle_gamma    109.44470911060459

_space_group_name_H-M_alt    "P 1"
_space_group_IT_number       1

loop_
  _space_group_symop_operation_xyz
  'x, y, z'

loop_
  _atom_site_type_symbol
  _atom_site_label
  _atom_site_symmetry_multiplicity
  _atom_site_fract_x
  _atom_site_fract_y
  _atom_site_fract_z
  _atom_site_occupancy
  Cu  Cu1       1.0  0.4473856049042766  0.5059778184497716  0.9365345481259978  1.0000
  Cu  Cu2       1.0  0.941419471382325  0.43055748908822294  0.4940314728950598  1.0000
  Cu  Cu3       1.0  0.5108648109733454  0.0634781725340758  0.569442309186691  1.0000
  Cu  Cu4       1.0  0.98913146167245  0.43055235288014154  0.9365171801322134  1.0000
  Cu  Cu5       1.0  0.05261193077407  0.0634638715622202  0.49402062087497  1.0000
  Cu  Cu6       1.0  0.5585767915356072  0.5059690481683462  0.5694395460401154  1.0000
  Cu  Cu7       1.0  0.5526118795962418  0.4940222396770795  0.0634671125269507  1.0000
  Cu  Cu8       1.0  0.05857883314197215  0.5694419061186481  0.5059707773608368  1.0000
  Cu  Cu9       1.0  0.48912857963407685  0.9365126044032835  0.4305456876822051  1.0000
  Cu  Cu10      1.0  0.0108681572683835  0.5694496941349528  0.06348260254134894  1.0000
  Cu  Cu11      1.0  0.9473851916723534  0.9365308830677749  0.5059758947402458  1.0000
  Cu  Cu12      1.0  0.44141901576077197  0.4940276952604137  0.4305539541418142  1.0000
  H   H1        1.0  0.2652577301839898  0.47021409402530173  0.8845845523084748  1.0000
  H   H2        1.0  0.49105029392944727  0.5754271872983239  0.8285533862798076  1.0000
  H   H3        1.0  0.15434421589345246  0.5124797324103058  0.8197880710004455  1.0000
  H   H4        1.0  0.5278377360746874  0.6653145776428886  0.7581366807884038  1.0000
  H   H5        1.0  0.2884652128813699  0.6796429704663398  0.7037362034450966  1.0000
  H   H6        1.0  0.18872465013649278  0.6055107140437102  0.7495023716304274  1.0000
  H   H7        1.0  0.428346942785396  0.7189492594747621  0.6974025704544716  1.0000
  H   H8        1.0  0.5019644032914813  0.6272982947725864  0.2793596437100944  1.0000
  H   H9        1.0  0.37065869359312853  0.2297957217134723  0.0006077696958471331  1.0000
  H   H10       1.0  0.7950460108270861  0.4143741828506862  0.529782210805358  1.0000
  H   H11       1.0  0.9156137003369126  0.25312406721638336  0.4245694799035889  1.0000
  H   H12       1.0  0.6418660154346939  0.307314058404991  0.48752530457371535  1.0000
  H   H13       1.0  0.8625021914942723  0.0928196938425145  0.33468644383776797  1.0000
  H   H14       1.0  0.6088103191977225  0.024096396849898803  0.3203790361265249  1.0000
  H   H15       1.0  0.5832099683319926  0.14399449990087732  0.39450313697555134  1.0000
  H   H16       1.0  0.709377779870245  0.9784511486382076  0.28106491954730495  1.0000
  H   H17       1.0  0.8746597023960804  0.6520576473710805  0.3727012766008074  1.0000
  H   H18       1.0  0.14086805670807218  0.7708191885561959  0.7702109648998102  1.0000
  H   H19       1.0  0.3806746051408254  0.11541643310776811  0.5856211451048239  1.0000
  H   H20       1.0  0.6625090536710588  0.17147489159545165  0.7468898379069344  1.0000
  H   H21       1.0  0.33454882552881327  0.18020428644430106  0.6926756407055877  1.0000
  H   H22       1.0  0.7697083990094669  0.24189705193978744  0.9071941480263632  1.0000
  H   H23       1.0  0.5847172045137868  0.2962644935522789  0.9759008903003946  1.0000
  H   H24       1.0  0.43921288197046254  0.25048913092848585  0.8559953950325507  1.0000
  H   H25       1.0  0.7309420278012128  0.30261824670648013  0.021555587278229035  1.0000
  H   H26       1.0  0.22258705408899  0.7206399765173545  0.3479459424599939  1.0000
  H   H27       1.0  0.3700544799691556  0.9993995147270881  0.22918149516124228  1.0000
  H   H28       1.0  0.11932587758755632  0.41437860287370404  0.8845857359275087  1.0000
  H   H29       1.0  0.8374893634752852  0.2531116725103644  0.8285246204444334  1.0000
  H   H30       1.0  0.16545109736677688  0.30732414397739666  0.8197983996766851  1.0000
  H   H31       1.0  0.7302888335213924  0.09280634957983121  0.7581014388577075  1.0000
  H   H32       1.0  0.9152809481421187  0.0240987840078404  0.7037357493764063  1.0000
  H   H33       1.0  0.060785106538951104  0.14400384205499964  0.7495118104028718  1.0000
  H   H34       1.0  0.7690548525721044  0.9784438401448626  0.6973812209166753  1.0000
  H   H35       1.0  0.2774087649247363  0.6520554945695384  0.2793594276187363  1.0000
  H   H36       1.0  0.1299495210631249  0.7708165770935196  0.0006021829787102537  1.0000
  H   H37       1.0  0.23473729111662325  0.11541003904711293  0.5297799131730798  1.0000
  H   H38       1.0  0.008948172564082278  0.1714432902321121  0.4245686252726202  1.0000
  H   H39       1.0  0.3456533441208833  0.18020773585143962  0.4875165253625299  1.0000
  H   H40       1.0  0.9721631288196023  0.24186147623285595  0.33468331355820186  1.0000
  H   H41       1.0  0.21153534715129746  0.2962650954085646  0.3203571490533291  1.0000
  H   H42       1.0  0.3112759441139943  0.2504961219897268  0.3944878998995804  1.0000
  H   H43       1.0  0.07165508914673066  0.30259714102121643  0.2810501248775878  1.0000
  H   H44       1.0  0.9980327399207312  0.7206448150137208  0.3727023958245468  1.0000
  H   H45       1.0  0.12934175470257248  0.9993931017179634  0.7702077239489924  1.0000
  H   H46       1.0  0.7049620992778853  0.47022534104919345  0.585631846255886  1.0000
  H   H47       1.0  0.5843904548946741  0.5754315658505365  0.7468820542451483  1.0000
  H   H48       1.0  0.8581416817071171  0.5124814435157106  0.6926919865081161  1.0000
  H   H49       1.0  0.6375003938774738  0.6653108219876601  0.9071860910031689  1.0000
  H   H50       1.0  0.8911911016725753  0.679616427820598  0.9759102689447375  1.0000
  H   H51       1.0  0.916793659308418  0.6054972033230896  0.8560125731472612  1.0000
  H   H52       1.0  0.7906234526304986  0.7189299757061817  0.021554657282209254  1.0000
  H   H53       1.0  0.6253469597969001  0.62730266454458  0.34794766399390653  1.0000
  H   H54       1.0  0.35912846073860283  0.22979080310044248  0.229185389821545  1.0000
  H   H55       1.0  0.7347370011983044  0.5297793346723267  0.1154096477820801  1.0000
  H   H56       1.0  0.5089484925419541  0.424570882053743  0.17144695440442356  1.0000
  H   H57       1.0  0.8456515115974738  0.4875156851247625  0.1802076654361714  1.0000
  H   H58       1.0  0.47216171337087337  0.33468481760279895  0.24186432284304252  1.0000
  H   H59       1.0  0.7115334181878128  0.3203570876963299  0.29626475250865525  1.0000
  H   H60       1.0  0.8112737325458498  0.39449000705985077  0.25049710044552864  1.0000
  H   H61       1.0  0.5716528364998512  0.2810507987207418  0.30259822272532955  1.0000
  H   H62       1.0  0.4980333903660821  0.37269778573604384  0.7206402444785739  1.0000
  H   H63       1.0  0.6293429766877737  0.7702069883021636  0.999391287402517  1.0000
  H   H64       1.0  0.20495919873400933  0.5856298531301504  0.4702189990437232  1.0000
  H   H65       1.0  0.08439226188816196  0.746882620533789  0.5754334081895037  1.0000
  H   H66       1.0  0.3581409255111651  0.6926899776086016  0.5124786417033107  1.0000
  H   H67       1.0  0.13750581877608423  0.9071876569141893  0.6653146348296346  1.0000
  H   H68       1.0  0.39119521031867777  0.9759083020987233  0.6796187117194066  1.0000
  H   H69       1.0  0.41679648407717457  0.8560108619795062  0.605500551172135  1.0000
  H   H70       1.0  0.2906280778384485  0.0215542132632294  0.7189320759217352  1.0000
  H   H71       1.0  0.12534057457672534  0.3479457255466302  0.627297543244218  1.0000
  H   H72       1.0  0.8591306830861924  0.2291868360532092  0.22979202643812616  1.0000
  H   H73       1.0  0.6193218799562671  0.8845816361876403  0.41437789535155645  1.0000
  H   H74       1.0  0.33748701189653474  0.8285211888744332  0.2531083977042883  1.0000
  H   H75       1.0  0.6654504652197347  0.8197970976179931  0.30732489434486615  1.0000
  H   H76       1.0  0.2302875768682924  0.7580977026543823  0.09280307228804933  1.0000
  H   H77       1.0  0.4152813302759881  0.7037342387466693  0.024096882655548775  1.0000
  H   H78       1.0  0.5607878868338291  0.7495129161164373  0.14400476679231397  1.0000
  H   H79       1.0  0.26905460940331233  0.6973778337843157  0.9784417540581459  1.0000
  H   H80       1.0  0.7774081914548248  0.2793567668725175  0.6520517035482811  1.0000
  H   H81       1.0  0.629942316846268  0.0005992175510983  0.7708113736657509  1.0000
  H   H82       1.0  0.8806738202448373  0.585620129431092  0.1154167515817264  1.0000
  H   H83       1.0  0.16250754279872123  0.7468883856075622  0.17147576678236476  1.0000
  H   H84       1.0  0.834547690752018  0.6926739253716719  0.18020248293279917  1.0000
  H   H85       1.0  0.26970913622103143  0.9071923826862262  0.24189939607408206  1.0000
  H   H86       1.0  0.0847161900447657  0.9759006111991723  0.29626070247569186  1.0000
  H   H87       1.0  0.9392102253999045  0.8559942272165701  0.25048576705171405  1.0000
  H   H88       1.0  0.23094311387552585  0.021554892127184602  0.3026185301646152  1.0000
  H   H89       1.0  0.7225963970453153  0.34795185606464685  0.7206493739744104  1.0000
  H   H90       1.0  0.8700610455579536  0.22919011076696455  0.9994038474953373  1.0000
  H   H91       1.0  0.7652634553576262  0.884587367432779  0.4702181447139038  1.0000
  H   H92       1.0  0.9910530624468592  0.8285527903809893  0.5754296907437111  1.0000
  H   H93       1.0  0.6543483087721711  0.8197903335901773  0.512482053573713  1.0000
  H   H94       1.0  0.027837959026101013  0.7581365931758697  0.6653183273538801  1.0000
  H   H95       1.0  0.7884641853945029  0.7037356257248178  0.6796427021739221  1.0000
  H   H96       1.0  0.6887251321999414  0.7495019474399811  0.6055099475357579  1.0000
  H   H97       1.0  0.9283449352305554  0.6974022542393856  0.7189510683295027  1.0000
  H   H98       1.0  0.0019665541226103972  0.27935656904256945  0.6272992230764132  1.0000
  H   H99       1.0  0.8706552346716735  0.000608282287665  0.2297915108736177  1.0000
  H   H100      1.0  0.29504617255847165  0.5297813467426452  0.4143750516913088  1.0000
  H   H101      1.0  0.4156141048714304  0.42457114421269904  0.2531228280587214  1.0000
  H   H102      1.0  0.14186873280653595  0.4875272331493932  0.3073157430859439  1.0000
  H   H103      1.0  0.3625027617822525  0.3346879103916365  0.0928202435862246  1.0000
  H   H104      1.0  0.10881312404516308  0.3203809786948284  0.024098681050645596  1.0000
  H   H105      1.0  0.08321164067600513  0.3945035179264665  0.1439951350142437  1.0000
  H   H106      1.0  0.20937895366004267  0.28106610489778927  0.978451082913665  1.0000
  H   H107      1.0  0.37465223046355334  0.3726927530559934  0.6520535452986138  1.0000
  H   H108      1.0  0.6408664690585939  0.7702099179196299  0.7708118609500049  1.0000
  H   H109      1.0  0.266471930738561  0.5164668923456759  0.032947937039537675  1.0000
  H   H110      1.0  0.4311263915485384  0.6811112972761394  0.36223185710777284  1.0000
  H   H111      1.0  0.7500058244772063  0.5164771376163984  0.48353173384722237  1.0000
  H   H112      1.0  0.7500031110406765  0.6811157622192708  0.3188878549989056  1.0000
  H   H113      1.0  0.23352724156862348  0.9670541165329996  0.4835319172717264  1.0000
  H   H114      1.0  0.06886875206406973  0.637769098007091  0.3188895277997403  1.0000
  H   H115      1.0  0.7335262423609449  0.48353913223382966  0.9670575743489991  1.0000
  H   H116      1.0  0.568876598824602  0.31888942393175057  0.6377718411996299  1.0000
  H   H117      1.0  0.25000822394864747  0.4835341908806187  0.5164807895701103  1.0000
  H   H118      1.0  0.24999361255888183  0.31888164415322967  0.6811094177837731  1.0000
  H   H119      1.0  0.7664726782922744  0.03294395287886691  0.5164633833113117  1.0000
  H   H120      1.0  0.9311289775284949  0.36223029718486527  0.6811125328805047  1.0000
  H   H121      1.0  0.24999584804001534  0.23760679883025665  0.7623922194206401  1.0000
  H   H122      1.0  0.24999993356082942  0.07293502712435901  0.9270660458276296  1.0000
  H   H123      1.0  0.01239471028844009  0.5247868954351632  0.7623926170892545  1.0000
  H   H124      1.0  0.17706489079123602  0.8541309157439729  0.9270624243436175  1.0000
  H   H125      1.0  0.48760494712903596  0.23760109319366052  0.47521306308411954  1.0000
  H   H126      1.0  0.32293300242886863  0.07293812582241802  0.14586680864763224  1.0000
  H   H127      1.0  0.7499983373301761  0.7623912704054947  0.23760606273314286  1.0000
  H   H128      1.0  0.7499986942135666  0.9270650310443076  0.07293382627562314  1.0000
  H   H129      1.0  0.9876064681609834  0.47521714045326047  0.2376050980292703  1.0000
  H   H130      1.0  0.8229388407141158  0.14587245725422804  0.07293915873106022  1.0000
  H   H131      1.0  0.5123935686254911  0.7623929985342671  0.5247836897844423  1.0000
  H   H132      1.0  0.6770618277941195  0.9270612693399229  0.8541261752756101  1.0000
  C   C1        1.0  0.37099650228449127  0.5794844597914377  0.8098882640176867  1.0000
  C   C2        1.0  0.2767386104876763  0.5084270921771079  0.8515191500508906  1.0000
  C   C3        1.0  0.4490022422097226  0.6008909893541698  0.8036013327116295  1.0000
  C   C4        1.0  0.3125875429261102  0.6086795597446584  0.7731152310831748  1.0000
  C   C5        1.0  0.2148329215663551  0.5329695805082864  0.815692046311618  1.0000
  C   C6        1.0  0.46851041506190705  0.6504763102679194  0.7640938770059053  1.0000
  C   C7        1.0  0.33454824036030567  0.6594933800450704  0.7328228635280141  1.0000
  C   C8        1.0  0.23355680861222783  0.5838263912584054  0.7772979006554691  1.0000
  C   C9        1.0  0.4116270622695167  0.6804318354478197  0.7288761765815083  1.0000
  C   C10       1.0  0.4342283296438013  0.5464539404769511  0.1001017012919619  1.0000
  C   C11       1.0  0.3898753265468002  0.5715062299163877  0.15103392656558168  1.0000
  C   C12       1.0  0.4351156258382858  0.6155162016426984  0.24393348387628314  1.0000
  C   C13       1.0  0.38241025294459513  0.3394986915697871  0.9301057346227638  1.0000
  C   C14       1.0  0.31502584059429484  0.24418293968575  0.8870586961534457  1.0000
  C   C15       1.0  0.3169668762729074  0.19691117640040554  0.932667380748107  1.0000
  C   C16       1.0  0.7915086697431876  0.23040634610859462  0.4205256021099331  1.0000
  C   C17       1.0  0.7683130975775967  0.34309572956711065  0.4915753186942808  1.0000
  C   C18       1.0  0.8480997131852703  0.20270910257774236  0.3991145821201982  1.0000
  C   C19       1.0  0.7038992620311576  0.16443563248195403  0.3913327566224468  1.0000
  C   C20       1.0  0.6818656203209699  0.2827295122723967  0.4670405303243825  1.0000
  C   C21       1.0  0.8180184706911432  0.1136154480073444  0.3495314185846112  1.0000
  C   C22       1.0  0.6750406037231899  0.07332933457483652  0.34052321575854455  1.0000
  C   C23       1.0  0.6497255720313859  0.1934747133350498  0.41618584199324726  1.0000
  C   C24       1.0  0.7311783226771453  0.0484436020557055  0.3195822793738402  1.0000
  C   C25       1.0  0.8877759369406635  0.5536481727232215  0.45355002914097053  1.0000
  C   C26       1.0  0.8183649580056669  0.5795242262073332  0.4284896502805468  1.0000
  C   C27       1.0  0.8195962515648176  0.6284123150638051  0.38448326538968297  1.0000
  C   C28       1.0  0.04291649067891966  0.5906075971555823  0.6605020826938457  1.0000
  C   C29       1.0  0.07085076472828422  0.6428826035221888  0.7558205933506625  1.0000
  C   C30       1.0  0.12006105507943944  0.7357621870282005  0.8030904585647392  1.0000
  C   C31       1.0  0.5611095545426963  0.19012639948125812  0.7695985772561329  1.0000
  C   C32       1.0  0.4252217457836807  0.14848402823998444  0.656900691693501  1.0000
  C   C33       1.0  0.6454088335098902  0.19642319692452764  0.7973017032563378  1.0000
  C   C34       1.0  0.5394691237623591  0.22689536482058514  0.835561720612624  1.0000
  C   C35       1.0  0.39913399260153437  0.18430754976072455  0.7172627518706776  1.0000
  C   C36       1.0  0.7044219816920999  0.23593420268879584  0.8863933483592135  1.0000
  C   C37       1.0  0.6017221819539741  0.26719136961197887  0.9266722854242461  1.0000
  C   C38       1.0  0.4562503900618395  0.22269946008732694  0.80651737647419  1.0000
  C   C39       1.0  0.6827483633374882  0.27114592675603433  0.95156543106922  1.0000
  C   C40       1.0  0.3341206915299538  0.8999006907153699  0.4463542601199251  1.0000
  C   C41       1.0  0.23883355836461106  0.8489652120327379  0.42047960768397996  1.0000
  C   C42       1.0  0.19116764325578836  0.7560677811849744  0.3715885967423632  1.0000
  C   C43       1.0  0.4523056167060275  0.06989005719189831  0.40938558503900424  1.0000
  C   C44       1.0  0.4279708411824147  0.11293963702662782  0.3571176404144937  1.0000
  C   C45       1.0  0.3843021396142277  0.06733533947232222  0.2642366239811125  1.0000
  C   C46       1.0  0.9388880881919591  0.23040361526503975  0.8098732337840389  1.0000
  C   C47       1.0  0.07477820380180586  0.34309829976290723  0.8515159435317088  1.0000
  C   C48       1.0  0.8545880804768162  0.20269905657505666  0.8035740161947873  1.0000
  C   C49       1.0  0.9605289144409427  0.1644379692471176  0.7731051213049868  1.0000
  C   C50       1.0  0.1008647577799309  0.282737262174564  0.8156952775158716  1.0000
  C   C51       1.0  0.7955757603078127  0.1136071931549409  0.7640642313248733  1.0000
  C   C52       1.0  0.8982768586789408  0.07332803247876292  0.7328106628491684  1.0000
  C   C53       1.0  0.04374768793793039  0.19348169911202723  0.7773018031775651  1.0000
  C   C54       1.0  0.8172490795208773  0.048435740757028604  0.7288555271484898  1.0000
  C   C55       1.0  0.16587205599087432  0.5536413643956379  0.10009296172508189  1.0000
  C   C56       1.0  0.2611618231587941  0.579519579630038  0.15103447350963975  1.0000
  C   C57       1.0  0.30882656792954327  0.6284115049479055  0.2439289702067456  1.0000
  C   C58       1.0  0.0476902176196744  0.5906022383879659  0.9301000758601247  1.0000
  C   C59       1.0  0.0720307561074094  0.6428805735228877  0.887060191869203  1.0000
  C   C60       1.0  0.11570035034246472  0.7357600123867417  0.9326660464644692  1.0000
  C   C61       1.0  0.12900304000132926  0.190109058281891  0.4205123307561677  1.0000
  C   C62       1.0  0.2232580684767882  0.1484766919013722  0.4915689466084672  1.0000
  C   C63       1.0  0.05099787477796271  0.19639764311184396  0.3991066142144746  1.0000
  C   C64       1.0  0.18741287564044737  0.22688277148370875  0.39131886937322946  1.0000
  C   C65       1.0  0.28516488783890276  0.1843044615615811  0.4670271899053944  1.0000
  C   C66       1.0  0.03149024648440247  0.2359059194379469  0.349522196228186  1.0000
  C   C67       1.0  0.16545327626736386  0.26717723275834976  0.34050675975039  1.0000
  C   C68       1.0  0.2664420206644991  0.22270101736752682  0.41617039852094007  1.0000
  C   C69       1.0  0.08837556102935909  0.271125001504494  0.31956870891840333  1.0000
  C   C70       1.0  0.06577057390585142  0.8999004847418421  0.45354722743139325  1.0000
  C   C71       1.0  0.11012248250730751  0.8489662305048428  0.4284935127785446  1.0000
  C   C72       1.0  0.06488049422208061  0.7560681766785536  0.38448301467452956  1.0000
  C   C73       1.0  0.1175834114547385  0.0698886258012834  0.6605022538957569  1.0000
  C   C74       1.0  0.1849685883208565  0.11293860012185061  0.75581908033665  1.0000
  C   C75       1.0  0.1830305334118094  0.0673320236171264  0.8030904865611177  1.0000
  C   C76       1.0  0.7084966619831405  0.5794741775466222  0.7696000470089716  1.0000
  C   C77       1.0  0.7316935572528539  0.508431547751485  0.6569105045383027  1.0000
  C   C78       1.0  0.6519023164072026  0.6008840678539971  0.797296501280613  1.0000
  C   C79       1.0  0.7961046275366144  0.608665466323423  0.8355705179847205  1.0000
  C   C80       1.0  0.8181411164518552  0.5329650230984484  0.7172770945911965  1.0000
  C   C81       1.0  0.6819825868237573  0.650462331094893  0.8863894630330266  1.0000
  C   C82       1.0  0.8249613513739578  0.6594707851968666  0.9266765489684303  1.0000
  C   C83       1.0  0.8502775968325127  0.5838155234032885  0.8065313201402234  1.0000
  C   C84       1.0  0.7688253722274965  0.6804139946393378  0.9515633761713219  1.0000
  C   C85       1.0  0.6122324285416029  0.546453628581105  0.4463586732588568  1.0000
  C   C86       1.0  0.6816422067797278  0.5715128256706308  0.4204816643401159  1.0000
  C   C87       1.0  0.6804088284323271  0.6155176614018886  0.3715893207879972  1.0000
  C   C88       1.0  0.45708433126464604  0.33949639836199463  0.40939567441570557  1.0000
  C   C89       1.0  0.4291485351698228  0.24417847994241268  0.35712059090581505  1.0000
  C   C90       1.0  0.37993899078519183  0.19691137621124002  0.26424339231294175  1.0000
  C   C91       1.0  0.6290023738767375  0.4205149354363442  0.1901130919633545  1.0000
  C   C92       1.0  0.7232601710415382  0.49157097718394743  0.14847956485759545  1.0000
  C   C93       1.0  0.5509968806909457  0.39910774293571205  0.19640096522196174  1.0000
  C   C94       1.0  0.6874123194593764  0.3913218243385402  0.22688440969243834  1.0000
  C   C95       1.0  0.7851640438304558  0.4670271629353168  0.18430454264785828  1.0000
  C   C96       1.0  0.5314893691655199  0.34952374791858176  0.2359085419496408  1.0000
  C   C97       1.0  0.6654512954802884  0.3405073410823293  0.26717807154973633  1.0000
  C   C98       1.0  0.7664405829036696  0.41617234099872763  0.22270166085017004  1.0000
  C   C99       1.0  0.588374201661047  0.31956888571832565  0.27112641107370195  1.0000
  C   C100      1.0  0.5657685017669396  0.45354479173829537  0.8999025479652759  1.0000
  C   C101      1.0  0.610122068263891  0.42849250233474817  0.8489667187905567  1.0000
  C   C102      1.0  0.5648816842247726  0.38448120472373404  0.756067771958797  1.0000
  C   C103      1.0  0.6175836807439694  0.6605000406128455  0.06988997980273139  1.0000
  C   C104      1.0  0.6849687544210357  0.7558171183935088  0.11293713929400462  1.0000
  C   C105      1.0  0.6830302619139702  0.8030882188066073  0.06732907110399121  1.0000
  C   C106      1.0  0.2084981009738911  0.7695996787425728  0.5794740821093569  1.0000
  C   C107      1.0  0.23169162838899393  0.6569096322715212  0.5084272588012055  1.0000
  C   C108      1.0  0.15190467305725974  0.7972955963290648  0.6008849542754364  1.0000
  C   C109      1.0  0.2961047030344659  0.8355670776023346  0.608665433002777  1.0000
  C   C110      1.0  0.3181418906144273  0.7172745237650987  0.5329619797525497  1.0000
  C   C111      1.0  0.18198739031233668  0.8863899138880956  0.6504666607349352  1.0000
  C   C112      1.0  0.32496434921409184  0.92667536436187  0.6594738005864967  1.0000
  C   C113      1.0  0.35027897620294357  0.8065279967491676  0.5838152468338721  1.0000
  C   C114      1.0  0.2688287745848186  0.9515630857512677  0.6804161105433123  1.0000
  C   C115      1.0  0.1122331591281593  0.4463624927466371  0.5464536011693042  1.0000
  C   C116      1.0  0.1816412476640608  0.4204817986109363  0.5715130959145966  1.0000
  C   C117      1.0  0.180404669346899  0.3715877431765051  0.6155151973151689  1.0000
  C   C118      1.0  0.957086436543122  0.4094010793396168  0.3394988470147667  1.0000
  C   C119      1.0  0.9291531651919699  0.35712806179845563  0.24418404040500266  1.0000
  C   C120      1.0  0.8799418770847893  0.26424648945800305  0.1969120969196184  1.0000
  C   C121      1.0  0.438887172351656  0.8098710068852527  0.23039977937704498  1.0000
  C   C122      1.0  0.5747764608138087  0.8515140411061569  0.34309783363934093  1.0000
  C   C123      1.0  0.35458599415181885  0.803571557636829  0.20269567983202566  1.0000
  C   C124      1.0  0.46052892908031146  0.773104693333167  0.16443796191497037  1.0000
  C   C125      1.0  0.6008629004932969  0.8156925083811827  0.28273329995412416  1.0000
  C   C126      1.0  0.2955749022518647  0.7640612148641072  0.11360493492971102  1.0000
  C   C127      1.0  0.39827668597027355  0.7328080256307814  0.07332636093055105  1.0000
  C   C128      1.0  0.5437477458810707  0.7773019239541201  0.19348115364921634  1.0000
  C   C129      1.0  0.31724836355686387  0.7288514796104765  0.04843292556396512  1.0000
  C   C130      1.0  0.6658728002990629  0.10009141207671492  0.5536385455225172  1.0000
  C   C131      1.0  0.7611634901324467  0.15103285729856716  0.5795158288713085  1.0000
  C   C132      1.0  0.8088256997605895  0.24392631040573323  0.6284069918705982  1.0000
  C   C133      1.0  0.547686377298497  0.9301013826535183  0.5906010907260395  1.0000
  C   C134      1.0  0.5720270174540332  0.8870577694026737  0.6428751341922379  1.0000
  C   C135      1.0  0.6156955553830201  0.9326640557825742  0.7357540562688882  1.0000
  C   C136      1.0  0.061108656090240646  0.7695984316754833  0.19012560101127451  1.0000
  C   C137      1.0  0.9252211559539277  0.6568997696070726  0.1484840448029276  1.0000
  C   C138      1.0  0.1454084860731299  0.7973003386110448  0.19642332993215914  1.0000
  C   C139      1.0  0.03946756241917633  0.8355601000632762  0.22689120952514943  1.0000
  C   C140      1.0  0.8991336314919992  0.7172634589170104  0.18430636226107586  1.0000
  C   C141      1.0  0.20442277942414222  0.8863915391350121  0.23593516740682224  1.0000
  C   C142      1.0  0.10172118922154282  0.9266720256839849  0.2671873939026811  1.0000
  C   C143      1.0  0.9562484623773031  0.8065157072425677  0.2226958219547157  1.0000
  C   C144      1.0  0.18274782345833526  0.9515643173669021  0.2711437762278096  1.0000
  C   C145      1.0  0.8341263349284561  0.44635935669293764  0.8999092199771184  1.0000
  C   C146      1.0  0.7388359320585991  0.42048445612094554  0.8489707749589783  1.0000
  C   C147      1.0  0.6911730576008707  0.37159054205520203  0.756072980167815  1.0000
  C   C148      1.0  0.9523098559960418  0.4093938422162893  0.0698940675281534  1.0000
  C   C149      1.0  0.9279736400194951  0.3571241253659423  0.11294259607792877  1.0000
  C   C150      1.0  0.8843062607637151  0.26424336067703547  0.06733811026420976  1.0000
  C   C151      1.0  0.8709969554563345  0.8098856964256742  0.5794845908120508  1.0000
  C   C152      1.0  0.7767426730552743  0.8515207145875153  0.5084274855027716  1.0000
  C   C153      1.0  0.9490022103695281  0.8035984374714291  0.6008913226505542  1.0000
  C   C154      1.0  0.8125884424707338  0.7731146350170948  0.6086782942389065  1.0000
  C   C155      1.0  0.7148355271482674  0.8156922819715079  0.5329705365079889  1.0000
  C   C156      1.0  0.9685093550685837  0.7640914870031352  0.6504771082832477  1.0000
  C   C157      1.0  0.8345475598967127  0.7328214995972574  0.6594923134334041  1.0000
  C   C158      1.0  0.733557327559467  0.777297052023428  0.5838257963369458  1.0000
  C   C159      1.0  0.9116252817243053  0.7288737308391264  0.680432531966389  1.0000
  C   C160      1.0  0.9342268849698385  0.100094932825975  0.5464512454331752  1.0000
  C   C161      1.0  0.8898751541006363  0.15103183881739576  0.5715064487543913  1.0000
  C   C162      1.0  0.9351174755203361  0.24393055558750382  0.61551782025726  1.0000
  C   C163      1.0  0.8824114195017573  0.9301061287540694  0.3394962130431054  1.0000
  C   C164      1.0  0.8150278967762363  0.8870594691735578  0.24417996011973753  1.0000
  C   C165      1.0  0.8169666961122958  0.9326686974626032  0.1969075225130297  1.0000
  C   C166      1.0  0.2915080614221636  0.4205265436910182  0.230406929651636  1.0000
  C   C167      1.0  0.26831595413678855  0.4915764659458973  0.3430977878569976  1.0000
  C   C168      1.0  0.3481005044706649  0.39911400158448634  0.20270841798467393  1.0000
  C   C169      1.0  0.20390058440537479  0.39133392904742703  0.16443671680522706  1.0000
  C   C170      1.0  0.18186674244457635  0.46703967585588674  0.2827311662118391  1.0000
  C   C171      1.0  0.31801973471914385  0.34953242362436754  0.11361688764178988  1.0000
  C   C172      1.0  0.175042292822468  0.34052662131563954  0.0733300437503033  1.0000
  C   C173      1.0  0.14972770150451714  0.41618519784926633  0.19347584609602822  1.0000
  C   C174      1.0  0.23117836165875624  0.31958473774888324  0.048444231844222044  1.0000
  C   C175      1.0  0.3877730235502455  0.4535451038638385  0.5536473357826353  1.0000
  C   C176      1.0  0.31836242034616186  0.42848656970328863  0.5795221293226833  1.0000
  C   C177      1.0  0.3195918398838701  0.3844784191813135  0.6284115152789269  1.0000
  C   C178      1.0  0.5429137905852033  0.6605003450994504  0.5906034613960714  1.0000
  C   C179      1.0  0.5708453154184951  0.755818926352518  0.6428762759238681  1.0000
  C   C180      1.0  0.6200570074226094  0.8030880189479603  0.7357559319393517  1.0000
  C   C181      1.0  0.30250331997387286  0.5524955970265211  0.1050024826454177  1.0000
  C   C182      1.0  0.39500726858598517  0.6449964090357981  0.28999768942706083  1.0000
  C   C183      1.0  0.7500034260969457  0.5525034589334227  0.4475020131996104  1.0000
  C   C184      1.0  0.7500011869336162  0.6449972917158959  0.3550032899667812  1.0000
  C   C185      1.0  0.19749380007239375  0.8949971016172  0.447502792737744  1.0000
  C   C186      1.0  0.10498782100948029  0.7100031196559513  0.3550045821320893  1.0000
  C   C187      1.0  0.6974940091244335  0.4475064499109323  0.8949997932770444  1.0000
  C   C188      1.0  0.6049943284790517  0.3550049750741593  0.7100057716270031  1.0000
  C   C189      1.0  0.2500031883040208  0.4474999141243643  0.5525032273795603  1.0000
  C   C190      1.0  0.24999668982418652  0.35500011468044335  0.6449954458177061  1.0000
  C   C191      1.0  0.8025061230832906  0.10500096778866919  0.5524935916958001  1.0000
  C   C192      1.0  0.8950100590431161  0.2899942867343909  0.6449952375028971  1.0000
  C   C193      1.0  0.2499966726382326  0.20156456684891572  0.7984350374176331  1.0000
  C   C194      1.0  0.24999973291962627  0.10908399296143052  0.8909189850570627  1.0000
  C   C195      1.0  0.048437742210246854  0.5968757316278612  0.7984366508745921  1.0000
  C   C196      1.0  0.14091910281723588  0.781836566030755  0.8909172595166767  1.0000
  C   C197      1.0  0.4515624980101762  0.20155846666024502  0.4031258428667641  1.0000
  C   C198      1.0  0.35908162884764033  0.10908417269304493  0.2181622917223436  1.0000
  C   C199      1.0  0.7499985006036097  0.7984354912392534  0.20156207145596033  1.0000
  C   C200      1.0  0.7500004626003332  0.8909180540655797  0.10908152911739685  1.0000
  C   C201      1.0  0.9515648502299285  0.4031322819265171  0.20156286350991334  1.0000
  C   C202      1.0  0.8590861166282338  0.21816746993209793  0.10908720188390238  1.0000
  C   C203      1.0  0.5484332968405427  0.7984336361855001  0.596868804928789  1.0000
  C   C204      1.0  0.6409154097650359  0.8909138966562439  0.7818298932814473  1.0000
  N   N1        1.0  0.3521179876892192  0.5306290508337101  0.8497320945332306  1.0000
  N   N2        1.0  0.8214893490276154  0.3191068789022041  0.4693754081465117  1.0000
  N   N3        1.0  0.5023892559177767  0.15027531173672773  0.6808944755283123  1.0000
  N   N4        1.0  0.9976089054568575  0.31910566027178083  0.849723090474811  1.0000
  N   N5        1.0  0.1478788753040234  0.1502653211204006  0.4693683449870035  1.0000
  N   N6        1.0  0.6785159276385428  0.5306278000420478  0.6808977894659095  1.0000
  N   N7        1.0  0.6478812183116887  0.46937100734387377  0.1502690509961724  1.0000
  N   N8        1.0  0.1785158572386862  0.6808971570846298  0.5306247178520707  1.0000
  N   N9        1.0  0.49760598962604524  0.849721431653137  0.31910317047996273  1.0000
  N   N10       1.0  0.0023888142513328746  0.6808937349381595  0.15027571865392994  1.0000
  N   N11       1.0  0.8521198132405702  0.8497314223709368  0.5306282707741801  1.0000
  N   N12       1.0  0.32149044496517126  0.4693762359446367  0.31910813493647083  1.0000
  O   O1        1.0  0.4046455286068067  0.5401078898132283  0.023876776315226764  1.0000
  O   O2        1.0  0.3629847332511246  0.3808333124242225  0.8904884828716604  1.0000
  O   O3        1.0  0.45343665862317545  0.370392893573019  0.001228638644775442  1.0000
  O   O4        1.0  0.49817431474995294  0.53437808531028  0.13594385400338643  1.0000
  O   O5        1.0  0.8645503320070278  0.48378162766853455  0.4599190589875947  1.0000
  O   O6        1.0  0.9821605625858043  0.5096465962582571  0.6191734512040556  1.0000
  O   O7        1.0  0.08303088787082658  0.6308294225670465  0.6295987732014864  1.0000
  O   O8        1.0  0.9637909601015764  0.6015608523700708  0.46561032211965175  1.0000
  O   O9        1.0  0.3807671204738342  0.9761389697659768  0.5162198842153674  1.0000
  O   O10       1.0  0.4725191680394829  0.1095253258609432  0.49034629475209374  1.0000
  O   O11       1.0  0.45218734653293774  0.9987606118076472  0.36916594177807843  1.0000
  O   O12       1.0  0.36221827373548604  0.8640453340479084  0.3984425875029486  1.0000
  O   O13       1.0  0.11922833061164785  0.48378192467076536  0.023857592500164077  1.0000
  O   O14       1.0  0.027480286479281836  0.5096477100227406  0.8904699203466606  1.0000
  O   O15       1.0  0.04780736362491926  0.6308293201707118  0.0012345015792548512  1.0000
  O   O16       1.0  0.13777414716773964  0.6015543316334588  0.13595115651877182  1.0000
  O   O17       1.0  0.09535569469058891  0.9761260504606994  0.45989021500441396  1.0000
  O   O18       1.0  0.137013644359044  0.10950666004080033  0.6191652088271695  1.0000
  O   O19       1.0  0.046560402577639964  0.9987717421458342  0.6296098404499303  1.0000
  O   O20       1.0  0.0018282128485936277  0.8640588067608734  0.4656261574475522  1.0000
  O   O21       1.0  0.6354535213903532  0.5400836963751133  0.5162228398006691  1.0000
  O   O22       1.0  0.5178343887099218  0.38082461512680515  0.49035399054071155  1.0000
  O   O23       1.0  0.4169688891792093  0.37040042109339316  0.36917103316055494  1.0000
  O   O24       1.0  0.5362160825984078  0.5343909274014251  0.3984437940118468  1.0000
  O   O25       1.0  0.5953541551325259  0.45988620191155866  0.9761263168823859  1.0000
  O   O26       1.0  0.6370108388375827  0.6191640939214482  0.10950786883447007  1.0000
  O   O27       1.0  0.546561483909315  0.6296084904564482  0.9987720591796291  1.0000
  O   O28       1.0  0.5018234230795927  0.4656213098666911  0.8640609163031031  1.0000
  O   O29       1.0  0.13546049709394475  0.5162290378310743  0.5400878496758779  1.0000
  O   O30       1.0  0.017836354486469422  0.4903581024456757  0.3808252464838731  1.0000
  O   O31       1.0  0.9169698776386712  0.3691726244838733  0.37040030477287905  1.0000
  O   O32       1.0  0.03621798715460043  0.3984518018984033  0.5343960911611346  1.0000
  O   O33       1.0  0.6192274522114546  0.0238564477482512  0.4837738472942021  1.0000
  O   O34       1.0  0.5274755518110368  0.8904681028576604  0.5096441118617179  1.0000
  O   O35       1.0  0.5478039303168105  0.0012328168094911  0.6308254950828244  1.0000
  O   O36       1.0  0.6377755611123777  0.13594743167001164  0.6015543430898519  1.0000
  O   O37       1.0  0.8807700842851105  0.5162234369798356  0.9761472350651702  1.0000
  O   O38       1.0  0.972521057256735  0.4903543370370969  0.10953043105385525  1.0000
  O   O39       1.0  0.9521943165403645  0.36917338982694053  0.998767807070614  1.0000
  O   O40       1.0  0.8622226086462348  0.39844771528608897  0.8640514717532852  1.0000
  O   O41       1.0  0.9046386279604661  0.023870029997418406  0.5401014907021064  1.0000
  O   O42       1.0  0.8629871934524331  0.8904920723118155  0.38083440628187065  1.0000
  O   O43       1.0  0.953436253662133  0.0012289789159823  0.37038852097381897  1.0000
  O   O44       1.0  0.9981726956174558  0.13593661089642953  0.5343734528709236  1.0000
  O   O45       1.0  0.3645482967892946  0.45991238423791714  0.4837783754175576  1.0000
  O   O46       1.0  0.4821610953363591  0.6191714653401592  0.5096418877938618  1.0000
  O   O47       1.0  0.5830289152766212  0.6296003000012503  0.6308271654892508  1.0000
  O   O48       1.0  0.4637877104106495  0.4656044903124653  0.6015600157363751  1.0000
