data_image0
_chemical_formula_structural       Ag2H24C28N14O6
_chemical_formula_sum              "Ag2 H24 C28 N14 O6"
_cell_length_a       7.779716741769011
_cell_length_b       8.437563220446279
_cell_length_c       13.685655000467001
_cell_angle_alpha    89.24470803846937
_cell_angle_beta     90.87525339875343
_cell_angle_gamma    64.84290241686536

_space_group_name_H-M_alt    "P 1"
_space_group_IT_number       1

loop_
  _space_group_symop_operation_xyz
  'x, y, z'

loop_
  _atom_site_type_symbol
  _atom_site_label
  _atom_site_symmetry_multiplicity
  _atom_site_fract_x
  _atom_site_fract_y
  _atom_site_fract_z
  _atom_site_occupancy
  Ag  Ag1       1.0  0.022087475682646098  0.49927420296519653  0.24539416344115486  1.0000
  Ag  Ag2       1.0  0.9779167834482859  0.5007169934910466  0.7546045244696202  1.0000
  H   H1        1.0  0.47836094313787186  0.36516184848794353  0.8338091139503092  1.0000
  H   H2        1.0  0.5216338724848625  0.6348331966248253  0.1661917466303038  1.0000
  H   H3        1.0  0.3067460868306993  0.6864242242052331  0.7928596795408466  1.0000
  H   H4        1.0  0.6932545713267257  0.3135695794760452  0.20714409975890644  1.0000
  H   H5        1.0  0.07511703673549144  0.8890340872029372  0.9025822300431796  1.0000
  H   H6        1.0  0.9248880613409796  0.1109610795145031  0.09742004920163788  1.0000
  H   H7        1.0  0.006539107181680383  0.7847483370031869  0.0652781129472615  1.0000
  H   H8        1.0  0.9934640663228507  0.2152481222739198  0.934723423715681  1.0000
  H   H9        1.0  0.6694945264931391  0.0364363682258926  0.0321015579783648  1.0000
  H   H10       1.0  0.33051312840952796  0.9635588276646204  0.9679007105684647  1.0000
  H   H11       1.0  0.5577608315302668  0.0798876260719439  0.91234173553795  1.0000
  H   H12       1.0  0.44223911141473576  0.9201101087221062  0.08765833316402899  1.0000
  H   H13       1.0  0.668080228276274  0.34289945331912725  0.6494663941138015  1.0000
  H   H14       1.0  0.3319164851292909  0.6571193326077991  0.3505406798793516  1.0000
  H   H15       1.0  0.5259038002005308  0.6622044013001942  0.6889663689457989  1.0000
  H   H16       1.0  0.4740938329150735  0.3378196274968844  0.3110289285398977  1.0000
  H   H17       1.0  0.5538951193687539  0.8791265271971866  0.5791889175548589  1.0000
  H   H18       1.0  0.4460930963236294  0.12089209752483042  0.4207962666898267  1.0000
  H   H19       1.0  0.7275196403191372  0.7919878980320548  0.42066701754891506  1.0000
  H   H20       1.0  0.27248113984717276  0.20800981204949662  0.5793213541547643  1.0000
  H   H21       1.0  0.8251491791551899  0.015970446963336805  0.43904021198640203  1.0000
  H   H22       1.0  0.1748451691907888  0.9840338115819877  0.5609612428557682  1.0000
  H   H23       1.0  0.8262993072381235  0.07188089673502421  0.5657519980569461  1.0000
  H   H24       1.0  0.1736937905039682  0.928118089465876  0.4342524645557049  1.0000
  C   C1        1.0  0.3365164221028891  0.39975918583024134  0.9735059160433294  1.0000
  C   C2        1.0  0.663482339057083  0.6002359128668929  0.0264978514026311  1.0000
  C   C3        1.0  0.3776088636537408  0.4558584374936105  0.8835860360359644  1.0000
  C   C4        1.0  0.6223924955767971  0.5441393241679292  0.1164176809574258  1.0000
  C   C5        1.0  0.28172943645508025  0.6336324366294264  0.8614114750750161  1.0000
  C   C6        1.0  0.7182795381050439  0.36636540763895215  0.13859074836823734  1.0000
  C   C7        1.0  0.1493235073538128  0.7519970989058965  0.9257874631163998  1.0000
  C   C8        1.0  0.8506783186840465  0.24800196975123612  0.0742111162286321  1.0000
  C   C9        1.0  0.10997365586362653  0.6972572828167145  0.015149893886203395  1.0000
  C   C10       1.0  0.8900307548096289  0.3027365572556064  0.9848516771823197  1.0000
  C   C11       1.0  0.2069678645357057  0.5179296450358849  0.0384016427016221  1.0000
  C   C12       1.0  0.7930315013040284  0.4820667729378061  0.9616006407363854  1.0000
  C   C13       1.0  0.5363024661754565  0.06983321251602352  0.9906101765765171  1.0000
  C   C14       1.0  0.4637013947322897  0.9301645734062023  0.009392068262719995  1.0000
  C   C15       1.0  0.7748731880921154  0.3930752031463031  0.5116377032668921  1.0000
  C   C16       1.0  0.22511608784586193  0.6069316308442012  0.4883637332166799  1.0000
  C   C17       1.0  0.6788495701729075  0.4399826442586702  0.5999271011516072  1.0000
  C   C18       1.0  0.3211629790410412  0.5600271057303348  0.40008004512013423  1.0000
  C   C19       1.0  0.6013049717452219  0.616716372194645  0.6212957242000385  1.0000
  C   C20       1.0  0.39868872997247706  0.3832997139250409  0.37870043932446135  1.0000
  C   C21       1.0  0.6166004149514065  0.7430259455858278  0.5569811079536605  1.0000
  C   C22       1.0  0.3833815465479373  0.25699261848445343  0.44300775667640113  1.0000
  C   C23       1.0  0.7110682872106718  0.696786601687599  0.4695415730737408  1.0000
  C   C24       1.0  0.2889378132993058  0.3032138152685633  0.5304511218478608  1.0000
  C   C25       1.0  0.7912893568120507  0.5181111781347881  0.4473348102411875  1.0000
  C   C26       1.0  0.20870478484263083  0.48189043188207853  0.5526622999870766  1.0000
  C   C27       1.0  0.8942644601392258  0.06205244088994991  0.4952334587235752  1.0000
  C   C28       1.0  0.10573241769317575  0.9379465841581833  0.5047695263859281  1.0000
  N   N1        1.0  0.39662101029223595  0.24021607592444386  0.020606465843016494  1.0000
  N   N2        1.0  0.603382259605638  0.759783022056368  0.979396492521509  1.0000
  N   N3        1.0  0.31352475661273604  0.25615145433083353  0.10786094374692817  1.0000
  N   N4        1.0  0.6864797641237458  0.7438476557803287  0.8921412785405208  1.0000
  N   N5        1.0  0.19954884939951964  0.4220440466534684  0.119155155663762  1.0000
  N   N6        1.0  0.800455671336962  0.5779550634576938  0.8808470666236872  1.0000
  N   N7        1.0  0.8693780102568452  0.2369171294561525  0.46615729307902126  1.0000
  N   N8        1.0  0.13061699815258968  0.7630831930640272  0.5338464109047649  1.0000
  N   N9        1.0  0.9391371685277646  0.2606268689933983  0.3805786247428172  1.0000
  N   N10       1.0  0.060863517204147316  0.7393669371440694  0.6194258852850181  1.0000
  N   N11       1.0  0.8938546025342617  0.42862128385738885  0.36867019532328976  1.0000
  N   N12       1.0  0.10614643994174602  0.5713685592368449  0.6313285258372615  1.0000
  N   N13       1.0  0.8036430513981827  0.8972896729447087  0.2519556552580227  1.0000
  N   N14       1.0  0.19636560640741857  0.102700252756371  0.7480415723523918  1.0000
  O   O1        1.0  0.9498157575622128  0.8079140189196466  0.3060650097701156  1.0000
  O   O2        1.0  0.05019226775443284  0.19207984526276795  0.6939306994267722  1.0000
  O   O3        1.0  0.7734249639798204  0.8282662293394197  0.17526154025927096  1.0000
  O   O4        1.0  0.22658497223888213  0.1717237109481857  0.8247356820021494  1.0000
  O   O5        1.0  0.6911681446253508  0.04921918325868551  0.2756827631732364  1.0000
  O   O6        1.0  0.30883484999709027  0.9507693697320649  0.7243174312972726  1.0000
