data_image0
_chemical_formula_structural       Hg4H40C32N20O20
_chemical_formula_sum              "Hg4 H40 C32 N20 O20"
_cell_length_a       5.32444434
_cell_length_b       13.598912181947673
_cell_length_c       16.956
_cell_angle_alpha    100.79702310648892
_cell_angle_beta     90.0
_cell_angle_gamma    101.28957598088475

_space_group_name_H-M_alt    "P 1"
_space_group_IT_number       1

loop_
  _space_group_symop_operation_xyz
  'x, y, z'

loop_
  _atom_site_type_symbol
  _atom_site_label
  _atom_site_symmetry_multiplicity
  _atom_site_fract_x
  _atom_site_fract_y
  _atom_site_fract_z
  _atom_site_occupancy
  Hg  Hg1       1.0  0.06144699159083441  0.0565094626387008  0.1968192485231484  1.0000
  Hg  Hg2       1.0  0.004740595266099592  0.9431126186799619  0.3032754233743661  1.0000
  Hg  Hg3       1.0  0.9385463712493163  0.9434945839008506  0.8031830107662403  1.0000
  Hg  Hg4       1.0  0.9952587522307116  0.056888372137819915  0.6967228382496276  1.0000
  H   H1        1.0  0.9015875692244393  0.1461643392849652  0.0362144314907056  1.0000
  H   H2        1.0  0.7548385000033164  0.8533737096851013  0.4638245626880321  1.0000
  H   H3        1.0  0.09841671213134619  0.853842762976349  0.9637847483232562  1.0000
  H   H4        1.0  0.2451785462981491  0.1466326286457758  0.5361750921139148  1.0000
  H   H5        1.0  0.2277592789378815  0.4620083247135085  0.16462554040503363  1.0000
  H   H6        1.0  0.7658594006373393  0.537732165823634  0.3353789950253443  1.0000
  H   H7        1.0  0.7722528652048128  0.5379957218260429  0.8353790779313075  1.0000
  H   H8        1.0  0.23413316657043745  0.462266533202822  0.6646218710860907  1.0000
  H   H9        1.0  0.024428000094317816  0.5527082582041132  0.1859358135925859  1.0000
  H   H10       1.0  0.4716870239145053  0.44711091716852286  0.31401507998088357  1.0000
  H   H11       1.0  0.9755781276915202  0.4472950244049941  0.8140669206847946  1.0000
  H   H12       1.0  0.5283039837287191  0.5528809064839564  0.6859877019755274  1.0000
  H   H13       1.0  0.08449201497198545  0.502910688426816  0.08363228024528273  1.0000
  H   H14       1.0  0.58167596236774  0.4967610483705585  0.4163412838872063  1.0000
  H   H15       1.0  0.915517487108268  0.49709183025184706  0.9163709290200899  1.0000
  H   H16       1.0  0.4183042218604385  0.5032391785167789  0.5836633503421425  1.0000
  H   H17       1.0  0.5863705381941883  0.1660441011711811  0.2765743899035372  1.0000
  H   H18       1.0  0.41939127256978287  0.8336834025484521  0.2234488360339313  1.0000
  H   H19       1.0  0.4136359398575422  0.8339561257161634  0.7234284750405993  1.0000
  H   H20       1.0  0.5806068973285577  0.1663114768257969  0.7765467381148881  1.0000
  H   H21       1.0  0.6511503049693133  0.294544076851075  0.3319325018429567  1.0000
  H   H22       1.0  0.3565588748300854  0.7051077977548204  0.1681967240791948  1.0000
  H   H23       1.0  0.34885620478262075  0.7054599696884766  0.668069757446439  1.0000
  H   H24       1.0  0.643441204898707  0.29489090127163564  0.8318017829852948  1.0000
  H   H25       1.0  0.33168909497416627  0.23513015067275944  0.296324677829503  1.0000
  H   H26       1.0  0.09581590496747341  0.7642306664348197  0.203677073128965  1.0000
  H   H27       1.0  0.6683102525226448  0.7648708401450224  0.7036777121266413  1.0000
  H   H28       1.0  0.904186785123557  0.23576574080031076  0.7963187305673429  1.0000
  H   H29       1.0  0.2270191950670153  0.3694841253279435  0.9543215602420078  1.0000
  H   H30       1.0  0.857657092380478  0.6303732465667835  0.5459264143164618  1.0000
  H   H31       1.0  0.7729985834664319  0.6305199212116079  0.0456777502387098  1.0000
  H   H32       1.0  0.14233133660069802  0.36962468852922836  0.4540737472594928  1.0000
  H   H33       1.0  0.9799438504742357  0.2557318268264482  0.9340896296330785  1.0000
  H   H34       1.0  0.7241699731481078  0.7440957517810534  0.5660294290229544  1.0000
  H   H35       1.0  0.02007692038753822  0.7442706918522219  0.0659106308236161  1.0000
  H   H36       1.0  0.2758188694993535  0.2559067668976098  0.4339708314337401  1.0000
  H   H37       1.0  0.3020602848101391  0.2498182412766923  0.9069048697707915  1.0000
  H   H38       1.0  0.05218252645962452  0.7501208711753051  0.5932397922781689  1.0000
  H   H39       1.0  0.6979601040855529  0.7501835134715336  0.09309645543562793  1.0000
  H   H40       1.0  0.9478183172013459  0.2498793557120322  0.4067565852868711  1.0000
  C   C1        1.0  0.05849156612804766  0.48535098329226406  0.14374002156907306  1.0000
  C   C2        1.0  0.573191389661318  0.5144208283929856  0.3562692195848811  1.0000
  C   C3        1.0  0.941516439788046  0.5146522993168432  0.8562633024700405  1.0000
  C   C4        1.0  0.42679961798189947  0.4855709952594935  0.6437323828480572  1.0000
  C   C5        1.0  0.8065031108495688  0.3555859388008003  0.20758438971831344  1.0000
  C   C6        1.0  0.4508868636401075  0.6442355283631684  0.29249482647315267  1.0000
  C   C7        1.0  0.19349209842064136  0.6444142880865371  0.7924184752258228  1.0000
  C   C8        1.0  0.5491139483206666  0.3557608788719691  0.707505695317046  1.0000
  C   C9        1.0  0.5348287549643376  0.24128131858989832  0.2830473734213258  1.0000
  C   C10       1.0  0.2930241149005612  0.7583499298940668  0.2170050333926596  1.0000
  C   C11       1.0  0.4651769908554186  0.7587212000887646  0.7169534767971087  1.0000
  C   C12       1.0  0.7069770790263022  0.2416472412715081  0.7829920646008617  1.0000
  C   C13       1.0  0.4093264568510975  0.2578013143932054  0.1459958572069411  1.0000
  C   C14       1.0  0.15150846020313216  0.7419605661963047  0.3541487166111281  1.0000
  C   C15       1.0  0.5906811670989072  0.7422012042854647  0.8540044032497535  1.0000
  C   C16       1.0  0.8484829611063773  0.2580358410388257  0.6458453177999746  1.0000
  C   C17       1.0  0.44460232016735557  0.3047899119361048  0.0799574571348387  1.0000
  C   C18       1.0  0.13990257581207294  0.695005581592838  0.4201921667280502  1.0000
  C   C19       1.0  0.5554169545302585  0.6952133706730025  0.9200417385721311  1.0000
  C   C20       1.0  0.860077926981802  0.3049877699205297  0.5797990495411227  1.0000
  C   C21       1.0  0.6629714612570082  0.3822379440533155  0.0728607322257915  1.0000
  C   C22       1.0  0.28091642922736076  0.6175292840492901  0.4272398231165441  1.0000
  C   C23       1.0  0.33704704950842784  0.6177638106949106  0.9271411827423679  1.0000
  C   C24       1.0  0.7190433507333297  0.3824564281596636  0.5727543737473226  1.0000
  C   C25       1.0  0.182022640492228  0.2866656622050883  0.9509133837272686  1.0000
  C   C26       1.0  0.8953569524180054  0.7131726114285968  0.5492438469888583  1.0000
  C   C27       1.0  0.8179985123356419  0.7133376204040189  0.0490875812649065  1.0000
  C   C28       1.0  0.10462963013311824  0.2868291433196219  0.45075570893235556  1.0000
  C   C29       1.0  0.07937901889934551  0.1935142759268302  0.0640024354654543  1.0000
  C   C30       1.0  0.8855632251889816  0.806133779026851  0.43609436945421015  1.0000
  C   C31       1.0  0.920632011045271  0.8064912984736026  0.935995925039272  1.0000
  C   C32       1.0  0.1144345944434662  0.1938641560691607  0.5639052023600115  1.0000
  N   N1        1.0  0.8340963279834883  0.4028953871292487  0.1407349117697052  1.0000
  N   N2        1.0  0.43138176611231677  0.5969428865044364  0.3593521372998012  1.0000
  N   N3        1.0  0.16591167793260553  0.5971078954798585  0.8592684122694153  1.0000
  N   N4        1.0  0.568598704981369  0.4030466453567173  0.6406449924797428  1.0000
  N   N5        1.0  0.5817967009709903  0.2830614383808125  0.2099696636906003  1.0000
  N   N6        1.0  0.2985815461471831  0.7167157208175327  0.29014181989821  1.0000
  N   N7        1.0  0.4182052885882471  0.7169410802978576  0.7900311865278269  1.0000
  N   N8        1.0  0.7014125172247603  0.2832822142784792  0.7098542133455938  1.0000
  N   N9        1.0  0.2300104091603785  0.2633612001484167  0.0293742331353926  1.0000
  N   N10       1.0  0.9666671932705598  0.7363777625278445  0.4707533329503732  1.0000
  N   N11       1.0  0.7700043770447422  0.7366443742520232  0.9706264864162863  1.0000
  N   N12       1.0  0.0333155379194636  0.26361253326375333  0.5292403730324935  1.0000
  N   N13       1.0  0.1815226424298331  0.18853650516825135  0.1356643361923844  1.0000
  N   N14       1.0  0.9926425163072139  0.8111062022723416  0.3644257676936959  1.0000
  N   N15       1.0  0.8184775006993519  0.8114698331626258  0.8643353186095624  1.0000
  N   N16       1.0  0.0073553350254301  0.1888955524758842  0.6355720189423054  1.0000
  N   N17       1.0  0.5467994414444136  0.9681450913959253  0.09735362128981252  1.0000
  N   N18       1.0  0.5791148823319787  0.0318849287786449  0.4028029295496864  1.0000
  N   N19       1.0  0.4531976776562487  0.0318589551436261  0.9026462789526379  1.0000
  N   N20       1.0  0.4208874574931516  0.9681145341782555  0.5972015899059144  1.0000
  O   O1        1.0  0.9715028136940521  0.3773953889829258  0.2627046605737959  1.0000
  O   O2        1.0  0.5938699017426715  0.622357324441282  0.23732825051464357  1.0000
  O   O3        1.0  0.028507038652094387  0.6226040739739747  0.7372986793583253  1.0000
  O   O4        1.0  0.4061320561163699  0.3776413745851742  0.7626749746437369  1.0000
  O   O5        1.0  0.7064983698486459  0.4272403224476164  0.015857489652717004  1.0000
  O   O6        1.0  0.27936057604936343  0.5724940566459935  0.4842098218552097  1.0000
  O   O7        1.0  0.2935246611094797  0.5727629601614908  0.9841434753394581  1.0000
  O   O8        1.0  0.7205646019343775  0.4274863080498648  0.5157747251663949  1.0000
  O   O9        1.0  0.5514862845797738  0.0510542353540089  0.1483970306625082  1.0000
  O   O10       1.0  0.5001592912652556  0.9488894606806398  0.35192112021764643  1.0000
  O   O11       1.0  0.44850370396596184  0.9489505751159799  0.8516035741154226  1.0000
  O   O12       1.0  0.49983330764271733  0.0511130579980303  0.6480779607155753  1.0000
  O   O13       1.0  0.33774874850251996  0.9064829179274767  0.07728145527395472  1.0000
  O   O14       1.0  0.432165694096149  0.0936930129614737  0.4229695580445352  1.0000
  O   O15       1.0  0.6622517448925578  0.0935203646816305  0.9227189199564806  1.0000
  O   O16       1.0  0.5678490604087827  0.9063087417867521  0.5770358954940349  1.0000
  O   O17       1.0  0.7567644767077228  0.9496595025659433  0.06901015492289991  1.0000
  O   O18       1.0  0.8078148975747652  0.05027197058164031  0.4309357892069485  1.0000
  O   O19       1.0  0.24323455222338453  0.0503483636258153  0.9309903191882755  1.0000
  O   O20       1.0  0.19217681060024472  0.9497137416273064  0.5690743312237956  1.0000
