data_image0
_chemical_formula_structural       H12Pb2C16O14F8
_chemical_formula_sum              "H12 Pb2 C16 O14 F8"
_cell_length_a       7.389406893513374
_cell_length_b       8.38902700591505
_cell_length_c       10.642537475688119
_cell_angle_alpha    77.8860224428557
_cell_angle_beta     74.03797023855452
_cell_angle_gamma    66.78023170213469

_space_group_name_H-M_alt    "P 1"
_space_group_IT_number       1

loop_
  _space_group_symop_operation_xyz
  'x, y, z'

loop_
  _atom_site_type_symbol
  _atom_site_label
  _atom_site_symmetry_multiplicity
  _atom_site_fract_x
  _atom_site_fract_y
  _atom_site_fract_z
  _atom_site_occupancy
  H   H1        1.0  0.07586461429896471  0.13932744991544865  0.7651676460259939  1.0000
  H   H2        1.0  0.9241333927998383  0.8606729682187789  0.23483349434074804  1.0000
  H   H3        1.0  0.9777335520496494  0.22818866094713997  0.639417724720424  1.0000
  H   H4        1.0  0.022260230812875603  0.7718117520796354  0.360583290837326  1.0000
  H   H5        1.0  0.23623417441401537  0.5369948373531412  0.47361848471410894  1.0000
  H   H6        1.0  0.7637624222926294  0.4630055876963509  0.5263829262118095  1.0000
  H   H7        1.0  0.3441294475108591  0.6155527407479511  0.34471103769860184  1.0000
  H   H8        1.0  0.6558671491957853  0.38444768430154147  0.6552903732273094  1.0000
  H   H9        1.0  0.6349693122546327  0.6125306901254105  0.3659355718137791  1.0000
  H   H10       1.0  0.36502588100005084  0.387469715986107  0.6340651731847943  1.0000
  H   H11       1.0  0.7316424153626785  0.7361774800957194  0.3958856305967516  1.0000
  H   H12       1.0  0.2683527778920052  0.2638229260157913  0.6041151144018287  1.0000
  Pb  Pb1       1.0  0.28909119093175684  0.8474493470543577  0.5760115132698119  1.0000
  Pb  Pb2       1.0  0.7109052195415159  0.15255498745390375  0.4239892282554295  1.0000
  C   C1        1.0  0.7175010528738855  0.8822816966044016  0.6739562921651868  1.0000
  C   C2        1.0  0.2825001279245641  0.11772128584683368  0.32604283414319474  1.0000
  C   C3        1.0  0.7032119237138517  0.7647449142878738  0.8018662168427542  1.0000
  C   C4        1.0  0.29678977541271934  0.23525681441182658  0.1981349153858147  1.0000
  C   C5        1.0  0.8445475799389969  0.5966619147285142  0.8139606969552844  1.0000
  C   C6        1.0  0.15545747218038744  0.4033384946826573  0.1860400271021021  1.0000
  C   C7        1.0  0.8352540993012385  0.48375603167194453  0.9295559225162153  1.0000
  C   C8        1.0  0.16475149890705154  0.5162430205747413  0.07044306151532  1.0000
  C   C9        1.0  0.6846180312635469  0.5365989711797069  0.04234844634748211  1.0000
  C   C10       1.0  0.3153880922130554  0.46339880146220475  0.9576516071177327  1.0000
  C   C11       1.0  0.5412734257833806  0.705927698748276  0.028784872429518757  1.0000
  C   C12       1.0  0.45873356893667966  0.2940713982896311  0.9712157140158698  1.0000
  C   C13       1.0  0.5486294602115721  0.8161957432296063  0.9112595552054545  1.0000
  C   C14       1.0  0.4513710078160075  0.18380210877982248  0.08874345346946914  1.0000
  C   C15       1.0  0.6802720024831219  0.41690942880787657  0.17001432145254816  1.0000
  C   C16       1.0  0.31973627758830514  0.5830830185890432  0.8299825178552852  1.0000
  O   O1        1.0  0.8744884069852504  0.9197574556882696  0.6291295498894699  1.0000
  O   O2        1.0  0.12551190256974817  0.08024420236697691  0.37086904343873783  1.0000
  O   O3        1.0  0.5680036342796059  0.9381126469572932  0.6188743102751745  1.0000
  O   O4        1.0  0.4319934876953511  0.061886498487425  0.38112817008441613  1.0000
  O   O5        1.0  0.10778382426143915  0.1526873332240442  0.6692278768003135  1.0000
  O   O6        1.0  0.892213118420344  0.8473156958262035  0.3307729976720922  1.0000
  O   O7        1.0  0.22257253644319533  0.6504286283253716  0.41659505867675517  1.0000
  O   O8        1.0  0.777425470655608  0.34957178980886267  0.5834060816899865  1.0000
  O   O9        1.0  0.6479483779201018  0.6624579720692338  0.43838904961934594  1.0000
  O   O10       1.0  0.3520454049424231  0.3375424409575416  0.561611965938404  1.0000
  O   O11       1.0  0.7665826387070142  0.2550562450627112  0.16558265923408308  1.0000
  O   O12       1.0  0.23341677878394052  0.7449441661562587  0.8344182105734818  1.0000
  O   O13       1.0  0.5898210401665837  0.48705236498730636  0.2774980781666373  1.0000
  O   O14       1.0  0.41017839120476646  0.5129479945251915  0.7225009186679119  1.0000
  F   F1        1.0  0.9943936790093705  0.5393511681061797  0.7086904150986444  1.0000
  F   F2        1.0  0.005609804245281714  0.46065305426606773  0.2913061641712035  1.0000
  F   F3        1.0  0.9803659589479778  0.3224817314466648  0.9296984790555598  1.0000
  F   F4        1.0  0.01963542890442941  0.6775172639860827  0.07029850719396079  1.0000
  F   F5        1.0  0.38403208699685376  0.7673304591558645  0.1293353737710916  1.0000
  F   F6        1.0  0.6159731513559095  0.2326660407965377  0.8706660196869723  1.0000
  F   F7        1.0  0.4033653036796497  0.9762553041950139  0.9051082198729573  1.0000
  F   F8        1.0  0.5966328965927161  0.023741178627211902  0.09489265340794624  1.0000
