data_image0
_chemical_formula_structural       NiH18C20N4O6
_chemical_formula_sum              "Ni1 H18 C20 N4 O6"
_cell_length_a       6.63440325305369
_cell_length_b       7.035936078901322
_cell_length_c       10.28060569953405
_cell_angle_alpha    78.03991385844921
_cell_angle_beta     80.67750452197286
_cell_angle_gamma    72.05142071198563

_space_group_name_H-M_alt    "P 1"
_space_group_IT_number       1

loop_
  _space_group_symop_operation_xyz
  'x, y, z'

loop_
  _atom_site_type_symbol
  _atom_site_label
  _atom_site_symmetry_multiplicity
  _atom_site_fract_x
  _atom_site_fract_y
  _atom_site_fract_z
  _atom_site_occupancy
  Ni  Ni1       1.0  0.4999943635665501  1.8670241885984965e-06  0.4999998367863301  1.0000
  H   H1        1.0  0.8028583793778951  0.9793905466219996  0.30265501726015753  1.0000
  H   H2        1.0  0.1971474179447767  0.020609101529792895  0.6973466507952325  1.0000
  H   H3        1.0  0.6205130008546788  0.8970171319988652  0.27222762803763356  1.0000
  H   H4        1.0  0.37948416262449297  0.10298565324758611  0.7277783063120823  1.0000
  H   H5        1.0  0.11195302035011419  0.17219980881775143  0.3225738366527083  1.0000
  H   H6        1.0  0.8880473293208551  0.8278029746154161  0.6774279167986705  1.0000
  H   H7        1.0  0.39403787236291526  0.4366029862205139  0.5324720455167835  1.0000
  H   H8        1.0  0.6059645952016055  0.563392239812032  0.4675295285797319  1.0000
  H   H9        1.0  0.10534819676237106  0.7762703374586767  0.08167046251101334  1.0000
  H   H10       1.0  0.8946502256306984  0.22373401316185956  0.9183302884137704  1.0000
  H   H11       1.0  0.8517096136108363  0.9155597326436364  0.909818017621575  1.0000
  H   H12       1.0  0.1482865144462124  0.08444162423023731  0.09018527803623753  1.0000
  H   H13       1.0  0.5272652024007981  0.7994675577129657  0.9317468189183843  1.0000
  H   H14       1.0  0.4727348601374572  0.2005263778551338  0.06824638481856485  1.0000
  H   H15       1.0  0.46477044618318086  0.5348072084668871  0.12434493541338301  1.0000
  H   H16       1.0  0.5352306238407393  0.46518813834860845  0.8756518847800765  1.0000
  H   H17       1.0  0.7219073859388344  0.3902250785883298  0.29311629813922496  1.0000
  H   H18       1.0  0.2780807865180037  0.6097885029978869  0.7068861248228799  1.0000
  C   C1        1.0  0.29691849956377336  0.4322124203107123  0.45925514851784044  1.0000
  C   C2        1.0  0.7030901727655136  0.5677826993441287  0.5407439303696223  1.0000
  C   C3        1.0  0.17416696532683323  0.5920673914650791  0.3727293058229577  1.0000
  C   C4        1.0  0.825834276199913  0.4079323964081425  0.627270811463106  1.0000
  C   C5        1.0  0.08014089600327173  0.49587093580491637  0.30119735325821045  1.0000
  C   C6        1.0  0.9198528867844542  0.5041335031614835  0.6988047801910612  1.0000
  C   C7        1.0  0.8290293471360213  0.1951831830951393  0.627822339057758  1.0000
  C   C8        1.0  0.17097435140591705  0.8048135911862956  0.3721750293784326  1.0000
  C   C9        1.0  0.9296360886335008  0.5764387192253579  0.1997940839979009  1.0000
  C   C10       1.0  0.07035967730507052  0.4235641868040503  0.8002070964487519  1.0000
  C   C11       1.0  0.9640720652485372  0.7248290541756717  0.09100225321846984  1.0000
  C   C12       1.0  0.03592805704666798  0.2751692539494003  0.9089981586695047  1.0000
  C   C13       1.0  0.8205428497610754  0.8036259816780529  0.9951085268774522  1.0000
  C   C14       1.0  0.17946017547721738  0.19636781507526282  0.004888318077995316  1.0000
  C   C15       1.0  0.6395381842051151  0.7368265876385323  0.006971494141943419  1.0000
  C   C16       1.0  0.36046003874865556  0.26317330479909634  0.993026937454836  1.0000
  C   C17       1.0  0.6047754379500957  0.5885085828710502  0.11445735194431712  1.0000
  C   C18       1.0  0.3952219210843709  0.4114943222517055  0.8855417380531706  1.0000
  C   C19       1.0  0.7494685070157842  0.5069460161644699  0.20997366936887835  1.0000
  C   C20       1.0  0.2505277607236138  0.49305542633533134  0.7900247374659132  1.0000
  N   N1        1.0  0.2862192951654663  0.2538126934092659  0.44131272540881383  1.0000
  N   N2        1.0  0.7137789277882971  0.7461871990283556  0.5586857061879585  1.0000
  N   N3        1.0  0.15322878034234577  0.29334152193070656  0.34578071257005405  1.0000
  N   N4        1.0  0.8467645844539647  0.7066644319408582  0.6542212611972716  1.0000
  O   O1        1.0  0.6969840054418269  0.1788986897389009  0.5574097763020448  1.0000
  O   O2        1.0  0.30303500063309485  0.8210872503258246  0.44258469725428273  1.0000
  O   O3        1.0  0.9535808334121396  0.043467743934009206  0.6963495839526035  1.0000
  O   O4        1.0  0.04642664469984237  0.9565362929932988  0.3036562240400401  1.0000
  O   O5        1.0  0.641602885993393  0.009808015088097494  0.3046674869375466  1.0000
  O   O6        1.0  0.3584013182333833  0.9901916339703335  0.6953362715670154  1.0000
