data_image0
_chemical_formula_structural       CoH12C12S2N10O10
_chemical_formula_sum              "Co1 H12 C12 S2 N10 O10"
_cell_length_a       6.819882478930458
_cell_length_b       8.602771889798316
_cell_length_c       9.902132362927228
_cell_angle_alpha    64.75596204935103
_cell_angle_beta     73.60800094146559
_cell_angle_gamma    82.72528222123447

_space_group_name_H-M_alt    "P 1"
_space_group_IT_number       1

loop_
  _space_group_symop_operation_xyz
  'x, y, z'

loop_
  _atom_site_type_symbol
  _atom_site_label
  _atom_site_symmetry_multiplicity
  _atom_site_fract_x
  _atom_site_fract_y
  _atom_site_fract_z
  _atom_site_occupancy
  Co  Co1       1.0  0.49999491756700115  0.9999997895921311  0.5000029323697391  1.0000
  H   H1        1.0  0.2106050279489723  0.31102589048550305  0.517563391130487  1.0000
  H   H2        1.0  0.7893900932749032  0.6889735744588847  0.4824353396949519  1.0000
  H   H3        1.0  0.4122170765969173  0.882503049899107  0.8661240146177248  1.0000
  H   H4        1.0  0.5877779964081782  0.1175002666143143  0.13387227936414803  1.0000
  H   H5        1.0  0.17374887708498926  0.0903934191359852  0.0007005288234510112  1.0000
  H   H6        1.0  0.8262492993160606  0.9096060780899509  0.9992976517806084  1.0000
  H   H7        1.0  0.1454772439957424  0.7638977995286141  0.5438979125390587  1.0000
  H   H8        1.0  0.8545270909784506  0.23609791069139163  0.45610160446581455  1.0000
  H   H9        1.0  0.6033114592614764  0.6728453815567476  0.7834446671713806  1.0000
  H   H10       1.0  0.39668948941384485  0.327155454967631  0.21655858768721  1.0000
  H   H11       1.0  0.3477105095353963  0.3879044930394713  0.9302359526025086  1.0000
  H   H12       1.0  0.6522887731437379  0.6120950568965354  0.06977211619155813  1.0000
  C   C1        1.0  0.2389352706887777  0.22255696802786673  0.6271433398839361  1.0000
  C   C2        1.0  0.7610629899743769  0.7774425218842042  0.3728528080599816  1.0000
  C   C3        1.0  0.3371417153439892  0.0032273605436898994  0.8129562594311041  1.0000
  C   C4        1.0  0.6628609835896242  0.9967747552552098  0.18704014883188344  1.0000
  C   C5        1.0  0.21749107889339567  0.10110527489592872  0.8826632057873808  1.0000
  C   C6        1.0  0.7825086552128583  0.8988929533954604  0.11733517321049175  1.0000
  C   C7        1.0  0.23529324782990096  0.7041782771362721  0.6280725760749418  1.0000
  C   C8        1.0  0.7647109727655773  0.2958187254729126  0.37192850008556627  1.0000
  C   C9        1.0  0.46928332925164545  0.6484970335570424  0.7570572666619882  1.0000
  C   C10       1.0  0.530716145980577  0.3515050645880251  0.24294375714265468  1.0000
  C   C11       1.0  0.34866062794799285  0.5066021338795111  0.8287381460561464  1.0000
  C   C12       1.0  0.6513387931387414  0.4933986865041008  0.17126538391313767  1.0000
  S   S1        1.0  0.013419366056424997  0.4080280017480576  0.7829664254303168  1.0000
  S   S2        1.0  0.9865817210264891  0.5919741052239261  0.21703229060349827  1.0000
  N   N1        1.0  0.3497817392233883  0.0797022988732934  0.6551162538109239  1.0000
  N   N2        1.0  0.65021949235485  0.9202972306341907  0.3448813765717559  1.0000
  N   N3        1.0  0.15445866017850554  0.23985474151170655  0.7636616789458586  1.0000
  N   N4        1.0  0.8455426015163352  0.7601435029204568  0.2363364249413209  1.0000
  N   N5        1.0  0.20107378693856498  0.5427771464023792  0.7460765190713518  1.0000
  N   N6        1.0  0.7989272761154708  0.45722239773282786  0.2539251766316042  1.0000
  N   N7        1.0  0.39617897779983474  0.7702370438833768  0.6341110176708541  1.0000
  N   N8        1.0  0.6038252367079266  0.2297638066379051  0.36588660531600686  1.0000
  N   N9        1.0  0.805615725528348  0.9404330060316327  0.711945990947072  1.0000
  N   N10       1.0  0.19438240874165297  0.0595664948512322  0.2880532059870617  1.0000
  O   O1        1.0  0.9189900057046215  0.4858662753068117  0.6580790247120873  1.0000
  O   O2        1.0  0.08100919255140582  0.5141422591856468  0.34192268056025205  1.0000
  O   O3        1.0  0.9065197497768978  0.35078382254154417  0.9414362302311474  1.0000
  O   O4        1.0  0.0934857396941595  0.6492080888194991  0.05857561180730639  1.0000
  O   O5        1.0  0.7821743470659753  0.9265190283937842  0.5930522036638379  1.0000
  O   O6        1.0  0.2178269447454824  0.0734779309630653  0.40694637372784104  1.0000
  O   O7        1.0  0.8137026721907574  0.08604921125599671  0.7110152927725082  1.0000
  O   O8        1.0  0.18629706191549641  0.9139490170353924  0.28898308622535746  1.0000
  O   O9        1.0  0.8191055548065619  0.8037755160344987  0.8296352364679079  1.0000
  O   O10       1.0  0.1808879244500048  0.19622522515829394  0.1703653286238662  1.0000
