data_image0
_chemical_formula_structural       H28Pb2C48O16
_chemical_formula_sum              "H28 Pb2 C48 O16"
_cell_length_a       7.119200390527009
_cell_length_b       12.39518170674356
_cell_length_c       12.395212617308328
_cell_angle_alpha    92.23153452607264
_cell_angle_beta     106.92496780868245
_cell_angle_gamma    106.92478149774678

_space_group_name_H-M_alt    "P 1"
_space_group_IT_number       1

loop_
  _space_group_symop_operation_xyz
  'x, y, z'

loop_
  _atom_site_type_symbol
  _atom_site_label
  _atom_site_symmetry_multiplicity
  _atom_site_fract_x
  _atom_site_fract_y
  _atom_site_fract_z
  _atom_site_occupancy
  H   H1        1.0  0.6569631014989457  0.7652029459904104  0.38577672132395  1.0000
  H   H2        1.0  0.8430300268898209  0.6142212804636529  0.23479430709581114  1.0000
  H   H3        1.0  0.3430124787183574  0.2347929432646652  0.6142242493457604  1.0000
  H   H4        1.0  0.15696905699989835  0.3857799175922097  0.7652027684271805  1.0000
  H   H5        1.0  0.6401445009719853  0.9574413498208473  0.344146920480121  1.0000
  H   H6        1.0  0.8598313320973859  0.6558524795457077  0.04255416173133147  1.0000
  H   H7        1.0  0.35982375317427534  0.0425519369705896  0.6558543151468046  1.0000
  H   H8        1.0  0.140140770792236  0.34414773415458916  0.9574383818705672  1.0000
  H   H9        1.0  0.9749912645086811  0.80969425247298  0.7908111232466768  1.0000
  H   H10       1.0  0.5249998275443204  0.20918821393771483  0.1903020443915012  1.0000
  H   H11       1.0  0.02499858015549708  0.19030091928093637  0.2091873398365892  1.0000
  H   H12       1.0  0.4750021566512857  0.7908155346450275  0.8096964487904261  1.0000
  H   H13       1.0  0.07733975196123315  0.9620826808358347  0.9476061519571178  1.0000
  H   H14       1.0  0.422661404221408  0.05239278760350891  0.03791718430123578  1.0000
  H   H15       1.0  0.9226574549567205  0.0379125279591932  0.05239353602772212  1.0000
  H   H16       1.0  0.5773302644060084  0.9476108794095883  0.962082011575568  1.0000
  H   H17       1.0  0.022435487016473087  0.1493365244409475  0.9093157161991886  1.0000
  H   H18       1.0  0.47757144022892123  0.09068145237500862  0.8506655509440367  1.0000
  H   H19       1.0  0.9775719824611572  0.8506612719220711  0.09068661434616135  1.0000
  H   H20       1.0  0.5224148990646073  0.9093179447838297  0.1493325435950511  1.0000
  H   H21       1.0  0.8805258660636713  0.18303837552799251  0.711725030039091  1.0000
  H   H22       1.0  0.6194696999834904  0.2882731088584479  0.816961897261159  1.0000
  H   H23       1.0  0.11946340130558757  0.8169609770231149  0.2882783895748134  1.0000
  H   H24       1.0  0.3805230533994646  0.7117246431344313  0.18303556592394443  1.0000
  H   H25       1.0  0.6164811783798784  0.21699188433237282  0.3646734703919493  1.0000
  H   H26       1.0  0.8835206587263044  0.6353242708907558  0.7830136201768669  1.0000
  H   H27       1.0  0.38352270494874585  0.7830152385685312  0.6353279294487354  1.0000
  H   H28       1.0  0.1164827810942768  0.3646794256760302  0.21698995309954947  1.0000
  Pb  Pb1       1.0  0.7500047108949706  0.438233231355568  0.5617626069254984  1.0000
  Pb  Pb2       1.0  0.2500086957856098  0.5617620688339287  0.43823896999044387  1.0000
  C   C1        1.0  0.7885635101806798  0.6943009652184245  0.5812182949662701  1.0000
  C   C2        1.0  0.711451074164387  0.4187809949194872  0.30569766591314373  1.0000
  C   C3        1.0  0.21144986031715973  0.305696900393599  0.41878179209088284  1.0000
  C   C4        1.0  0.2885607848956654  0.5812194188028104  0.6943014921572658  1.0000
  C   C5        1.0  0.7894156057241803  0.8141851808557591  0.5659975521387894  1.0000
  C   C6        1.0  0.7105948034433569  0.4340072985346455  0.18581438484266502  1.0000
  C   C7        1.0  0.21058450430396652  0.18581258837017603  0.4340027476526204  1.0000
  C   C8        1.0  0.289415022696808  0.5659973480007991  0.8141846496638864  1.0000
  C   C9        1.0  0.7091679558407263  0.8345853431049123  0.45523214795824896  1.0000
  C   C10       1.0  0.7908260594713141  0.5447666058370828  0.16541685986400984  1.0000
  C   C11       1.0  0.2908208374463541  0.1654131683426598  0.5447703435278728  1.0000
  C   C12       1.0  0.20917054518618272  0.4552353887937813  0.8345830713832287  1.0000
  C   C13       1.0  0.6990622679171421  0.9427902844938173  0.43177738771989044  1.0000
  C   C14       1.0  0.8009316018879462  0.56822496818711  0.05720922043517624  1.0000
  C   C15       1.0  0.3009147819466236  0.057205602265455006  0.5682246337824994  1.0000
  C   C16       1.0  0.19906500557384993  0.4317770363477821  0.9427899049596891  1.0000
  C   C17       1.0  0.7626657415336309  0.0325074730340233  0.5186465904789446  1.0000
  C   C18       1.0  0.7373272723264467  0.4813529461505866  0.967492350478864  1.0000
  C   C19       1.0  0.2373211024162174  0.9674901799977677  0.48135553375144036  1.0000
  C   C20       1.0  0.26267475366049103  0.5186482568176914  0.032506020857120226  1.0000
  C   C21       1.0  0.8432449841495641  0.0153505083258949  0.6348359511639077  1.0000
  C   C22       1.0  0.656758968990886  0.3651651049968125  0.9846506594291359  1.0000
  C   C23       1.0  0.15675317373705153  0.9846463925802312  0.3651647872241243  1.0000
  C   C24       1.0  0.3432444848511764  0.6348386410901199  0.01534888458546391  1.0000
  C   C25       1.0  0.8636322358518316  0.9051861178577884  0.6581486099568254  1.0000
  C   C26       1.0  0.6363754912552438  0.3418518125078053  0.0948163128067351  1.0000
  C   C27       1.0  0.13637029759572533  0.09481335088746332  0.3418529852180968  1.0000
  C   C28       1.0  0.3636329014211982  0.6581502711009294  0.9051831607259334  1.0000
  C   C29       1.0  0.9509000288916669  0.8902367174045056  0.7728789000553465  1.0000
  C   C30       1.0  0.549097197309152  0.2271202919304686  0.10976293277330036  1.0000
  C   C31       1.0  0.0491000923536689  0.10976109143755511  0.22711817632660578  1.0000
  C   C32       1.0  0.4508969449418956  0.772882558699571  0.8902350190839885  1.0000
  C   C33       1.0  0.00874865259633856  0.9764008708732351  0.8609070933798721  1.0000
  C   C34       1.0  0.49125667578929477  0.13909033244239313  0.023604188579575698  1.0000
  C   C35       1.0  0.9912524084004631  0.023598590463798506  0.13909425681472956  1.0000
  C   C36       1.0  0.5087380269308924  0.8609082779662816  0.9763936418612648  1.0000
  C   C37       1.0  0.979455038703428  0.08198573872602571  0.8389342857778889  1.0000
  C   C38       1.0  0.5205507550604268  0.16106292656900933  0.918015292696403  1.0000
  C   C39       1.0  0.020548013421929842  0.9180120354123246  0.16106730982651382  1.0000
  C   C40       1.0  0.4794443911677959  0.8389391101737759  0.08198036430869855  1.0000
  C   C41       1.0  0.8995242053975475  0.10103280602144343  0.7286629652635315  1.0000
  C   C42       1.0  0.6004794656994221  0.2713339360712724  0.8989700676958424  1.0000
  C   C43       1.0  0.10047437356272586  0.8989674419865566  0.27134204650767674  1.0000
  C   C44       1.0  0.3995240745295945  0.7286647286907595  0.10102842677451923  1.0000
  C   C45       1.0  0.7449200654071859  0.1445472079873156  0.48641719945261763  1.0000
  C   C46       1.0  0.7551121745009652  0.5135913751854986  0.8554730670415724  1.0000
  C   C47       1.0  0.2550857532371823  0.8554607238092305  0.5135885969056135  1.0000
  C   C48       1.0  0.24491672366473694  0.486415814231009  0.14453733257865056  1.0000
  O   O1        1.0  0.6517027769415907  0.6151950896206985  0.5042166253712141  1.0000
  O   O2        1.0  0.8483146689478859  0.4957824034434424  0.3848032191626844  1.0000
  O   O3        1.0  0.3483130309971402  0.3848045250307949  0.49578072780764176  1.0000
  O   O4        1.0  0.15170157689029654  0.5042206177341058  0.6151935722851578  1.0000
  O   O5        1.0  0.9206194817315849  0.6718625302501239  0.6635920079465694  1.0000
  O   O6        1.0  0.5793963361853541  0.33640814193049107  0.3281402487636954  1.0000
  O   O7        1.0  0.07938647911255003  0.32813782412719666  0.3364085877596709  1.0000
  O   O8        1.0  0.42062288232418876  0.6635922989288903  0.6718609400606541  1.0000
  O   O9        1.0  0.8351562704776825  0.2362707419262691  0.5504221141748433  1.0000
  O   O10       1.0  0.6648859733699055  0.44955374481048693  0.7637241597563647  1.0000
  O   O11       1.0  0.16486206409319953  0.7637255503438213  0.4495706497291041  1.0000
  O   O12       1.0  0.335161450290734  0.5504341780609894  0.23627543349774544  1.0000
  O   O13       1.0  0.6221483617522594  0.13826802183444903  0.380518118889711  1.0000
  O   O14       1.0  0.8778281713003367  0.6194841031590316  0.8617322875415429  1.0000
  O   O15       1.0  0.3778354424962345  0.8617346679937087  0.6194869824813696  1.0000
  O   O16       1.0  0.12216244875428837  0.38052291345175615  0.1382701308857578  1.0000
