data_image0
_chemical_formula_structural       Li4H6C12N6O14
_chemical_formula_sum              "Li4 H6 C12 N6 O14"
_cell_length_a       4.719342210754873
_cell_length_b       6.022970135745055
_cell_length_c       15.918850215768492
_cell_angle_alpha    90.00174539111148
_cell_angle_beta     90.0030362330088
_cell_angle_gamma    96.65723311309225

_space_group_name_H-M_alt    "P 1"
_space_group_IT_number       1

loop_
  _space_group_symop_operation_xyz
  'x, y, z'

loop_
  _atom_site_type_symbol
  _atom_site_label
  _atom_site_symmetry_multiplicity
  _atom_site_fract_x
  _atom_site_fract_y
  _atom_site_fract_z
  _atom_site_occupancy
  Li  Li1       1.0  0.2871144622884146  0.6605416727068062  0.5527984085213262  1.0000
  Li  Li2       1.0  0.7128958488514955  0.33946573265560437  0.052807465275570585  1.0000
  Li  Li3       1.0  0.3905591244418503  0.21439140630435824  0.4853416478281929  1.0000
  Li  Li4       1.0  0.6094536150588683  0.7856044971382234  0.9853461771872246  1.0000
  H   H1        1.0  0.25549307054399156  0.03899820946689661  0.8521555023913334  1.0000
  H   H2        1.0  0.7445151688911482  0.9610013352045499  0.35215127469862745  1.0000
  H   H3        1.0  0.12440498786553182  0.9838001132626959  0.6974234139210862  1.0000
  H   H4        1.0  0.8755766943042644  0.0161944477614355  0.19742131412321834  1.0000
  H   H5        1.0  0.8538735912821949  0.2955861784727888  0.7513310854881396  1.0000
  H   H6        1.0  0.14610930502409764  0.7044079793259928  0.2513254491680286  1.0000
  C   C1        1.0  0.5147149630052681  0.5719343428100531  0.7233263603427886  1.0000
  C   C2        1.0  0.48527972057914326  0.4280741844472685  0.2233305270160528  1.0000
  C   C3        1.0  0.7630948971670292  0.45844388170820594  0.8637660814369497  1.0000
  C   C4        1.0  0.23689038167603374  0.5415431827618066  0.36376976000173755  1.0000
  C   C5        1.0  0.5881387810174131  0.6014151176633361  0.8090820644558717  1.0000
  C   C6        1.0  0.411855969710885  0.3985740042537671  0.3090815562596417  1.0000
  C   C7        1.0  0.33187796793702523  0.9061305678583482  0.8149348892912727  1.0000
  C   C8        1.0  0.6681176684449995  0.09387242141470152  0.3149324662501485  1.0000
  C   C9        1.0  0.5903707139977712  0.39170004463667146  0.662315071909731  1.0000
  C   C10       1.0  0.4096341070138437  0.6083083327540423  0.16231981176306928  1.0000
  C   C11       1.0  0.25847519306883987  0.8758781917643719  0.7302339046632724  1.0000
  C   C12       1.0  0.7415154087566407  0.12412255358604804  0.2302336534288756  1.0000
  N   N1        1.0  0.49269128060235096  0.7690971879001154  0.8531471682438365  1.0000
  N   N2        1.0  0.5073039586959638  0.23089903929392364  0.3531440485277386  1.0000
  N   N3        1.0  0.3485550404434933  0.7102622071681708  0.6861624908269233  1.0000
  N   N4        1.0  0.6514418932362176  0.28974983936952015  0.18616365129026488  1.0000
  N   N5        1.0  0.8182746654875789  0.9332662496486533  0.5232463097911619  1.0000
  N   N6        1.0  0.1817438476569961  0.0667319891087601  0.023245998160803093  1.0000
  O   O1        1.0  0.463139060652189  0.3773143221141738  0.5937638083099515  1.0000
  O   O2        1.0  0.5368751389984183  0.6227133036766405  0.0937751187895373  1.0000
  O   O3        1.0  0.5481612245194611  0.9260487212895188  0.514442013785519  1.0000
  O   O4        1.0  0.45185864888834  0.07395545390967583  0.014440354029801499  1.0000
  O   O5        1.0  0.77923955582164  0.26248395212520853  0.6835709944629258  1.0000
  O   O6        1.0  0.22073521334420582  0.7375093936858548  0.18357072769695287  1.0000
  O   O7        1.0  0.9168378590442644  0.7830603696562551  0.565381038643487  1.0000
  O   O8        1.0  0.08318382911716071  0.21695150398304722  0.0653774056374203  1.0000
  O   O9        1.0  0.9754905055625187  0.09086417659362671  0.4894235746178808  1.0000
  O   O10       1.0  0.024526088407384343  0.9091237410418531  0.9894218747197739  1.0000
  O   O11       1.0  0.7479544256486433  0.48731457663085115  0.9411555373744419  1.0000
  O   O12       1.0  0.2520113952326852  0.5126606279887939  0.4411458784711968  1.0000
  O   O13       1.0  0.9155801714129765  0.32153012230631367  0.8283756186525224  1.0000
  O   O14       1.0  0.08441052375205521  0.6784656390351317  0.3283743316137374  1.0000
