data_image0
_chemical_formula_structural       Zn2H54C50N6O14
_chemical_formula_sum              "Zn2 H54 C50 N6 O14"
_cell_length_a       9.852412003519174
_cell_length_b       13.341086612926139
_cell_length_c       14.722189333949064
_cell_angle_alpha    89.90002631552395
_cell_angle_beta     71.34823685964136
_cell_angle_gamma    80.72415160851092

_space_group_name_H-M_alt    "P 1"
_space_group_IT_number       1

loop_
  _space_group_symop_operation_xyz
  'x, y, z'

loop_
  _atom_site_type_symbol
  _atom_site_label
  _atom_site_symmetry_multiplicity
  _atom_site_fract_x
  _atom_site_fract_y
  _atom_site_fract_z
  _atom_site_occupancy
  Zn  Zn1       1.0  0.8577110039866652  0.0418092465735356  0.00214479181020986  1.0000
  Zn  Zn2       1.0  0.14229333977333164  0.9581914140315037  0.9978527178321599  1.0000
  H   H1        1.0  0.3260609066365772  0.6128673723478713  0.4674505598463484  1.0000
  H   H2        1.0  0.6739329020941794  0.38713256095427784  0.5325573597328558  1.0000
  H   H3        1.0  0.1959368818587706  0.3673682402609799  0.49961184245272966  1.0000
  H   H4        1.0  0.8040751092472858  0.6326407684761577  0.5003833244053838  1.0000
  H   H5        1.0  0.29208497732108896  0.6285146766791597  0.6143154537382358  1.0000
  H   H6        1.0  0.7079257967538837  0.3714859798370966  0.38568475393663704  1.0000
  H   H7        1.0  0.49187244474178016  0.2500786378075616  0.6625079608827704  1.0000
  H   H8        1.0  0.5081329887966675  0.7499174605690584  0.3374900084229608  1.0000
  H   H9        1.0  0.4661261284884971  0.44782832406227874  0.3994523466698254  1.0000
  H   H10       1.0  0.5338868068401368  0.5521677575194204  0.6005419779524958  1.0000
  H   H11       1.0  0.0693728074009599  0.364660158756628  0.6402185809693677  1.0000
  H   H12       1.0  0.9306359868264661  0.6353443013001582  0.3597813600129599  1.0000
  H   H13       1.0  0.16006609230112898  0.4948774862833575  0.3835108895303776  1.0000
  H   H14       1.0  0.8399387965310651  0.5051209022259825  0.6164919442346602  1.0000
  H   H15       1.0  0.6942420772549055  0.22621724187068537  0.9498028384740422  1.0000
  H   H16       1.0  0.30574762624926427  0.7737819347879692  0.0502039250597193  1.0000
  H   H17       1.0  0.2926069543529906  0.1579014655112445  0.9948188147309125  1.0000
  H   H18       1.0  0.7073823677429444  0.8421037890281154  0.0051852950481930315  1.0000
  H   H19       1.0  0.28003747598896206  0.213593614854183  0.10830000785460923  1.0000
  H   H20       1.0  0.7199488306588505  0.7864063208132777  0.8917034055424153  1.0000
  H   H21       1.0  0.3959521140008562  0.09398957218360947  0.06388943908679322  1.0000
  H   H22       1.0  0.6040315224396835  0.9060080874201972  0.9361145532226518  1.0000
  H   H23       1.0  0.8843191607793485  0.7853608197436656  0.5962002309299452  1.0000
  H   H24       1.0  0.11569339311665061  0.21464133851627307  0.4037907606989251  1.0000
  H   H25       1.0  0.37429099265006016  0.1519993190666966  0.8040498629522618  1.0000
  H   H26       1.0  0.6257117706567213  0.8479945020438109  0.19594800602708765  1.0000
  H   H27       1.0  0.25673535699758077  0.7359632304548285  0.7611175690566299  1.0000
  H   H28       1.0  0.7432625566425982  0.264037443858733  0.238882676463632  1.0000
  H   H29       1.0  0.9555058316631673  0.27085847006327407  0.7825011073774278  1.0000
  H   H30       1.0  0.044500292088628116  0.7291437007027214  0.21749194089053256  1.0000
  H   H31       1.0  0.540105242974853  0.35290758799075667  0.9335011889576991  1.0000
  H   H32       1.0  0.4598944688384066  0.647090040949152  0.06649800137341799  1.0000
  H   H33       1.0  0.3646898437387519  0.37191604588274163  0.02334987650907292  1.0000
  H   H34       1.0  0.6353055812222548  0.6280815869854877  0.9766481943725085  1.0000
  H   H35       1.0  0.38849478762208617  0.31670316239567586  0.9076248067422342  1.0000
  H   H36       1.0  0.6115076124821359  0.6832921822633935  0.09237449390652588  1.0000
  H   H37       1.0  0.4311191742789759  0.5864159748995021  0.27841055723138913  1.0000
  H   H38       1.0  0.5688871492553744  0.41358087855760317  0.7215851813871268  1.0000
  H   H39       1.0  0.2550294099822565  0.6228396692849358  0.2691391736691386  1.0000
  H   H40       1.0  0.7449715372385339  0.37716176596098455  0.7308638159408858  1.0000
  H   H41       1.0  0.8520142753356481  0.8938424315499843  0.7435818536578651  1.0000
  H   H42       1.0  0.14798614492102757  0.10615671664962181  0.2564171802983495  1.0000
  H   H43       1.0  0.5764400679888907  0.40743455352758656  0.21191340352934424  1.0000
  H   H44       1.0  0.4235551571163683  0.5925683930421357  0.7880799392852822  1.0000
  H   H45       1.0  0.4990697313282482  0.3232234842323649  0.15868822171339764  1.0000
  H   H46       1.0  0.5009126336593681  0.6767794957667377  0.8413139890509952  1.0000
  H   H47       1.0  0.2679029645640725  0.4499078232448356  0.197959874570607  1.0000
  H   H48       1.0  0.732083851012959  0.5500989622183498  0.8020481637277399  1.0000
  H   H49       1.0  0.41699104877029197  0.5052392993857637  0.12897518954883944  1.0000
  H   H50       1.0  0.582990789326402  0.49476139717442186  0.8710251032781572  1.0000
  H   H51       1.0  0.48168445798436466  0.27696278162478183  0.3273160279187763  1.0000
  H   H52       1.0  0.518322919112272  0.7230386278879379  0.6726774334253562  1.0000
  H   H53       1.0  0.3073743700038918  0.3120615056511226  0.31522486322739246  1.0000
  H   H54       1.0  0.6926187121509599  0.6879414663308765  0.6847811650190465  1.0000
  C   C1        1.0  0.10169963454421796  0.6360294359295153  0.5096421801437216  1.0000
  C   C2        1.0  0.8983027476226864  0.36397047628884155  0.4903605067077736  1.0000
  C   C3        1.0  0.0891017564647925  0.1414450276423764  0.8814734755958115  1.0000
  C   C4        1.0  0.9108897268360108  0.8585556495574947  0.11852339265314535  1.0000
  C   C5        1.0  0.36863723967482526  0.36064711685596507  0.5522525463985702  1.0000
  C   C6        1.0  0.631380164180534  0.6393482026305434  0.447744219554977  1.0000
  C   C7        1.0  0.19518731780011933  0.6863802978538728  0.6420387967223038  1.0000
  C   C8        1.0  0.8048143557769973  0.31361808788998496  0.3579599710712956  1.0000
  C   C9        1.0  0.15779600036775318  0.20616649656969344  0.8018794905716576  1.0000
  C   C10       1.0  0.8422051282103523  0.7938341648772679  0.19811599081566572  1.0000
  C   C11       1.0  0.37424556524733527  0.25454594240567024  0.6898802934956407  1.0000
  C   C12       1.0  0.6257655901382858  0.7454486314200112  0.310119850978694  1.0000
  C   C13       1.0  0.2895690401899599  0.312479700663296  0.6415017557191973  1.0000
  C   C14       1.0  0.7104395725581654  0.6875255271801066  0.35850229729183525  1.0000
  C   C15       1.0  0.3669648973434363  0.42300060436082987  0.39522371991572675  1.0000
  C   C16       1.0  0.6330414083267897  0.5770008202629597  0.6047774426219165  1.0000
  C   C17       1.0  0.1377377611818957  0.3198071684750872  0.6762067367263145  1.0000
  C   C18       1.0  0.8622683626674852  0.6801950071007781  0.3237890284968402  1.0000
  C   C19       1.0  0.2652795902445674  0.516752586861692  0.37840427840961155  1.0000
  C   C20       1.0  0.7347224467302809  0.4832442849533435  0.6215984916249653  1.0000
  C   C21       1.0  0.6119012826220993  0.1791786051516198  0.9852868969380709  1.0000
  C   C22       1.0  0.38808825734008673  0.8208167717343642  0.014720592421667785  1.0000
  C   C23       1.0  0.35354288531613776  0.16849333222479856  0.04382061251014592  1.0000
  C   C24       1.0  0.6464462732134207  0.8315081213394252  0.9561835438561417  1.0000
  C   C25       1.0  0.9653330158853847  0.775071180476651  0.6329099559445056  1.0000
  C   C26       1.0  0.0346700926622532  0.2249256834421161  0.3670891883293593  1.0000
  C   C27       1.0  0.3091628316118146  0.2011231737779795  0.7687192923356605  1.0000
  C   C28       1.0  0.6908409853060462  0.7988752057930808  0.23127765784690982  1.0000
  C   C29       1.0  0.0897031041774099  0.7006559054585182  0.5956880941743279  1.0000
  C   C30       1.0  0.9102946641508538  0.2993364159526948  0.4043176418347727  1.0000
  C   C31       1.0  0.17634545045300604  0.7460574419132158  0.7240112309720956  1.0000
  C   C32       1.0  0.8236512099399177  0.253943998463491  0.27599131842718805  1.0000
  C   C33       1.0  0.07295894027021178  0.267365676968673  0.7560202967566596  1.0000
  C   C34       1.0  0.9270462935100737  0.732635739919317  0.24397566143730393  1.0000
  C   C35       1.0  0.4399961085856319  0.3211372899915899  0.9633667173457213  1.0000
  C   C36       1.0  0.5599996616162244  0.6788633856848988  0.03663262883037525  1.0000
  C   C37       1.0  0.3318826678772666  0.5576021566319938  0.27923524123416144  1.0000
  C   C38       1.0  0.6681104142775921  0.44240081534999826  0.7207707870122775  1.0000
  C   C39       1.0  0.9471305483095164  0.8348921261797528  0.7145853614309133  1.0000
  C   C40       1.0  0.052874358484387984  0.16510169597276564  0.28541476537020577  1.0000
  C   C41       1.0  0.4728266111134117  0.3833340245841014  0.21560062453821163  1.0000
  C   C42       1.0  0.5271612939981194  0.6166681866260008  0.7844010810354974  1.0000
  C   C43       1.0  0.3689745022453792  0.4746579197650576  0.19933830587104504  1.0000
  C   C44       1.0  0.6310128581110985  0.5253465791728189  0.8006669056843877  1.0000
  C   C45       1.0  0.40679344278310464  0.3411321432377079  0.31360021240571717  1.0000
  C   C46       1.0  0.5932075043644928  0.6588692884008011  0.6864007394879011  1.0000
  C   C47       1.0  0.033296980379759644  0.8852302986701727  0.8489592891731734  1.0000
  C   C48       1.0  0.966710923534613  0.11477339067405273  0.15103405239197087  1.0000
  C   C49       1.0  0.05253633500701934  0.8206875134417047  0.7608555641840767  1.0000
  C   C50       1.0  0.9474667735162182  0.17930934927459666  0.23914290085098608  1.0000
  N   N1        1.0  0.4745738396287535  0.22090092737919054  0.9969796929623557  1.0000
  N   N2        1.0  0.5254156821765505  0.779099006243875  0.0030250694509205965  1.0000
  N   N3        1.0  0.2364863638547448  0.5937242409882443  0.454882956837956  1.0000
  N   N4        1.0  0.7635131847580751  0.40626960501354153  0.5451264686623247  1.0000
  N   N5        1.0  0.299505488198477  0.3819951757898465  0.4872808698667015  1.0000
  N   N6        1.0  0.7005036693778876  0.618007767933179  0.5127217148790066  1.0000
  O   O1        1.0  0.6479265027711206  0.09235041352734191  0.012304756219712866  1.0000
  O   O2        1.0  0.35206786879837176  0.9076426717025469  0.987700346607845  1.0000
  O   O3        1.0  0.9511830376929281  0.15009552339450488  0.910551165244698  1.0000
  O   O4        1.0  0.048811133606086736  0.849902855094932  0.08943766245631221  1.0000
  O   O5        1.0  0.9900786715652002  0.6219470809307451  0.49154215394906225  1.0000
  O   O6        1.0  0.009925109404846885  0.37806043015148566  0.5084595309225577  1.0000
  O   O7        1.0  0.49516341673273695  0.3767005723729541  0.5390619778568466  1.0000
  O   O8        1.0  0.5048532787767924  0.6232932326637268  0.4609376614267973  1.0000
  O   O9        1.0  0.9137590684609123  0.9468601711722185  0.8821201109531175  1.0000
  O   O10       1.0  0.08624013466709358  0.05313061999662949  0.11788124686466261  1.0000
  O   O11       1.0  0.1760671658455024  0.08054660188340529  0.912498196938138  1.0000
  O   O12       1.0  0.8239217929015011  0.9194601689897082  0.08750326907759393  1.0000
  O   O13       1.0  0.13763815527241965  0.8734168165155723  0.8834886820850585  1.0000
  O   O14       1.0  0.8623718557909186  0.12659598614234818  0.11650078417012112  1.0000
