data_image0
_chemical_formula_structural       Na4Cu4H28C28S4O32
_chemical_formula_sum              "Na4 Cu4 H28 C28 S4 O32"
_cell_length_a       11.071714688591996
_cell_length_b       11.582836842824097
_cell_length_c       11.582484722882848
_cell_angle_alpha    108.12414082314665
_cell_angle_beta     100.11943413235024
_cell_angle_gamma    100.11957035558214

_space_group_name_H-M_alt    "P 1"
_space_group_IT_number       1

loop_
  _space_group_symop_operation_xyz
  'x, y, z'

loop_
  _atom_site_type_symbol
  _atom_site_label
  _atom_site_symmetry_multiplicity
  _atom_site_fract_x
  _atom_site_fract_y
  _atom_site_fract_z
  _atom_site_occupancy
  Na  Na1       1.0  0.7499985538842964  0.8618594023626829  0.1381405530613335  1.0000
  Na  Na2       1.0  0.2500024768880991  0.13813927088819614  0.8618584445897352  1.0000
  Na  Na3       1.0  0.7499994681148792  0.04765970909203792  0.9523411899365113  1.0000
  Na  Na4       1.0  0.2500001764981974  0.9523407950031316  0.04766247476624127  1.0000
  Cu  Cu1       1.0  0.0246114083279138  0.7954532452963432  0.16768955620384646  1.0000
  Cu  Cu2       1.0  0.4753884231813287  0.8323117208904379  0.20454979352619765  1.0000
  Cu  Cu3       1.0  0.9753889309586653  0.204546347626632  0.8323113448945988  1.0000
  Cu  Cu4       1.0  0.5246123750877699  0.16768601512757902  0.7954488656858983  1.0000
  H   H1        1.0  0.8360880622009644  0.6462224600215053  0.9818325715396056  1.0000
  H   H2        1.0  0.6639085701676278  0.018163724674011002  0.35377540916502426  1.0000
  H   H3        1.0  0.1639129809708564  0.35377996159984093  0.01816762456191158  1.0000
  H   H4        1.0  0.336089032567493  0.9818321946947179  0.6462160861542897  1.0000
  H   H5        1.0  0.8992479745402874  0.7662172888419576  0.9501478417053233  1.0000
  H   H6        1.0  0.6007527927202077  0.049850664069865006  0.23378365401013917  1.0000
  H   H7        1.0  0.10075306225616738  0.23378511577958255  0.04985407471004779  1.0000
  H   H8        1.0  0.3992491524782266  0.9501480012420773  0.7662163591033034  1.0000
  H   H9        1.0  0.0886652359774089  0.6850244008176816  0.9691268103962114  1.0000
  H   H10       1.0  0.4113314789642927  0.030870551439846808  0.3149755202483178  1.0000
  H   H11       1.0  0.9113342044702433  0.31497895691459377  0.030873413533377865  1.0000
  H   H12       1.0  0.588664486333414  0.9691224961700372  0.6850208255471129  1.0000
  H   H13       1.0  0.20807073538197327  0.7142368364233748  0.0875079996090804  1.0000
  H   H14       1.0  0.2919275631913364  0.9124895588055679  0.285760346030301  1.0000
  H   H15       1.0  0.7919277938273197  0.2857665377477404  0.9124903487012118  1.0000
  H   H16       1.0  0.7080748441773037  0.08750725810132562  0.7142365650398687  1.0000
  H   H17       1.0  0.8360845191881481  0.111720727800602  0.34358196496553006  1.0000
  H   H18       1.0  0.6639163187784263  0.6564205805526554  0.8882803826314427  1.0000
  H   H19       1.0  0.16391926726181796  0.8882816700039273  0.6564212775231154  1.0000
  H   H20       1.0  0.3360851929389809  0.34358000966344093  0.11171499111294736  1.0000
  H   H21       1.0  0.26416878416133466  0.19849611758812097  0.615737036143578  1.0000
  H   H22       1.0  0.2358296725339883  0.38426480434792154  0.8015039478064736  1.0000
  H   H23       1.0  0.7358281200099839  0.8015081331946236  0.384267361093272  1.0000
  H   H24       1.0  0.7641718140332328  0.6157320034981097  0.19849366811516936  1.0000
  H   H25       1.0  0.23787787445088776  0.16601469057771112  0.38887660552281017  1.0000
  H   H26       1.0  0.2621212989935557  0.6111242341888925  0.8339935102391677  1.0000
  H   H27       1.0  0.7621236394002792  0.8339970512508759  0.611131825299104  1.0000
  H   H28       1.0  0.7378778905273078  0.38887070656939227  0.16600225803670546  1.0000
  C   C1        1.0  0.033715150117885194  0.13546091746855643  0.3522972367393676  1.0000
  C   C2        1.0  0.4662858560249885  0.6477143568437072  0.8645417513885574  1.0000
  C   C3        1.0  0.966285678622846  0.8645517610319192  0.6477113772160691  1.0000
  C   C4        1.0  0.5337140501318629  0.3522834466125603  0.13544987126267927  1.0000
  C   C5        1.0  0.9298264911986107  0.13050031497581221  0.4034926658197192  1.0000
  C   C6        1.0  0.5701750652544035  0.5965027396131646  0.8695068145782939  1.0000
  C   C7        1.0  0.07017570173893262  0.8695067588102107  0.5965126631043772  1.0000
  C   C8        1.0  0.4298250291294394  0.40349216770648866  0.13049254963073045  1.0000
  C   C9        1.0  0.9418782867616853  0.14656721535214962  0.5306563562852274  1.0000
  C   C10       1.0  0.5581178691982059  0.46934267862702234  0.8534253112094844  1.0000
  C   C11       1.0  0.05812043988635196  0.8534370025529155  0.46935179219022394  1.0000
  C   C12       1.0  0.44188064796296084  0.5306532328027631  0.14656719957221037  1.0000
  C   C13       1.0  0.06528453070209389  0.1711561827631627  0.6087678715439537  1.0000
  C   C14       1.0  0.43471884048317827  0.39122650270002896  0.8288460789202715  1.0000
  C   C15       1.0  0.9347153620013979  0.8288490154352316  0.3912364698912895  1.0000
  C   C16       1.0  0.5652832936448745  0.6087618377335744  0.17115239759465334  1.0000
  C   C17       1.0  0.17081218565275688  0.1799502646201603  0.5546165766072164  1.0000
  C   C18       1.0  0.3291871519744518  0.445388186097077  0.8200525946051511  1.0000
  C   C19       1.0  0.8291877258255481  0.8200586989484934  0.44538724296462096  1.0000
  C   C20       1.0  0.6708125085770573  0.5546123604975862  0.17994676931296985  1.0000
  C   C21       1.0  0.1558357423286267  0.16150938249282382  0.4290042549151705  1.0000
  C   C22       1.0  0.34416261666732584  0.5710059249548749  0.8384931550081517  1.0000
  C   C23       1.0  0.844162327546833  0.8384995629541053  0.5710009743596202  1.0000
  C   C24       1.0  0.6558372894895256  0.42899187850139253  0.1614984676430851  1.0000
  C   C25       1.0  0.8240598502197328  0.1265160605625439  0.5729264642715036  1.0000
  C   C26       1.0  0.6759401998398927  0.4270768626723722  0.8734775585780524  1.0000
  C   C27       1.0  0.17593727121906258  0.8734816562118296  0.4270732940326452  1.0000
  C   C28       1.0  0.3240656582311273  0.5729190532451157  0.12651619464723743  1.0000
  S   S1        1.0  0.012345495927441193  0.09945214186666358  0.18925363957896477  1.0000
  S   S2        1.0  0.4876495238642208  0.8107486835713333  0.900546778499212  1.0000
  S   S3        1.0  0.9876546136922215  0.9005502366942155  0.8107507020017407  1.0000
  S   S4        1.0  0.512346928051258  0.18925372674529237  0.0994535012319844  1.0000
  O   O1        1.0  0.8752195446861037  0.0476851460055059  0.13476767001690604  1.0000
  O   O2        1.0  0.6247788513279672  0.8652375827719256  0.9523150486252588  1.0000
  O   O3        1.0  0.12478077547435622  0.9523143959180659  0.8652383920231015  1.0000
  O   O4        1.0  0.37522012446441266  0.1347601861237706  0.04767985934822859  1.0000
  O   O5        1.0  0.08613683849942078  0.0062683003589683  0.14881763946601717  1.0000
  O   O6        1.0  0.41386240653051937  0.8511875772325298  0.9937337701192346  1.0000
  O   O7        1.0  0.9138623503188298  0.9937340691410483  0.8511874069661614  1.0000
  O   O8        1.0  0.5861363395949368  0.14881297730106982  0.006264578336505622  1.0000
  O   O9        1.0  0.06050576895059829  0.2173655887734327  0.16982386685425865  1.0000
  O   O10       1.0  0.43949212283948197  0.8301760926373803  0.7826365450201678  1.0000
  O   O11       1.0  0.9394973231771784  0.7826340058324278  0.8301775001605376  1.0000
  O   O12       1.0  0.560505010998746  0.16982537250745372  0.2173644117344296  1.0000
  O   O13       1.0  0.7161549652066554  0.0827436610175525  0.49830337688116794  1.0000
  O   O14       1.0  0.783845768256164  0.5016986683959176  0.9172535429112683  1.0000
  O   O15       1.0  0.28384352610171254  0.9172558967838925  0.501700654234085  1.0000
  O   O16       1.0  0.2161607745739929  0.4983000252205372  0.08274466625864814  1.0000
  O   O17       1.0  0.830220448577961  0.1529492542365531  0.6928768087232127  1.0000
  O   O18       1.0  0.6697760350733049  0.3071194498285621  0.8470441026479775  1.0000
  O   O19       1.0  0.16977689934006424  0.8470456684000142  0.30712036925561387  1.0000
  O   O20       1.0  0.33022319837254327  0.6928830386700611  0.15294890158723  1.0000
  O   O21       1.0  0.090761997700028  0.1838675151634277  0.728617896213663  1.0000
  O   O22       1.0  0.40923467322858187  0.2713773244511586  0.8161185297491683  1.0000
  O   O23       1.0  0.9092399474984131  0.8161311501485146  0.2713821168997794  1.0000
  O   O24       1.0  0.5907580866207809  0.728617595380591  0.18387787170240688  1.0000
  O   O25       1.0  0.8753309912091679  0.7406331814616538  0.02078136686487398  1.0000
  O   O26       1.0  0.6246651496907987  0.9792167380939036  0.2593692295188885  1.0000
  O   O27       1.0  0.12467073388540938  0.259368294987901  0.979219506260051  1.0000
  O   O28       1.0  0.3753308152556014  0.02078002388685011  0.7406317553546911  1.0000
  O   O29       1.0  0.13658288522493933  0.7479737825773257  0.04958876316787546  1.0000
  O   O30       1.0  0.3634165802915205  0.9504070630205915  0.252025221882512  1.0000
  O   O31       1.0  0.8634140065469394  0.2520267198349586  0.9504144356185263  1.0000
  O   O32       1.0  0.6365871721478269  0.049584098172445606  0.7479735650978654  1.0000
