data_image0
_chemical_formula_structural       Zn2H18C35SN2O11
_chemical_formula_sum              "Zn2 H18 C35 S1 N2 O11"
_cell_length_a       11.812907991428716
_cell_length_b       12.975944540069598
_cell_length_c       13.623149544555794
_cell_angle_alpha    72.65465205627194
_cell_angle_beta     83.80489573708734
_cell_angle_gamma    73.2657580720237

_space_group_name_H-M_alt    "P 1"
_space_group_IT_number       1

loop_
  _space_group_symop_operation_xyz
  'x, y, z'

loop_
  _atom_site_type_symbol
  _atom_site_label
  _atom_site_symmetry_multiplicity
  _atom_site_fract_x
  _atom_site_fract_y
  _atom_site_fract_z
  _atom_site_occupancy
  Zn  Zn1       1.0  0.462046255929238  0.6268089930753502  0.49705719890634736  1.0000
  Zn  Zn2       1.0  0.525993210507025  0.38160734506196536  0.5147345998686461  1.0000
  H   H1        1.0  0.6856551527168123  0.2588360336154665  0.803131022626502  1.0000
  H   H2        1.0  0.270554990698571  0.09660467087256558  0.6628283342855852  1.0000
  H   H3        1.0  0.2469763571594755  0.913485961224438  0.6699143493156542  1.0000
  H   H4        1.0  0.7316711922834288  0.26632647192484166  0.433956301808685  1.0000
  H   H5        1.0  0.7334938755090054  0.9279309143658168  0.46373932059478307  1.0000
  H   H6        1.0  0.3772365600201015  0.243793835982835  0.5987170137229612  1.0000
  H   H7        1.0  0.7219915225931576  0.25453135451722625  0.14987095536818634  1.0000
  H   H8        1.0  0.742281431160329  0.20924742863714837  0.9866880828982971  1.0000
  H   H9        1.0  0.4787454676312211  0.583517866298109  0.8194428552618549  1.0000
  H   H10       1.0  0.35341028846015377  0.744869474727551  0.2005669202219309  1.0000
  H   H11       1.0  0.4209652968459425  0.688959750448077  0.901952935411451  1.0000
  H   H12       1.0  0.32641595362643744  0.813260016391332  0.010411185915444385  1.0000
  H   H13       1.0  0.6267811873035498  0.377987697898213  0.2582530892754847  1.0000
  H   H14       1.0  0.3102323451343026  0.7416133980879849  0.6093689875976837  1.0000
  H   H15       1.0  0.6232955221887482  0.6879212794503  0.36883844593107556  1.0000
  H   H16       1.0  0.8910272239399293  0.14728688013723704  0.3487950708753687  1.0000
  H   H17       1.0  0.9366819887884221  0.03817924073548799  0.4626665352425547  1.0000
  H   H18       1.0  0.8901269082731319  0.007521675586673394  0.3575555354114641  1.0000
  C   C1        1.0  0.47243750094929743  0.5533524371539114  0.3132551361493014  1.0000
  C   C2        1.0  0.5780669362265629  0.42465822487987015  0.802836053867793  1.0000
  C   C3        1.0  0.3966941081683616  0.6915081325880618  0.1515694687540262  1.0000
  C   C4        1.0  0.381408794214174  0.7290669174355741  0.04514513641825609  1.0000
  C   C5        1.0  0.43489601834183145  0.6588915490614509  0.9845614954780261  1.0000
  C   C6        1.0  0.5073136230095516  0.5498628395747857  0.02755517470543377  1.0000
  C   C7        1.0  0.5273666168336107  0.512332432943232  0.13613653499601244  1.0000
  C   C8        1.0  0.5597252369011233  0.4747103340270299  0.9640462844530974  1.0000
  C   C9        1.0  0.6360202933987439  0.36675090142590955  0.009807107989587428  1.0000
  C   C10       1.0  0.6611243194064116  0.33627522718767694  0.11631454923588798  1.0000
  C   C11       1.0  0.6085896994179267  0.4046929330894428  0.17687423835903365  1.0000
  C   C12       1.0  0.7267444664477269  0.4921062095502576  0.4788408027602529  1.0000
  C   C13       1.0  0.5351193699902412  0.5020098929488623  0.8589081481247832  1.0000
  C   C14       1.0  0.6528899047843029  0.3177844663976187  0.8489292240336043  1.0000
  C   C15       1.0  0.4672441462052676  0.5847917285579098  0.19812384310996833  1.0000
  C   C16       1.0  0.32499318783892067  0.8998311619379603  0.6198267099428137  1.0000
  C   C17       1.0  0.6892492620326538  0.19810670218726756  0.45601844006549896  1.0000
  C   C18       1.0  0.7483377060800084  0.09292732133467743  0.44213067375869036  1.0000
  C   C19       1.0  0.6873800798101543  0.011424842483464185  0.4696976315018944  1.0000
  C   C20       1.0  0.5691591272930269  0.03478141991036668  0.5059685767975424  1.0000
  C   C21       1.0  0.521509922182972  0.14004506804470646  0.5282131987025951  1.0000
  C   C22       1.0  0.49566042241927744  0.9571866836179479  0.5263826608319206  1.0000
  C   C23       1.0  0.5430502525819068  0.4529625356325225  0.6941238600012272  1.0000
  C   C24       1.0  0.39108641439639086  0.97929031197048  0.5889555299020374  1.0000
  C   C25       1.0  0.3519871540584064  0.0821310442730265  0.6168230233619383  1.0000
  C   C26       1.0  0.41138523958706946  0.1624680535960507  0.5832792447146602  1.0000
  C   C27       1.0  0.5135074791403158  0.8636534551070479  0.485671354036299  1.0000
  C   C28       1.0  0.35802696619790475  0.8057765942288807  0.5855753706051274  1.0000
  C   C29       1.0  0.26930313495768843  0.5214806969820174  0.532336897385342  1.0000
  C   C30       1.0  0.8420589970651665  0.5053348626820551  0.4851952016909635  1.0000
  C   C31       1.0  0.9388836927931624  0.5147870574077585  0.4987892398440581  1.0000
  C   C32       1.0  0.04680312532557454  0.5224831451286746  0.5135951738125186  1.0000
  C   C33       1.0  0.14630490079345299  0.5263934938395564  0.5264653247961492  1.0000
  C   C34       1.0  0.6831915736188281  0.29086557096354676  0.9501337133772054  1.0000
  C   C35       1.0  0.8730096070391513  0.07034175256556807  0.4001293924178029  1.0000
  S   S1        1.0  0.6207430567587197  0.8480519922613037  0.37920082508137654  1.0000
  N   N1        1.0  0.44825730768034333  0.7900426869939351  0.5155715534373186  1.0000
  N   N2        1.0  0.5822248053480765  0.21992246971937124  0.5009847564174024  1.0000
  O   O1        1.0  0.4234306058085054  0.6310313610803107  0.3562626068685332  1.0000
  O   O2        1.0  0.5231307511127669  0.45262449478730804  0.36226975010514917  1.0000
  O   O3        1.0  0.6431656120208304  0.5814075654747981  0.44258912324686867  1.0000
  O   O4        1.0  0.7120026732415005  0.39526616924152325  0.5112440170796051  1.0000
  O   O5        1.0  0.5229695892872998  0.5556037725742227  0.6410867381424553  1.0000
  O   O6        1.0  0.5362528463919675  0.37185925773782447  0.6624065719235618  1.0000
  O   O7        1.0  0.29366918652864654  0.6062227848157276  0.5445811653462372  1.0000
  O   O8        1.0  0.34143856287716556  0.4308257027145287  0.5224230898048035  1.0000
  O   O9        1.0  0.6011757836862376  0.9577706955157265  0.3074395404994733  1.0000
  O   O10       1.0  0.7352904428117388  0.7898033618997856  0.4244595180816333  1.0000
  O   O11       1.0  0.5817761302514204  0.7719916469929156  0.3290840842032098  1.0000
