data_image0
_chemical_formula_structural       Co4H40C40N16O16
_chemical_formula_sum              "Co4 H40 C40 N16 O16"
_cell_length_a       7.375985815
_cell_length_b       12.47747900285127
_cell_length_c       13.4196
_cell_angle_alpha    90.0
_cell_angle_beta     90.0
_cell_angle_gamma    100.03677827555597

_space_group_name_H-M_alt    "P 1"
_space_group_IT_number       1

loop_
  _space_group_symop_operation_xyz
  'x, y, z'

loop_
  _atom_site_type_symbol
  _atom_site_label
  _atom_site_symmetry_multiplicity
  _atom_site_fract_x
  _atom_site_fract_y
  _atom_site_fract_z
  _atom_site_occupancy
  Co  Co1       1.0  0.21837272341017672  0.1532361706943135  0.0729134996572185  1.0000
  Co  Co2       1.0  0.2816268304279746  0.8467642586378334  0.5729142448359141  1.0000
  Co  Co3       1.0  0.7816291477453349  0.8467642586378334  0.9270865003427816  1.0000
  Co  Co4       1.0  0.7183720892726839  0.15323535679451794  0.4270865003427815  1.0000
  H   H1        1.0  0.6586381853232908  0.5580878363470703  0.1210289427404661  1.0000
  H   H2        1.0  0.8413619358966431  0.4419125929850765  0.6210296879191617  1.0000
  H   H3        1.0  0.3413623300812461  0.4419125929850765  0.8789718024382225  1.0000
  H   H4        1.0  0.15863857950788685  0.5580878363470703  0.3789718024382225  1.0000
  H   H5        1.0  0.871967099528064  0.5264775959664192  0.0786267847029691  1.0000
  H   H6        1.0  0.6280330216918771  0.47352283336572043  0.5786275298816648  1.0000
  H   H7        1.0  0.12803501158035152  0.4735236472655231  0.9213739604757194  1.0000
  H   H8        1.0  0.37196749371265986  0.5264775959664192  0.4213732152970309  1.0000
  H   H9        1.0  0.8178188553376415  0.5184085933624304  0.20831768458076286  1.0000
  H   H10       1.0  0.6821812658822992  0.4815918359697093  0.7083191749381471  1.0000
  H   H11       1.0  0.18218277586498038  0.4815910220699139  0.7916823154192373  1.0000
  H   H12       1.0  0.31781924952223767  0.5184085933624304  0.2916815702405415  1.0000
  H   H13       1.0  0.38509116494668666  0.4100044652781207  0.11562565203135482  1.0000
  H   H14       1.0  0.11490838889145755  0.5899959640540261  0.6156263972100504  1.0000
  H   H15       1.0  0.6149109461617215  0.5899967779538215  0.884372857611254  1.0000
  H   H16       1.0  0.8850907707620905  0.4100044652781207  0.3843743479686452  1.0000
  H   H17       1.0  0.6243829455392529  0.1283511843500591  0.0960401204208736  1.0000
  H   H18       1.0  0.875616059882603  0.8716500588818832  0.5960408655995693  1.0000
  H   H19       1.0  0.37561892561626564  0.8716492449820877  0.9039576440430395  1.0000
  H   H20       1.0  0.12438309977095233  0.12835037045025643  0.4039598795791264  1.0000
  H   H21       1.0  0.11948006236151804  0.6809793808476599  0.2238315598080405  1.0000
  H   H22       1.0  0.3805192515237367  0.31902023458468426  0.7238315598080405  1.0000
  H   H23       1.0  0.8805190972920371  0.3190210484844798  0.7761691853706552  1.0000
  H   H24       1.0  0.619479668176922  0.6809793808476599  0.2761684401919595  1.0000
  H   H25       1.0  0.32838492632397737  0.7027625950591984  0.15404259441414334  1.0000
  H   H26       1.0  0.17161438756127723  0.2972370203731458  0.6540425944141433  1.0000
  H   H27       1.0  0.671615349127656  0.2972370203731458  0.8459581507645524  1.0000
  H   H28       1.0  0.8283845321393813  0.7027625950591984  0.3459581507645524  1.0000
  H   H29       1.0  0.11323045346453144  0.708048060351743  0.0929424125905385  1.0000
  H   H30       1.0  0.3867688604207231  0.2919515550806011  0.5929424125905385  1.0000
  H   H31       1.0  0.886768466236127  0.2919515550806011  0.9070583325881572  1.0000
  H   H32       1.0  0.6132300592799352  0.708048060351743  0.4070575874094615  1.0000
  H   H33       1.0  0.16657245199546372  0.8981123830359579  0.0328042564607003  1.0000
  H   H34       1.0  0.3334268618897909  0.10188723239638621  0.5328050016393959  1.0000
  H   H35       1.0  0.8334267076580844  0.10188804629618181  0.9671949983606042  1.0000
  H   H36       1.0  0.6665734135618494  0.8981123830359579  0.4671957435392998  1.0000
  H   H37       1.0  0.3087294957731146  0.075690239576673  0.297897850904647  1.0000
  H   H38       1.0  0.19126981811213992  0.9243093758556711  0.7978985960833428  1.0000
  H   H39       1.0  0.6912721354295002  0.9243093758556711  0.7021021490953532  1.0000
  H   H40       1.0  0.8087275058846404  0.07568942567687742  0.2021014039166573  1.0000
  C   C1        1.0  0.7608908707996419  0.5057532653929542  0.132939878982981  1.0000
  C   C2        1.0  0.7391078946693171  0.4942471639391925  0.6329406241616766  1.0000
  C   C3        1.0  0.2391082888539131  0.4942471639391925  0.867060121017019  1.0000
  C   C4        1.0  0.26089126498423815  0.5057532653929542  0.36706012101701907  1.0000
  C   C5        1.0  0.48947604803631617  0.3584089153411938  0.1131777400220599  1.0000
  C   C6        1.0  0.010523505801835144  0.641591513990953  0.6131784852007485  1.0000
  C   C7        1.0  0.5105274188230738  0.6415923278907485  0.8868200244418603  1.0000
  C   C8        1.0  0.989475653851713  0.3584089153411938  0.3868230051566357  1.0000
  C   C9        1.0  0.6167169232940071  0.21382775510591057  0.10393454350353441  1.0000
  C   C10       1.0  0.883283197925927  0.7861726742262365  0.6039360338609185  1.0000
  C   C11       1.0  0.3832851878144013  0.7861734881260319  0.8960624757816902  1.0000
  C   C12       1.0  0.11671572177473173  0.21382694120610785  0.3960654564964656  1.0000
  C   C13       1.0  0.7581903749979446  0.3016223124883695  0.1146733136606173  1.0000
  C   C14       1.0  0.741809746221989  0.6983781168437773  0.6146755491966971  1.0000
  C   C15       1.0  0.24180990045369555  0.6983773029439746  0.8853251959819988  1.0000
  C   C16       1.0  0.2581907691825407  0.3016223124883695  0.3853266863393827  1.0000
  C   C17       1.0  0.9591966418582487  0.3018933411213212  0.1148558824406081  1.0000
  C   C18       1.0  0.540803479361685  0.6981070882108186  0.6148566276193037  1.0000
  C   C19       1.0  0.040805229297262754  0.6981070882108186  0.8851456079167761  1.0000
  C   C20       1.0  0.4591970360428448  0.3018933411213212  0.3851433723806963  1.0000
  C   C21       1.0  0.19206814620559953  0.7259392057260499  0.1617432710363929  1.0000
  C   C22       1.0  0.30792981192868046  0.27406040970629425  0.6617432710363929  1.0000
  C   C23       1.0  0.8079307734950589  0.27406040970629425  0.8382567289636071  1.0000
  C   C24       1.0  0.6920675120681069  0.7259383918262544  0.33825672896360715  1.0000
  C   C25       1.0  0.20204932221493987  0.9178527087528395  0.10991832841515503  1.0000
  C   C26       1.0  0.29794863591934023  0.0821469066795046  0.609918328415155  1.0000
  C   C27       1.0  0.7979509532367005  0.0821469066795046  0.890081671584845  1.0000
  C   C28       1.0  0.7020502837813184  0.9178527087528395  0.3900816715848451  1.0000
  C   C29       1.0  0.2697033448305248  0.0067130455394064014  0.2485506274404585  1.0000
  C   C30       1.0  0.23029461330374812  0.9932865698929378  0.7485506274404585  1.0000
  C   C31       1.0  0.73029828637209  0.9932865698929378  0.7514501177382301  1.0000
  C   C32       1.0  0.7697027106930321  0.0067122316396109015  0.2514493725595415  1.0000
  C   C33       1.0  0.2535816612750992  0.8973530145238016  0.2708530805687204  1.0000
  C   C34       1.0  0.24641605690628415  0.10264578700873982  0.7708523353900247  1.0000
  C   C35       1.0  0.7464181342707477  0.10264497310894433  0.7291476646099753  1.0000
  C   C36       1.0  0.7535812670905032  0.8973530145238016  0.2291476646099753  1.0000
  C   C37       1.0  0.26438468027934914  0.845992681628694  0.3689722495454433  1.0000
  C   C38       1.0  0.23561439365301604  0.1540061199038547  0.8689737399028274  1.0000
  C   C39       1.0  0.7356162310645901  0.1540044921042565  0.631025514918477  1.0000
  C   C40       1.0  0.7643818145456792  0.8459934955284896  0.1310270052758682  1.0000
  N   N1        1.0  0.6731345027915978  0.3926464242719376  0.1202927061909449  1.0000
  N   N2        1.0  0.8268656184283358  0.6073540050602091  0.6202949417270247  1.0000
  N   N3        1.0  0.32686872411489537  0.6073540050602091  0.8797058034516709  1.0000
  N   N4        1.0  0.17313354122521935  0.3926464242719376  0.3797072938090551  1.0000
  N   N5        1.0  0.4515090295540461  0.24995839496835265  0.1029561238785064  1.0000
  N   N6        1.0  0.04849052428410523  0.750042034363787  0.602956869057202  1.0000
  N   N7        1.0  0.5484928416014654  0.750042034363787  0.8970408954067182  1.0000
  N   N8        1.0  0.9515086353694502  0.24995839496835265  0.3970438761214936  1.0000
  N   N9        1.0  0.2124192620120128  0.8425270962859701  0.18088840203881065  1.0000
  N   N10       1.0  0.28758005187324204  0.15747251914637422  0.6808891472174992  1.0000
  N   N11       1.0  0.7875810134396276  0.15747251914637422  0.8191108527824937  1.0000
  N   N12       1.0  0.71241862787452  0.8425262823861674  0.3191108527824937  1.0000
  N   N13       1.0  0.2358389935951308  0.0183461153617657  0.1489418462547292  1.0000
  N   N14       1.0  0.2641592044920387  0.981654313970381  0.6489425914334248  1.0000
  N   N15       1.0  0.7641628775603879  0.981654313970381  0.8510581537452708  1.0000
  N   N16       1.0  0.7358397152086198  0.018345301461963004  0.3510574085665752  1.0000
  O   O1        1.0  0.9935811461655392  0.20309241676148565  0.1040589883454075  1.0000
  O   O2        1.0  0.506417619303413  0.7969080125706611  0.6040582431667119  1.0000
  O   O3        1.0  0.006420724989972444  0.7969080125706611  0.8959425020119839  1.0000
  O   O4        1.0  0.4935815403501423  0.20309241676148565  0.395940266475904  1.0000
  O   O5        1.0  0.07447671456552032  0.387168878626909  0.1232540463203051  1.0000
  O   O6        1.0  0.425522839272631  0.6128315507052378  0.6232533011416166  1.0000
  O   O7        1.0  0.9255253965428879  0.6128323646050334  0.8767496795731589  1.0000
  O   O8        1.0  0.5744760804280276  0.3871680647271064  0.37674595367969493  1.0000
  O   O9        1.0  0.279454579647002  0.9149096470808618  0.4427747473844192  1.0000
  O   O10       1.0  0.2205428985814777  0.08508834055189143  0.942775492563115  1.0000
  O   O11       1.0  0.7205474474950152  0.0850867127522932  0.5572245074368851  1.0000
  O   O12       1.0  0.7794503581623574  0.9149104609806571  0.0572245074368851  1.0000
  O   O13       1.0  0.25802594554269126  0.7457470851262188  0.3790545172732394  1.0000
  O   O14       1.0  0.24197719564260475  0.2542517164063227  0.8790567528093263  1.0000
  O   O15       1.0  0.7419749658012407  0.2542500886067245  0.6209417568332896  1.0000
  O   O16       1.0  0.7580230798090284  0.7457478990260213  0.12094324719067373  1.0000
