data_image0
_chemical_formula_structural       Zn8H160C160N16O32
_chemical_formula_sum              "Zn8 H160 C160 N16 O32"
_cell_length_a       11.617274776000823
_cell_length_b       16.108406389002013
_cell_length_c       24.952953685003017
_cell_angle_alpha    89.99995159345595
_cell_angle_beta     89.99997209193785
_cell_angle_gamma    90.00003219252254

_space_group_name_H-M_alt    "P 1"
_space_group_IT_number       1

loop_
  _space_group_symop_operation_xyz
  'x, y, z'

loop_
  _atom_site_type_symbol
  _atom_site_label
  _atom_site_symmetry_multiplicity
  _atom_site_fract_x
  _atom_site_fract_y
  _atom_site_fract_z
  _atom_site_occupancy
  Zn  Zn1       1.0  0.7499976936454614  0.24999923897058102  0.2977934513711915  1.0000
  Zn  Zn2       1.0  0.2500009621054743  0.24999981912892386  0.20220762936299508  1.0000
  Zn  Zn3       1.0  0.2500000289693105  0.7500005320171185  0.7022080216411197  1.0000
  Zn  Zn4       1.0  0.7500010644459678  0.7500005726548625  0.79779183987786  1.0000
  Zn  Zn5       1.0  0.24999991083990383  0.7500003832384226  0.9273665367782938  1.0000
  Zn  Zn6       1.0  0.7499986002134592  0.7499994798450019  0.5726337254954714  1.0000
  Zn  Zn7       1.0  0.7500003941373875  0.25000000854500126  0.0726329324627528  1.0000
  Zn  Zn8       1.0  0.25000084397606764  0.24999967035023477  0.4273661445001764  1.0000
  H   H1        1.0  0.6097099451426685  0.0013762054618667002  0.3346500929769718  1.0000
  H   H2        1.0  0.3902893824663635  0.0013762717805719002  0.1653499197652337  1.0000
  H   H3        1.0  0.10971085884501969  0.49862217359867617  0.165349416460856  1.0000
  H   H4        1.0  0.8902871250483954  0.498622223771477  0.33465072849485006  1.0000
  H   H5        1.0  0.3902894990473342  0.9986241863211234  0.665349777018335  1.0000
  H   H6        1.0  0.6097109225111623  0.9986247407967287  0.8346495494756496  1.0000
  H   H7        1.0  0.8902885853449549  0.5013775973907003  0.8346500527804607  1.0000
  H   H8        1.0  0.10971231914092527  0.5013769264234968  0.6653495422549511  1.0000
  H   H9        1.0  0.4394557689012474  0.08113391554572764  0.3181133710189457  1.0000
  H   H10       1.0  0.5605427585289107  0.0811352722847829  0.1818874001576702  1.0000
  H   H11       1.0  0.9394570543185168  0.41886335883361175  0.1818856631076358  1.0000
  H   H12       1.0  0.0605425905411181  0.41886556953611637  0.318114124167387  1.0000
  H   H13       1.0  0.5605436752878887  0.9188658554425903  0.6818877012390132  1.0000
  H   H14       1.0  0.4394566856609075  0.9188657402915439  0.818113271345787  1.0000
  H   H15       1.0  0.060544111444699  0.5811345497742338  0.8181142068881471  1.0000
  H   H16       1.0  0.9394568536482237  0.5811342014524644  0.6818865473364113  1.0000
  H   H17       1.0  0.4103847197129086  0.9366089588943184  0.3414955455375974  1.0000
  H   H18       1.0  0.5896135970078689  0.9366091170164312  0.1585047636346744  1.0000
  H   H19       1.0  0.910387481112565  0.5633891483773258  0.1585044273960392  1.0000
  H   H20       1.0  0.0896122735724205  0.5633907194559599  0.34149528182707906  1.0000
  H   H21       1.0  0.5896130029022829  0.06339081209389971  0.6585051259663927  1.0000
  H   H22       1.0  0.41038584718213394  0.06339127476655192  0.8414951063606396  1.0000
  H   H23       1.0  0.08961368465067208  0.43660938102412683  0.8414958433537336  1.0000
  H   H24       1.0  0.9103888921912925  0.43660905153324603  0.6585049889223598  1.0000
  H   H25       1.0  0.2969639795350218  0.9964832446332966  0.36909668347186647  1.0000
  H   H26       1.0  0.7030352434713337  0.9964841071159478  0.1309043948729496  1.0000
  H   H27       1.0  0.7969650028235049  0.5035148155469004  0.1309037158612014  1.0000
  H   H28       1.0  0.20303384557551138  0.5035163972409791  0.3690964264516908  1.0000
  H   H29       1.0  0.7030354646541139  0.0035165263550212007  0.6309043887860923  1.0000
  H   H30       1.0  0.2969650615050837  0.0035156638728111008  0.8690962766307492  1.0000
  H   H31       1.0  0.20303616294017962  0.4964843346486988  0.8690961541342476  1.0000
  H   H32       1.0  0.79696559861339  0.49648275295346894  0.6309046458064316  1.0000
  H   H33       1.0  0.3932274713995128  0.992687050739626  0.45890087187808604  1.0000
  H   H34       1.0  0.6067717487218687  0.9926867503478155  0.041099807763039606  1.0000
  H   H35       1.0  0.8932277310176173  0.5073116702019078  0.0410991049350216  1.0000
  H   H36       1.0  0.10677198105431532  0.5073137140426173  0.4589002338188095  1.0000
  H   H37       1.0  0.606772833576933  0.007313341042738801  0.5411002003796099  1.0000
  H   H38       1.0  0.3932285562547406  0.007312399847599202  0.9589000622325016  1.0000
  H   H39       1.0  0.10677257395919781  0.4926874799937765  0.9589003643063662  1.0000
  H   H40       1.0  0.8932274631354813  0.4926866777401033  0.5411000369306578  1.0000
  H   H41       1.0  0.3702702537085046  0.8908178908554379  0.43533375207868363  1.0000
  H   H42       1.0  0.6297314713638826  0.8908188104383614  0.0646669825769095  1.0000
  H   H43       1.0  0.8702688444339091  0.6091801997603314  0.0646662299255354  1.0000
  H   H44       1.0  0.12972922347388047  0.6091822842777433  0.435333454567889  1.0000
  H   H45       1.0  0.6297309120549955  0.10918188013349814  0.5646669194249156  1.0000
  H   H46       1.0  0.3702696943996173  0.10918096055057452  0.9353336889266899  1.0000
  H   H47       1.0  0.12973059975541193  0.39081895043463544  0.935334040824273  1.0000
  H   H48       1.0  0.8702702207156747  0.3908174867111003  0.5646668161817416  1.0000
  H   H49       1.0  0.5730527641000407  0.8813309810163474  0.4050038553586148  1.0000
  H   H50       1.0  0.42694809297532993  0.8813286723552455  0.0949960829130916  1.0000
  H   H51       1.0  0.0730517413219332  0.6186682277866499  0.0949957930936023  1.0000
  H   H52       1.0  0.9269454730081961  0.618668820998309  0.4050038862762548  1.0000
  H   H53       1.0  0.42694840166414144  0.11867003156059751  0.5949964153904901  1.0000
  H   H54       1.0  0.5730522120010093  0.11866923625268563  0.9050033863286302  1.0000
  H   H55       1.0  0.9269485636548824  0.38133092240902766  0.9050036761477854  1.0000
  H   H56       1.0  0.0730539711813591  0.3813309499905345  0.594996384473383  1.0000
  H   H57       1.0  0.5680739466128628  0.9101159050129087  0.4735624653607999  1.0000
  H   H58       1.0  0.43192779312384727  0.9101149306102417  0.0264374573649704  1.0000
  H   H59       1.0  0.06807383468707678  0.5898845433108947  0.0264371842167179  1.0000
  H   H60       1.0  0.9319259401309948  0.5898844271923382  0.4735629114520066  1.0000
  H   H61       1.0  0.4319272191510848  0.08988448677017402  0.5264378053884755  1.0000
  H   H62       1.0  0.568074233427339  0.08988421958606811  0.9735616111220581  1.0000
  H   H63       1.0  0.9319264702902146  0.4101158484725361  0.9735622850243288  1.0000
  H   H64       1.0  0.0680743648456641  0.4101159645902898  0.5264377600515218  1.0000
  H   H65       1.0  0.6062219956342217  0.05646537600041061  0.451304404742821  1.0000
  H   H66       1.0  0.3937773738365422  0.05646249396249201  0.0486947767406036  1.0000
  H   H67       1.0  0.1062204075191531  0.4435348639933424  0.0486947047292716  1.0000
  H   H68       1.0  0.8937792560873489  0.4435347614510976  0.451305469976532  1.0000
  H   H69       1.0  0.3937783093433254  0.9435362573705037  0.5486954652520595  1.0000
  H   H70       1.0  0.6062212095658595  0.9435354146453465  0.9513042917471495  1.0000
  H   H71       1.0  0.8937764543091191  0.5564636654077476  0.9513047645126705  1.0000
  H   H72       1.0  0.10622104888907559  0.556465009537668  0.5486952015271669  1.0000
  H   H73       1.0  0.7116162774098315  0.9942149163905614  0.4198064656292573  1.0000
  H   H74       1.0  0.2883838046590697  0.9942119489680294  0.0801934116790406  1.0000
  H   H75       1.0  0.21161604517081398  0.5057843499429141  0.0801923499845643  1.0000
  H   H76       1.0  0.7883828049521638  0.505783624473608  0.4198073903491064  1.0000
  H   H77       1.0  0.2883831667801998  0.005786096186035602  0.5801938051200466  1.0000
  H   H78       1.0  0.7116165003172769  0.005785959639901301  0.9198060575626811  1.0000
  H   H79       1.0  0.7883825382318007  0.49421355866518724  0.9198063177490283  1.0000
  H   H80       1.0  0.2116175000242322  0.4942155257215434  0.5801928804005954  1.0000
  H   H81       1.0  0.760854745451148  0.06328494956221681  0.2685496679795065  1.0000
  H   H82       1.0  0.23914376841567994  0.06328672815376991  0.2314511128364458  1.0000
  H   H83       1.0  0.26086070747224  0.43671349225273565  0.23144980728306308  1.0000
  H   H84       1.0  0.7391406725257426  0.4367135670265442  0.2685487680897793  1.0000
  H   H85       1.0  0.23914125559025476  0.9367135798389588  0.7314494005083745  1.0000
  H   H86       1.0  0.7608591189222338  0.9367142844230048  0.7685499594207883  1.0000
  H   H87       1.0  0.7391421798660431  0.5632862787373586  0.7685496619578629  1.0000
  H   H88       1.0  0.2608587716638198  0.5632862039623067  0.7314515026598515  1.0000
  H   H89       1.0  0.8581929301792072  0.9753237131113156  0.2008804677227332  1.0000
  H   H90       1.0  0.14180799832245583  0.9753266034488778  0.299121423556997  1.0000
  H   H91       1.0  0.35819506493648845  0.524674372490317  0.2991203185201528  1.0000
  H   H92       1.0  0.641807242690099  0.5246738754882189  0.20087820934891448  1.0000
  H   H93       1.0  0.141806514010085  0.024674816290051606  0.7991194022730781  1.0000
  H   H94       1.0  0.8581923066549069  0.02467565071538051  0.700879247946034  1.0000
  H   H95       1.0  0.6418069616140372  0.47532415691158303  0.7008795514753672  1.0000
  H   H96       1.0  0.3581922014996408  0.4753252747072878  0.7991212598925658  1.0000
  H   H97       1.0  0.0154838410790887  0.19927722840650838  0.1383438873477019  1.0000
  H   H98       1.0  0.9845147761287479  0.19927914439347214  0.36165682002470584  1.0000
  H   H99       1.0  0.5154848480859968  0.3007211115312602  0.3616576471659627  1.0000
  H   H100      1.0  0.4845138462086709  0.30072063186855763  0.138342604667514  1.0000
  H   H101      1.0  0.9845164638967037  0.8007225425814541  0.8616579864184786  1.0000
  H   H102      1.0  0.015484668062377699  0.8007231097716669  0.6383422484617753  1.0000
  H   H103      1.0  0.4845145961026701  0.6992774178693115  0.638343425092323  1.0000
  H   H104      1.0  0.5154855979808346  0.6992778975330723  0.8616568645741296  1.0000
  H   H105      1.0  0.9123852326089976  0.27714975134010444  0.2091149458535995  1.0000
  H   H106      1.0  0.08761344377452221  0.2771513884728378  0.2908853187091722  1.0000
  H   H107      1.0  0.4123883873872175  0.22284937418084652  0.2908856974097063  1.0000
  H   H108      1.0  0.5876119693068204  0.2228488437946439  0.20911419572456677  1.0000
  H   H109      1.0  0.0876133507928216  0.7228493988541589  0.7908861264046151  1.0000
  H   H110      1.0  0.912387721989873  0.7228496241043842  0.7091145512857722  1.0000
  H   H111      1.0  0.5876144999506252  0.7771497760151079  0.7091141725855508  1.0000
  H   H112      1.0  0.4123900572441315  0.777149685607782  0.790884872762632  1.0000
  H   H113      1.0  0.0680271176507716  0.07212191888866222  0.0985033416551246  1.0000
  H   H114      1.0  0.9319739852927925  0.07212438120357233  0.4014974343878919  1.0000
  H   H115      1.0  0.5680255971174759  0.4278764428638696  0.4014981809784998  1.0000
  H   H116      1.0  0.43197405459087423  0.4278766148329468  0.098500799921176  1.0000
  H   H117      1.0  0.9319749089000665  0.9278790936879349  0.9014977306022088  1.0000
  H   H118      1.0  0.0680245981110232  0.9278772521675124  0.5985016340988594  1.0000
  H   H119      1.0  0.4319729862845564  0.5721227073306567  0.5985024905255614  1.0000
  H   H120      1.0  0.5680253895986809  0.5721231561558967  0.9014994708284619  1.0000
  H   H121      1.0  0.9256648797511176  0.9172174676343802  0.1296203747788169  1.0000
  H   H122      1.0  0.0743368653830956  0.9172202357859265  0.37038034561902583  1.0000
  H   H123      1.0  0.42566354074247664  0.5827812667741483  0.3703799954543499  1.0000
  H   H124      1.0  0.5743353678908035  0.5827808359314733  0.1296197032965694  1.0000
  H   H125      1.0  0.0743380075874569  0.08278416573679694  0.8703798959699327  1.0000
  H   H126      1.0  0.9256643003820032  0.08278263917291181  0.6296195243754211  1.0000
  H   H127      1.0  0.5743359034468157  0.4172172626272116  0.6296198745414543  1.0000
  H   H128      1.0  0.4256632155112001  0.4172176934694465  0.8703805674535018  1.0000
  H   H129      1.0  0.9834692874642315  0.7895444180274683  0.0884036388449232  1.0000
  H   H130      1.0  0.0165297782884153  0.7895446245332  0.41159755125870134  1.0000
  H   H131      1.0  0.4834671414389433  0.7104543403805369  0.4115967183184353  1.0000
  H   H132      1.0  0.5165292818525202  0.7104545608017645  0.0884029114819427  1.0000
  H   H133      1.0  0.016530156726922502  0.21045845693127774  0.9115958303955551  1.0000
  H   H134      1.0  0.9834713874753189  0.21045576724961287  0.5884031202447346  1.0000
  H   H135      1.0  0.5165297203895634  0.28954480981443  0.5884027509233434  1.0000
  H   H136      1.0  0.48346844076269246  0.28954583098006753  0.9115981607760376  1.0000
  H   H137      1.0  0.0822915088422747  0.7150229418463426  0.0141359998693531  1.0000
  H   H138      1.0  0.9177092218560007  0.7150246659492869  0.4858652304794687  1.0000
  H   H139      1.0  0.5822897911923731  0.7849762707917878  0.4858644480023386  1.0000
  H   H140      1.0  0.4177084103022679  0.7849759275376232  0.0141355423061142  1.0000
  H   H141      1.0  0.9177062137738048  0.2849780707301549  0.9858638701259821  1.0000
  H   H142      1.0  0.0822953870560923  0.2849769674214572  0.5141362425315563  1.0000
  H   H143      1.0  0.4177096529973952  0.21502350019731867  0.5141354219931387  1.0000
  H   H144      1.0  0.582291894674178  0.21502446424474908  0.9858655299515816  1.0000
  H   H145      1.0  0.2216714630404937  0.9325174827837589  0.9548798668145294  1.0000
  H   H146      1.0  0.7783280474966361  0.9325191106883682  0.5451194953806038  1.0000
  H   H147      1.0  0.7216717641630839  0.567482368538933  0.5451196003559531  1.0000
  H   H148      1.0  0.2783274689817645  0.5674820057447009  0.9548803597334297  1.0000
  H   H149      1.0  0.7783288419370251  0.0674835297935417  0.045119602426346696  1.0000
  H   H150      1.0  0.22167311826798647  0.06748252268272383  0.4548803746141701  1.0000
  H   H151      1.0  0.2783276800264431  0.4325167816563039  0.4548802696396947  1.0000
  H   H152      1.0  0.7216693928470548  0.432519627624963  0.0451203117701553  1.0000
  H   H153      1.0  0.12569986981688427  0.017688910347232  0.024792236383007097  1.0000
  H   H154      1.0  0.8742994701888022  0.01768938892360691  0.4752069660409859  1.0000
  H   H155      1.0  0.6256991740905349  0.48231009614539044  0.47520767019358345  1.0000
  H   H156      1.0  0.3743005189816984  0.4823097207855228  0.0247916820631602  1.0000
  H   H157      1.0  0.8743038783091848  0.9823127230246559  0.9752072328573149  1.0000
  H   H158      1.0  0.1256982524276751  0.9823110028598169  0.5247917016920383  1.0000
  H   H159      1.0  0.37430113088628036  0.5176890540502939  0.5247917990478044  1.0000
  H   H160      1.0  0.6256954820599957  0.5176906709967499  0.9752081879325374  1.0000
  C   C1        1.0  0.5875360711454647  0.04760732069902221  0.3660098975486292  1.0000
  C   C2        1.0  0.41246243080740896  0.04760619607981912  0.133989689472422  1.0000
  C   C3        1.0  0.0875378434102245  0.45239166994979035  0.13398881539424679  1.0000
  C   C4        1.0  0.9124618269264033  0.45239106709052396  0.366011354528517  1.0000
  C   C5        1.0  0.41246251225769015  0.9523936918776601  0.6339899724466065  1.0000
  C   C6        1.0  0.5875378741696123  0.9523929541161283  0.8660093790147982  1.0000
  C   C7        1.0  0.9124624615665979  0.547607480245887  0.866010653847141  1.0000
  C   C8        1.0  0.0875384780493675  0.5476080831038318  0.6339901184836734  1.0000
  C   C9        1.0  0.4576536398574547  0.06333821458257921  0.35982186299586516  1.0000
  C   C10       1.0  0.5423457348371841  0.06333899809290242  0.1401777155290134  1.0000
  C   C11       1.0  0.9576549825624313  0.43665906735229515  0.1401771670160699  1.0000
  C   C12       1.0  0.042344675819485596  0.43665935299794983  0.3598226106487843  1.0000
  C   C13       1.0  0.5423458043316529  0.9366609356121318  0.6401788085080966  1.0000
  C   C14       1.0  0.45765543092650063  0.9366601521026967  0.8598221544664356  1.0000
  C   C15       1.0  0.042343600839807  0.5633400828425014  0.8598231037338309  1.0000
  C   C16       1.0  0.9576556291569104  0.5633397971972018  0.6401776601009175  1.0000
  C   C17       1.0  0.3895596994845646  0.9833441593231246  0.3724221345734122  1.0000
  C   C18       1.0  0.6104395135377629  0.9833449877564963  0.1275781493589392  1.0000
  C   C19       1.0  0.8895615970343937  0.5166539393023301  0.1275774423148235  1.0000
  C   C20       1.0  0.11043812213635111  0.5166554781561388  0.3724222921479523  1.0000
  C   C21       1.0  0.6104388839177018  0.016655611665278503  0.6275785369304856  1.0000
  C   C22       1.0  0.3895607914390808  0.01665478323278791  0.8724217206364385  1.0000
  C   C23       1.0  0.11043956872928358  0.483345210893262  0.8724224276806253  1.0000
  C   C24       1.0  0.8895613220529979  0.4833442928324417  0.6275783793558389  1.0000
  C   C25       1.0  0.4192680015346895  0.9481413916047716  0.42764285797087354  1.0000
  C   C26       1.0  0.5807329063108853  0.9481416598868367  0.0723574449729085  1.0000
  C   C27       1.0  0.9192674014168457  0.5518567193544047  0.0723571129545846  1.0000
  C   C28       1.0  0.08073148371752129  0.5518587936919918  0.42764300325081445  1.0000
  C   C29       1.0  0.5807323034419412  0.051858379384256616  0.5723574127786648  1.0000
  C   C30       1.0  0.4192682594528208  0.051858111102369306  0.9276428257765303  1.0000
  C   C31       1.0  0.0807329035592943  0.44814118925326357  0.9276427570412976  1.0000
  C   C32       1.0  0.9192679604717995  0.4481403565029752  0.5723572674989867  1.0000
  C   C33       1.0  0.5485375527889998  0.9318877898626144  0.432756070076266  1.0000
  C   C34       1.0  0.45146334270513216  0.9318867696435054  0.067243840891571  1.0000
  C   C35       1.0  0.0485382422871439  0.5681107879687346  0.0672431831647984  1.0000
  C   C36       1.0  0.9514615159858979  0.5681119754763844  0.4327561227543129  1.0000
  C   C37       1.0  0.45146275218786497  0.06811260192029073  0.5672442006731089  1.0000
  C   C38       1.0  0.548538683845841  0.06811238055253452  0.932755628349618  1.0000
  C   C39       1.0  0.9514620626896502  0.4318877414333358  0.9327558853225993  1.0000
  C   C40       1.0  0.0485387889911806  0.4318884163067836  0.5672437472408943  1.0000
  C   C41       1.0  0.619615840969942  0.009269545126187505  0.420148585291841  1.0000
  C   C42       1.0  0.3803852142107473  0.0092678579410261  0.0798514231877974  1.0000
  C   C43       1.0  0.1196159776010219  0.49072945884112334  0.0798505211519682  1.0000
  C   C44       1.0  0.8803837218687889  0.4907287711174747  0.42014922731208765  1.0000
  C   C45       1.0  0.380385324794446  0.9907314674510278  0.5798512847031033  1.0000
  C   C46       1.0  0.6196159515531718  0.9907319130484428  0.9201484468074809  1.0000
  C   C47       1.0  0.880383466588931  0.5092696913546391  0.9201485473353513  1.0000
  C   C48       1.0  0.11961572232056028  0.5092709998711129  0.5798514441917106  1.0000
  C   C49       1.0  0.6628033289365476  0.12271843777136134  0.3522519784356746  1.0000
  C   C50       1.0  0.3371917869455956  0.12271726372030403  0.1477467665132295  1.0000
  C   C51       1.0  0.1628076120501163  0.37728182571624563  0.1477459159799182  1.0000
  C   C52       1.0  0.8371937227846116  0.3772799681999574  0.3522530922440623  1.0000
  C   C53       1.0  0.3371926721055942  0.8772825748050509  0.6477474908056989  1.0000
  C   C54       1.0  0.6628067964581704  0.8772831280635602  0.8522515004655347  1.0000
  C   C55       1.0  0.8371935537146696  0.6227185660678958  0.8522527517527152  1.0000
  C   C56       1.0  0.1628074429786537  0.6227191819951089  0.6477475792597076  1.0000
  C   C57       1.0  0.4130519662593102  0.1346922301067651  0.39470549465031  1.0000
  C   C58       1.0  0.5869500450184333  0.13469121585492871  0.1052932438312482  1.0000
  C   C59       1.0  0.9130524305593751  0.36530689569177355  0.1052931446917498  1.0000
  C   C60       1.0  0.0869471736020273  0.36530777454881774  0.3947066715071443  1.0000
  C   C61       1.0  0.5869500602921535  0.8653087824706277  0.6052943753445419  1.0000
  C   C62       1.0  0.4130528423196437  0.8653085551349026  0.8947066261638382  1.0000
  C   C63       1.0  0.08694701363015159  0.6346922545034632  0.894706725303891  1.0000
  C   C64       1.0  0.9130514098004452  0.6346919964398482  0.605293599242593  1.0000
  C   C65       1.0  0.8170856875006579  0.09073027828797112  0.2384333798221689  1.0000
  C   C66       1.0  0.18291456879565257  0.09073137293933801  0.2615677869259017  1.0000
  C   C67       1.0  0.3170898754908507  0.4092688076665922  0.2615664834804576  1.0000
  C   C68       1.0  0.6829106228645471  0.40926889889489365  0.23843250746831757  1.0000
  C   C69       1.0  0.1829103135407735  0.9092688719068182  0.761566089419702  1.0000
  C   C70       1.0  0.8170883185420549  0.909269639637174  0.738433686085486  1.0000
  C   C71       1.0  0.6829130118472264  0.590730963323239  0.7384333865146289  1.0000
  C   C72       1.0  0.3170879605387924  0.5907314928884375  0.7615665610187676  1.0000
  C   C73       1.0  0.8716122464806304  0.04226555785957941  0.2003392992871085  1.0000
  C   C74       1.0  0.1283905553484388  0.042267821116880114  0.2996626951423664  1.0000
  C   C75       1.0  0.3716138489657794  0.457733550732904  0.299660952441215  1.0000
  C   C76       1.0  0.6283866862179082  0.45773304887330835  0.2003380123340222  1.0000
  C   C77       1.0  0.128386336921821  0.9577335923354796  0.7996605707086317  1.0000
  C   C78       1.0  0.8716131927765784  0.957733812253686  0.7003387778687653  1.0000
  C   C79       1.0  0.6283873167981469  0.5422662202565648  0.7003389175540634  1.0000
  C   C80       1.0  0.3716136187593335  0.5422661013229019  0.7996606553990374  1.0000
  C   C81       1.0  0.944101742966893  0.08007939450490655  0.162251605490205  1.0000
  C   C82       1.0  0.0559010875972064  0.08008157733117124  0.33774996776352145  1.0000
  C   C83       1.0  0.4441015551770064  0.419919123389498  0.3377494313565279  1.0000
  C   C84       1.0  0.5558972296972512  0.4199192625628641  0.16224995459482017  1.0000
  C   C85       1.0  0.0558977012228752  0.9199203764841999  0.8377482645052652  1.0000
  C   C86       1.0  0.9441017997411549  0.9199200560397502  0.6622507037393817  1.0000
  C   C87       1.0  0.555897889012101  0.5800800268052131  0.662251240147441  1.0000
  C   C88       1.0  0.44410307528022497  0.5800805084272156  0.8377487131380761  1.0000
  C   C89       1.0  0.9585242614150644  0.16637470999137352  0.16571890555209018  1.0000
  C   C90       1.0  0.04147691315075261  0.16637689141121115  0.3342830218516539  1.0000
  C   C91       1.0  0.4585248724742286  0.33362381389097345  0.3342825287876963  1.0000
  C   C92       1.0  0.5414738468239477  0.33362394249425636  0.16571690376798637  1.0000
  C   C93       1.0  0.04147518277385839  0.8336250609966742  0.8342825674600219  1.0000
  C   C94       1.0  0.9585251134007393  0.8336247419597956  0.6657172488971881  1.0000
  C   C95       1.0  0.541474571714879  0.6663753363037304  0.6657181427162655  1.0000
  C   C96       1.0  0.45852731894083826  0.6663764492898852  0.8342817639646469  1.0000
  C   C97       1.0  0.9009238293152038  0.21040882291871554  0.2053065983863362  1.0000
  C   C98       1.0  0.09907651792585877  0.21041108057109886  0.2946941029740984  1.0000
  C   C99       1.0  0.4009261700266293  0.2895896770495626  0.2946940474687167  1.0000
  C   C100      1.0  0.5990742373838104  0.28958977724914803  0.205305809621855  1.0000
  C   C101      1.0  0.09907389329953988  0.78959032727537  0.7946944738719779  1.0000
  C   C102      1.0  0.9009263694131634  0.7895911735942249  0.7053057670203201  1.0000
  C   C103      1.0  0.5990749957370554  0.7104094731460293  0.7053058225267322  1.0000
  C   C104      1.0  0.4009277891673974  0.7104099937407685  0.7946936596191634  1.0000
  C   C105      1.0  0.0038571373840952  0.03528770771790591  0.1199212641968401  1.0000
  C   C106      1.0  0.9961439375690588  0.03529022498010902  0.38007953173870845  1.0000
  C   C107      1.0  0.5038565281023111  0.4647106273925346  0.38007987219171463  1.0000
  C   C108      1.0  0.4961422908084856  0.46470955611005155  0.1199198903241836  1.0000
  C   C109      1.0  0.9961440283798453  0.9647126840651696  0.8800790065524281  1.0000
  C   C110      1.0  0.003856367408729999  0.9647120291846748  0.6199203382560015  1.0000
  C   C111      1.0  0.4961420552995151  0.5352885228017286  0.6199212000665071  1.0000
  C   C112      1.0  0.5038588749554123  0.5352895940858106  0.8800795789171048  1.0000
  C   C113      1.0  0.987218068235272  0.9546793017419977  0.1068799636346043  1.0000
  C   C114      1.0  0.0127819837918679  0.9546807726971452  0.3931203357781143  1.0000
  C   C115      1.0  0.4872166768975815  0.5453194582223448  0.3931207934352088  1.0000
  C   C116      1.0  0.5127822032683794  0.5453196526702159  0.1068793263011898  1.0000
  C   C117      1.0  0.012783097529357697  0.04532233162908742  0.8931199063601767  1.0000
  C   C118      1.0  0.9872183211859208  0.04532148146763861  0.6068795342165884  1.0000
  C   C119      1.0  0.5127819065044221  0.4546790711785747  0.6068794773148554  1.0000
  C   C120      1.0  0.4872172409211757  0.4546801183186347  0.8931209444484479  1.0000
  C   C121      1.0  0.0462340472869869  0.9109951114663278  0.063952899181146  1.0000
  C   C122      1.0  0.953764249970348  0.9109962955816758  0.43604702306960513  1.0000
  C   C123      1.0  0.5462330937778431  0.589004706995773  0.4360467553347576  1.0000
  C   C124      1.0  0.4537658195852926  0.5890043128766393  0.0639517377926637  1.0000
  C   C125      1.0  0.9537662576903543  0.08900652190431663  0.9360473715678879  1.0000
  C   C126      1.0  0.04623519422031559  0.08900471699571713  0.56395204541721  1.0000
  C   C127      1.0  0.4537654896248142  0.4109944431995488  0.563952713906822  1.0000
  C   C128      1.0  0.5462327638169455  0.4109948373181568  0.9360485329572368  1.0000
  C   C129      1.0  0.0356265373590716  0.8242168196134899  0.05976624510071821  1.0000
  C   C130      1.0  0.9643725547418213  0.8242180025996789  0.44023452552342945  1.0000
  C   C131      1.0  0.5356256453995272  0.6757829944439918  0.440234213321915  1.0000
  C   C132      1.0  0.4643724731189991  0.6757826102619265  0.0597654352029053  1.0000
  C   C133      1.0  0.9643729068314001  0.17578481375723953  0.9402336248942548  1.0000
  C   C134      1.0  0.0356286110221475  0.17578300997700322  0.559766145979836  1.0000
  C   C135      1.0  0.4643729380029313  0.32421615575106705  0.5597656566738252  1.0000
  C   C136      1.0  0.5356261102830544  0.3242171607262137  0.9402356370551459  1.0000
  C   C137      1.0  0.09153122004107668  0.7816980648705043  0.0191329844448802  1.0000
  C   C138      1.0  0.9084678397496547  0.7816991709470503  0.4808678091418201  1.0000
  C   C139      1.0  0.5915294569681038  0.718301151604095  0.4808670605835061  1.0000
  C   C140      1.0  0.4084678330732671  0.7183014187033906  0.0191325649790386  1.0000
  C   C141      1.0  0.9084682241493666  0.21830294770661857  0.9808664847961026  1.0000
  C   C142      1.0  0.09153418680118358  0.21830184162954686  0.5191332631155133  1.0000
  C   C143      1.0  0.408469987221423  0.2816979985911417  0.5191328094121417  1.0000
  C   C144      1.0  0.5915316111163094  0.2816989730790668  0.9808681065245891  1.0000
  C   C145      1.0  0.1682105329746477  0.9036455699476351  0.985546791260127  1.0000
  C   C146      1.0  0.831788094835609  0.9036478813696861  0.5144529872815511  1.0000
  C   C147      1.0  0.6682108882156398  0.5963542591785116  0.5144530887523331  1.0000
  C   C148      1.0  0.3317883668692261  0.596353257260013  0.9855460542364582  1.0000
  C   C149      1.0  0.8317897720024376  0.09635482183553282  0.014453078735087398  1.0000
  C   C150      1.0  0.16821134935486273  0.09635375200104333  0.4855468827134217  1.0000
  C   C151      1.0  0.3317894167616444  0.4036461326049122  0.4855463804887208  1.0000
  C   C152      1.0  0.6682093557466756  0.40364837610983545  0.0144546172670346  1.0000
  C   C153      1.0  0.1144600665975872  0.9505906263252232  0.0248340649308005  1.0000
  C   C154      1.0  0.8855391215355723  0.9505923512104815  0.47516623669006464  1.0000
  C   C155      1.0  0.6144599027392131  0.5494092204633463  0.4751659749128904  1.0000
  C   C156      1.0  0.3855398413218296  0.549408228921202  0.024832940352546  1.0000
  C   C157      1.0  0.8855419599538833  0.04941038625217691  0.9751658050640515  1.0000
  C   C158      1.0  0.11445946186758248  0.04940866136620061  0.5248336333051782  1.0000
  C   C159      1.0  0.3855404022380783  0.4505911713200846  0.5248334943281563  1.0000
  C   C160      1.0  0.614457881293596  0.45059216286090037  0.9751677311512736  1.0000
  N   N1        1.0  0.8312637415472465  0.17366958255108508  0.24113163358437356  1.0000
  N   N2        1.0  0.1687357169882588  0.17367129567578135  0.258869087617569  1.0000
  N   N3        1.0  0.33126700855585506  0.3263301300834344  0.25886862726661514  1.0000
  N   N4        1.0  0.6687325659862323  0.32632959106535264  0.24113161073647402  1.0000
  N   N5        1.0  0.1687331202808409  0.8263295676433561  0.758868637165719  1.0000
  N   N6        1.0  0.8312671703501238  0.8263309584887469  0.7411319846393312  1.0000
  N   N7        1.0  0.6687341572080641  0.6736696409060344  0.741131242728663  1.0000
  N   N8        1.0  0.3312685997772391  0.6736695591299837  0.7588686600131354  1.0000
  N   N9        1.0  0.15758752963900946  0.8203580013292612  0.982440168700748  1.0000
  N   N10       1.0  0.842410174092791  0.820359071467806  0.5175604563296616  1.0000
  N   N11       1.0  0.657586223336736  0.6796418233862698  0.517559312959655  1.0000
  N   N12       1.0  0.34241137346469225  0.6796414507775667  0.9824397850491735  1.0000
  N   N13       1.0  0.8424119145512066  0.17964239045398506  0.0175593005403982  1.0000
  N   N14       1.0  0.1575909916713911  0.17964194110914633  0.4824398144194432  1.0000
  N   N15       1.0  0.34241322085320997  0.32035732680949996  0.48243975552767177  1.0000
  N   N16       1.0  0.6575863491516287  0.3203601825928076  0.0175600849459912  1.0000
  O   O1        1.0  0.6196194007484336  0.17607258048025196  0.31864632804798276  1.0000
  O   O2        1.0  0.3803748948915455  0.1760738631225252  0.1813523880861041  1.0000
  O   O3        1.0  0.11962705120326692  0.323926423490633  0.1813519768858498  1.0000
  O   O4        1.0  0.8803759646598622  0.32392462831357705  0.3186486631694834  1.0000
  O   O5        1.0  0.3803748787192873  0.8239271905083216  0.6813527404397561  1.0000
  O   O6        1.0  0.61962454930066  0.8239290118375425  0.8186450773835716  1.0000
  O   O7        1.0  0.8803775577098563  0.6760745890878255  0.8186470916003827  1.0000
  O   O8        1.0  0.11962261874240453  0.6760751426748259  0.6813520083344073  1.0000
  O   O9        1.0  0.7636901497664396  0.12828448512531315  0.3695958040748195  1.0000
  O   O10       1.0  0.2363041095564427  0.12827956734408022  0.1304037393775346  1.0000
  O   O11       1.0  0.26369530763747656  0.3717183034251407  0.1304016667747661  1.0000
  O   O12       1.0  0.7363060229696713  0.37171576030702624  0.3695965429456933  1.0000
  O   O13       1.0  0.2363041297025177  0.8717196314198435  0.630404065920068  1.0000
  O   O14       1.0  0.7636944738454831  0.871717099676012  0.8695953291105596  1.0000
  O   O15       1.0  0.7363049973422235  0.6282845715356377  0.8695949971864891  1.0000
  O   O16       1.0  0.26369686436667183  0.6282827690934597  0.6304057315746903  1.0000
  O   O17       1.0  0.3105503187502592  0.16078294250055342  0.38146017344246996  1.0000
  O   O18       1.0  0.689451712353275  0.160781953300976  0.1185397532111025  1.0000
  O   O19       1.0  0.8105507493256283  0.33921738232783144  0.11853929058376879  1.0000
  O   O20       1.0  0.1894462526485938  0.3392170796593278  0.3814605397055431  1.0000
  O   O21       1.0  0.6894499862248509  0.8392155868993998  0.6185421010782051  1.0000
  O   O22       1.0  0.31055289655876805  0.8392184384825474  0.8814609182919426  1.0000
  O   O23       1.0  0.1894452517163216  0.6607842510419176  0.8814609801657483  1.0000
  O   O24       1.0  0.8105531915407268  0.6607820705356392  0.6185397310442653  1.0000
  O   O25       1.0  0.46990263966782203  0.1633859303387269  0.4328460554151902  1.0000
  O   O26       1.0  0.5301019757753096  0.16338308050718817  0.0671518660620265  1.0000
  O   O27       1.0  0.9699022613972661  0.3366132190633024  0.0671525710727039  1.0000
  O   O28       1.0  0.030098181746488702  0.33661216153159057  0.4328464591144936  1.0000
  O   O29       1.0  0.530101969247113  0.8366181862098973  0.5671518108077223  1.0000
  O   O30       1.0  0.469901772349786  0.8366154488955931  0.9328472024249733  1.0000
  O   O31       1.0  0.030095461218550702  0.6633865519257115  0.9328468981688046  1.0000
  O   O32       1.0  0.9699004016554937  0.6633857470757222  0.5671534108815806  1.0000
