data_image0
_chemical_formula_structural       Zn4H56C56O28
_chemical_formula_sum              "Zn4 H56 C56 O28"
_cell_length_a       8.382006771443608
_cell_length_b       10.76404488203002
_cell_length_c       16.188526198931388
_cell_angle_alpha    90.00025115806743
_cell_angle_beta     92.53188822958748
_cell_angle_gamma    90.00008703847224

_space_group_name_H-M_alt    "P 1"
_space_group_IT_number       1

loop_
  _space_group_symop_operation_xyz
  'x, y, z'

loop_
  _atom_site_type_symbol
  _atom_site_label
  _atom_site_symmetry_multiplicity
  _atom_site_fract_x
  _atom_site_fract_y
  _atom_site_fract_z
  _atom_site_occupancy
  Zn  Zn1       1.0  0.2008107856603871  0.7103730146184188  0.728079714808196  1.0000
  Zn  Zn2       1.0  0.2991942188156642  0.21038016266211904  0.2719191534677563  1.0000
  Zn  Zn3       1.0  0.7991936878797861  0.2896229739690738  0.27191879403766717  1.0000
  Zn  Zn4       1.0  0.7008090933759945  0.7896214000454971  0.7280818038938792  1.0000
  H   H1        1.0  0.0352378125270008  0.872857637252444  0.807939501867246  1.0000
  H   H2        1.0  0.4647603611248953  0.3728560951213281  0.1920578578699974  1.0000
  H   H3        1.0  0.9647583264429329  0.12714206741085823  0.19206069917342464  1.0000
  H   H4        1.0  0.5352464679392668  0.627139893459585  0.8079382255389974  1.0000
  H   H5        1.0  0.2156028979106352  0.9288682882795811  0.8083725098876686  1.0000
  H   H6        1.0  0.2843965525815904  0.42886838836136565  0.19162195014710195  1.0000
  H   H7        1.0  0.7843920468909927  0.0711323454017432  0.19162766808377546  1.0000
  H   H8        1.0  0.7156090823142662  0.571128529237562  0.8083741101926665  1.0000
  H   H9        1.0  0.43224190534198215  0.7246845946909416  0.9832423322766888  1.0000
  H   H10       1.0  0.06775479615855322  0.22468700655433338  0.01675827077516351  1.0000
  H   H11       1.0  0.5677709191839639  0.27531510997516045  0.0167557201744657  1.0000
  H   H12       1.0  0.9322282725821438  0.7753164141918347  0.983246619650487  1.0000
  H   H13       1.0  0.34365284446353433  0.16615090227158186  0.950133593278622  1.0000
  H   H14       1.0  0.15634731028575286  0.6661531826454237  0.049866904778788516  1.0000
  H   H15       1.0  0.6563469262415396  0.8338534475002457  0.0498703843479404  1.0000
  H   H16       1.0  0.8436511924180011  0.3338520961261081  0.9501314887278342  1.0000
  H   H17       1.0  0.5137831173444312  0.18278023597544285  0.8882678098206469  1.0000
  H   H18       1.0  0.9862194607959721  0.6827870282593833  0.11173494171954702  1.0000
  H   H19       1.0  0.48621783931399415  0.8172129655695882  0.11173557296541503  1.0000
  H   H20       1.0  0.0137754593874675  0.3172071022842715  0.8882633825586483  1.0000
  H   H21       1.0  0.1661505653543429  0.17731436720882948  0.8133691412279804  1.0000
  H   H22       1.0  0.3338520187994192  0.6773224005144269  0.18663267199261216  1.0000
  H   H23       1.0  0.833849221748828  0.822681621397912  0.18663607217519035  1.0000
  H   H24       1.0  0.6661429095928212  0.32267637512523345  0.813366270187018  1.0000
  H   H25       1.0  0.4823095349199634  0.05830150246044497  0.7616865209508532  1.0000
  H   H26       1.0  0.0176962950810307  0.5582974246299912  0.23830944621060726  1.0000
  H   H27       1.0  0.5176902275783634  0.9417000602529625  0.23831683877703824  1.0000
  H   H28       1.0  0.9822986497164904  0.44169949297614847  0.7616907317553016  1.0000
  H   H29       1.0  0.2840160854248737  0.05524379733245868  0.7046796564343866  1.0000
  H   H30       1.0  0.2159897542338953  0.5552421860943325  0.29531753741954964  1.0000
  H   H31       1.0  0.7159848794423523  0.9447540493085849  0.2953243442531104  1.0000
  H   H32       1.0  0.7840075624980402  0.44475751856568724  0.7046814509026904  1.0000
  H   H33       1.0  0.24429511958236816  0.3732973739278761  0.5130360104496746  1.0000
  H   H34       1.0  0.2557054844010125  0.8732989263123939  0.48696448621474536  1.0000
  H   H35       1.0  0.7557046018996658  0.6267060468129485  0.48696425980836733  1.0000
  H   H36       1.0  0.7442954476587219  0.1267054234520728  0.5130370429043367  1.0000
  H   H37       1.0  0.2614538359338141  0.32355443328791006  0.6444534905733266  1.0000
  H   H38       1.0  0.23855019969676763  0.8235597473747233  0.3555438377925881  1.0000
  H   H39       1.0  0.7385458527294515  0.6764452713696015  0.3555443081010879  1.0000
  H   H40       1.0  0.7614566703980401  0.17644738944189697  0.6444553351056187  1.0000
  H   H41       1.0  0.32522066570825814  0.41655511017896885  0.7308763036243634  1.0000
  H   H42       1.0  0.17478002560136466  0.916560710389625  0.26912370389383267  1.0000
  H   H43       1.0  0.6747814194942662  0.5834418074257498  0.26912215908165393  1.0000
  H   H44       1.0  0.8252256585267544  0.0834454974094498  0.7308760638268978  1.0000
  H   H45       1.0  0.5040970985076001  0.541988225624628  0.6332070277022694  1.0000
  H   H46       1.0  0.9958967931201954  0.04198508082318849  0.36679390751918833  1.0000
  H   H47       1.0  0.49590377611826136  0.4580086919752446  0.366790176144093  1.0000
  H   H48       1.0  0.004101767004101498  0.958015552868609  0.6332088112421914  1.0000
  H   H49       1.0  0.4918176180019104  0.2741072807550751  0.5643043362562497  1.0000
  H   H50       1.0  0.008188688559243899  0.7741026300274352  0.4356922731785247  1.0000
  H   H51       1.0  0.5081796905243082  0.7258905658653203  0.435694034168705  1.0000
  H   H52       1.0  0.9918168478895382  0.2258915004907038  0.5642963724228097  1.0000
  H   H53       1.0  0.6485787727470439  0.39275231119471227  0.5483617474826589  1.0000
  H   H54       1.0  0.8514194349504363  0.8927425963553901  0.45163721140094293  1.0000
  H   H55       1.0  0.3514197217417633  0.6072427483680441  0.4516360281142369  1.0000
  H   H56       1.0  0.1485778161377951  0.10724410202523421  0.5483568337457569  1.0000
  C   C1        1.0  0.2731056658763933  0.5792759688090641  0.8711027021266916  1.0000
  C   C2        1.0  0.22689787133373332  0.0792793050885336  0.12889698869525296  1.0000
  C   C3        1.0  0.7269059562734697  0.4207209487978362  0.1288947093551869  1.0000
  C   C4        1.0  0.7730876021509162  0.9207222576256767  0.8711091836579073  1.0000
  C   C5        1.0  0.4612454383975262  0.62670474396662  0.991869533745458  1.0000
  C   C6        1.0  0.038752232698009  0.12670427786275704  0.0081301828737423  1.0000
  C   C7        1.0  0.5387673697251856  0.37329867677058814  0.008127282922181704  1.0000
  C   C8        1.0  0.9612308360416648  0.8732982138646147  0.9918747075505224  1.0000
  C   C9        1.0  0.3901370893278084  0.5386028876928606  0.9385928359174829  1.0000
  C   C10       1.0  0.10986516389456111  0.03860564252128279  0.061406710783074914  1.0000
  C   C11       1.0  0.6098733304531551  0.4613977459864031  0.06140393460478322  1.0000
  C   C12       1.0  0.8901190990154716  0.9613977782256667  0.9385982027131947  1.0000
  C   C13       1.0  0.42933634001802556  0.4122628818586733  0.945883132174693  1.0000
  C   C14       1.0  0.0706655277760788  0.9122660179912497  0.054116267741534316  1.0000
  C   C15       1.0  0.5706776786782796  0.5877377518270065  0.0541149433484591  1.0000
  C   C16       1.0  0.9293199128959558  0.08773740275240977  0.9458874330362905  1.0000
  C   C17       1.0  0.3854273440387175  0.20365057774846915  0.8914150438258305  1.0000
  C   C18       1.0  0.1145764924383244  0.7036550524912925  0.1085868708410516  1.0000
  C   C19       1.0  0.6145771951338685  0.7963481979116762  0.10858840818036701  1.0000
  C   C20       1.0  0.8854184523622806  0.2963446521712355  0.8914133071290069  1.0000
  C   C21       1.0  0.29291093553286635  0.15259698296254945  0.8179251345207988  1.0000
  C   C22       1.0  0.20709276359291104  0.6526020496068766  0.182074774519343  1.0000
  C   C23       1.0  0.7070900211306891  0.8474008636764621  0.18207824827217683  1.0000
  C   C24       1.0  0.7929009706310239  0.3473976550507983  0.8179241445910608  1.0000
  C   C25       1.0  0.35711626432722443  0.08581802498825648  0.7582659369225624  1.0000
  C   C26       1.0  0.14288846508773642  0.5858178335324027  0.24173256064594995  1.0000
  C   C27       1.0  0.6428835063716889  0.9141807506708017  0.2417380406957079  1.0000
  C   C28       1.0  0.8571076656764803  0.4141800130912826  0.7582670224974353  1.0000
  C   C29       1.0  0.8923196695290374  0.6596691158044266  0.6308446467088445  1.0000
  C   C30       1.0  0.6076864154640305  0.1596683151754945  0.3691562515657552  1.0000
  C   C31       1.0  0.107683626258364  0.34033523395550697  0.3691550748678979  1.0000
  C   C32       1.0  0.39232044641993724  0.8403323185075279  0.6308423034282457  1.0000
  C   C33       1.0  0.9551655886341733  0.5781243129218581  0.5652820238737348  1.0000
  C   C34       1.0  0.544833159473761  0.07812479770240799  0.4347191111826236  1.0000
  C   C35       1.0  0.04483533522086701  0.4218791078217804  0.4347188873494404  1.0000
  C   C36       1.0  0.455166586620301  0.9218795520633161  0.565283012760375  1.0000
  C   C37       1.0  0.0949572205781024  0.504610579124062  0.5748039582522964  1.0000
  C   C38       1.0  0.4050414078882056  0.004615142771861298  0.4251978896503985  1.0000
  C   C39       1.0  0.9050413149351967  0.49539005456163204  0.42519690682550504  1.0000
  C   C40       1.0  0.5949583217995523  0.9953901360085878  0.5748029985049287  1.0000
  C   C41       1.0  0.1362394949909174  0.4288228926606408  0.5091441171150066  1.0000
  C   C42       1.0  0.3637576408971697  0.9288245981927757  0.4908558576965306  1.0000
  C   C43       1.0  0.8637590323197344  0.5711786700418101  0.4908561300696591  1.0000
  C   C44       1.0  0.6362421051979225  0.07118068059173768  0.5091462662478464  1.0000
  C   C45       1.0  0.3070963980073387  0.41557383381069707  0.6633282090612199  1.0000
  C   C46       1.0  0.19290428292809034  0.91557618298674  0.3366711776371717  1.0000
  C   C47       1.0  0.6929021046892386  0.5844249418292761  0.3366701844357252  1.0000
  C   C48       1.0  0.8071014012000289  0.08443002481234169  0.663328590083559  1.0000
  C   C49       1.0  0.4581553565589759  0.4479528808365742  0.6224614921153988  1.0000
  C   C50       1.0  0.0418430239443168  0.9479525329953372  0.37753918059227237  1.0000
  C   C51       1.0  0.5418443238985731  0.5520449657813131  0.3775356886617304  1.0000
  C   C52       1.0  0.9581566975356707  0.05204902970790219  0.6224610896630055  1.0000
  C   C53       1.0  0.5371594103687798  0.3677849575218985  0.5764411591962999  1.0000
  C   C54       1.0  0.9628423000936766  0.867777976877285  0.42355594091261395  1.0000
  C   C55       1.0  0.4628390759173869  0.632211031057622  0.4235559985074532  1.0000
  C   C56       1.0  0.03715853350769289  0.1322133665996574  0.5764381734528358  1.0000
  O   O1        1.0  0.12759853344588382  0.5807586245815912  0.8795325391211437  1.0000
  O   O2        1.0  0.3724050398500864  0.0807592902597492  0.1204696276875481  1.0000
  O   O3        1.0  0.8724143156890065  0.4192392220530223  0.12046736701082493  1.0000
  O   O4        1.0  0.6275792394590738  0.91923669834091  0.879536521586701  1.0000
  O   O5        1.0  0.34242382321704673  0.6135742307878616  0.8029460148231495  1.0000
  O   O6        1.0  0.1575773931925326  0.11357886187210646  0.1970531140423404  1.0000
  O   O7        1.0  0.6575830140528396  0.3864236158326832  0.1970506864831307  1.0000
  O   O8        1.0  0.8424092662618888  0.8864264169160307  0.8029524634924314  1.0000
  O   O9        1.0  0.3561607055017078  0.3360868219143923  0.8875165210872924  1.0000
  O   O10       1.0  0.1438445929918117  0.8360922858343822  0.11248395712055981  1.0000
  O   O11       1.0  0.643852143635243  0.6639128827578059  0.1124833850474332  1.0000
  O   O12       1.0  0.8561396535088406  0.16390927687090334  0.8875197205838887  1.0000
  O   O13       1.0  0.9712216749156467  0.6833017632532687  0.6980732770605301  1.0000
  O   O14       1.0  0.5287797102063366  0.18330786006819005  0.30192945296016666  1.0000
  O   O15       1.0  0.028779240732653505  0.3166988704319563  0.3019270162639743  1.0000
  O   O16       1.0  0.4712260231458387  0.8167002057806839  0.6980740221304702  1.0000
  O   O17       1.0  0.7508351572373684  0.7034146318022819  0.6194358327620009  1.0000
  O   O18       1.0  0.7491745822422261  0.20340199591894495  0.38056341121723863  1.0000
  O   O19       1.0  0.2491717128646229  0.2965990081459039  0.3805633401458763  1.0000
  O   O20       1.0  0.25084063881374163  0.7965865605252131  0.6194353052530772  1.0000
  O   O21       1.0  0.18195504483264102  0.5082071034503172  0.6482563687514686  1.0000
  O   O22       1.0  0.3180388313082503  0.0082138690098361  0.3517466333649609  1.0000
  O   O23       1.0  0.8180446766442698  0.491791672196534  0.3517439014996598  1.0000
  O   O24       1.0  0.6819585264533004  0.9917960548670877  0.6482554444451054  1.0000
  O   O25       1.0  0.15272861052110895  0.8522882974473163  0.806708611129821  1.0000
  O   O26       1.0  0.3472682661136873  0.35228755367285897  0.193284339058529  1.0000
  O   O27       1.0  0.8472650580745055  0.14771233621288357  0.1932853648257691  1.0000
  O   O28       1.0  0.6527385793578162  0.6477084349121253  0.8067129801395083  1.0000
