data_image0
_chemical_formula_structural       Dy2H40C36N14O24
_chemical_formula_sum              "Dy2 H40 C36 N14 O24"
_cell_length_a       10.94509042788166
_cell_length_b       10.751323796897877
_cell_length_c       13.98017057050518
_cell_angle_alpha    82.59584177707252
_cell_angle_beta     66.66483241340556
_cell_angle_gamma    65.36886504538599

_space_group_name_H-M_alt    "P 1"
_space_group_IT_number       1

loop_
  _space_group_symop_operation_xyz
  'x, y, z'

loop_
  _atom_site_type_symbol
  _atom_site_label
  _atom_site_symmetry_multiplicity
  _atom_site_fract_x
  _atom_site_fract_y
  _atom_site_fract_z
  _atom_site_occupancy
  Dy  Dy1       1.0  0.280467949645228  0.38583286801851807  0.367670982265544  1.0000
  Dy  Dy2       1.0  0.7195326497409197  0.6141685300109359  0.6323300038501076  1.0000
  H   H1        1.0  0.06927321111262329  0.042559029195466294  0.08555529378332949  1.0000
  H   H2        1.0  0.9307258693666683  0.9574413072549457  0.9144462462988375  1.0000
  H   H3        1.0  0.41243016313740816  0.8027618471289839  0.8190652480379084  1.0000
  H   H4        1.0  0.5875708305003257  0.19723649229325696  0.18093374380445956  1.0000
  H   H5        1.0  0.6697224809773417  0.41492735505102013  0.45561023747193746  1.0000
  H   H6        1.0  0.33027673735215046  0.5850770827748307  0.544393043331354  1.0000
  H   H7        1.0  0.04913997704351665  0.3387865275083541  0.6341293817195677  1.0000
  H   H8        1.0  0.9508571750170913  0.6612138568559729  0.36586701492178264  1.0000
  H   H9        1.0  0.4244254901636281  0.16782531365517878  0.60160190476671  1.0000
  H   H10       1.0  0.5755726809090974  0.8321770707100526  0.3983997290398378  1.0000
  H   H11       1.0  0.39291972135362124  0.019927332984678994  0.6612198259758417  1.0000
  H   H12       1.0  0.6070774855097556  0.9800750753375098  0.33877923611029803  1.0000
  H   H13       1.0  0.3755318820295556  0.1494323501112262  0.7397739443904996  1.0000
  H   H14       1.0  0.6244619097153286  0.8505710257359171  0.2602260658008718  1.0000
  H   H15       1.0  0.9902973519283053  0.24274760209763707  0.7818880031244929  1.0000
  H   H16       1.0  0.009700243537729192  0.75725173692539  0.21810978272204548  1.0000
  H   H17       1.0  0.11516482635746433  0.18321838395337403  0.8468008528457318  1.0000
  H   H18       1.0  0.8848321596082801  0.8167778455757925  0.15319739324294088  1.0000
  H   H19       1.0  0.115092810769994  0.06628879973066398  0.7679206246190587  1.0000
  H   H20       1.0  0.8849072412541263  0.9337096064163074  0.2320729233681433  1.0000
  H   H21       1.0  0.12680834476930872  0.2116580566367645  0.2705955771678603  1.0000
  H   H22       1.0  0.8731881356527679  0.7883391006223093  0.7294091780862004  1.0000
  H   H23       1.0  0.6856255780785221  0.7518189311866407  0.9646765750238442  1.0000
  H   H24       1.0  0.31437702316242877  0.24818255792417432  0.035320220094661195  1.0000
  H   H25       1.0  0.8125981739341056  0.1497675079822898  0.19101700244349482  1.0000
  H   H26       1.0  0.18739909338097527  0.850236934989702  0.8089840070537377  1.0000
  H   H27       1.0  0.3730408911402634  0.019610540559391196  0.26928980723262447  1.0000
  H   H28       1.0  0.6269567478306753  0.9803908010376077  0.7307120801260751  1.0000
  H   H29       1.0  0.1909175598389227  0.8186696124196258  0.3748511003357038  1.0000
  H   H30       1.0  0.8090824904986462  0.18133071076577068  0.6251522934331816  1.0000
  H   H31       1.0  0.3530313779947818  0.7455146453915018  0.4000511485450815  1.0000
  H   H32       1.0  0.6469701968985716  0.2544867500648849  0.5999509732235995  1.0000
  H   H33       1.0  0.3552310583093715  0.826101553303367  0.27971738549537417  1.0000
  H   H34       1.0  0.6447665806615676  0.17389978829363167  0.7202845018633254  1.0000
  H   H35       1.0  0.09857215549309474  0.9346446518712667  0.5456804035699392  1.0000
  H   H36       1.0  0.9014279891897631  0.0653577701155967  0.4543206294079097  1.0000
  H   H37       1.0  0.09783498374608261  0.10365495182985995  0.5317536046711098  1.0000
  H   H38       1.0  0.9021637137794869  0.8963484646116485  0.4682484936169615  1.0000
  H   H39       1.0  0.23410651946567643  0.9666783897342838  0.5656918774230276  1.0000
  H   H40       1.0  0.7658941629678964  0.0333250857127538  0.434308183968966  1.0000
  C   C1        1.0  0.5702654323096964  0.31637770795135367  0.3467784807042875  1.0000
  C   C2        1.0  0.42973319346631195  0.6836236524564682  0.6532231062400625  1.0000
  C   C3        1.0  0.7251471841622462  0.2866018267574829  0.3249516854882089  1.0000
  C   C4        1.0  0.2748548680301184  0.7133985875092677  0.6750475172835309  1.0000
  C   C5        1.0  0.9381078766254732  0.37866283299612036  0.44200700994915115  1.0000
  C   C6        1.0  0.06189370391680881  0.6213385731522081  0.5579943937858474  1.0000
  C   C7        1.0  0.9024541652986715  0.31618765096533247  0.37152761862440536  1.0000
  C   C8        1.0  0.09754733784511418  0.6838116884573608  0.6284739918005614  1.0000
  C   C9        1.0  0.32847408937644246  0.9337030975970957  0.05564327145443567  1.0000
  C   C10       1.0  0.6715333402466968  0.066296365382442  0.9443558184507452  1.0000
  C   C11       1.0  0.7573592171341019  0.3454964941166805  0.3905688808464162  1.0000
  C   C12       1.0  0.24263941429083505  0.6545048769830827  0.6094319880642515  1.0000
  C   C13       1.0  0.16667954849111769  0.29323739821564493  0.6167400599601861  1.0000
  C   C14       1.0  0.8333227036897026  0.7067672350379296  0.38325298516209483  1.0000
  C   C15       1.0  0.3592944031267109  0.1308180710711113  0.6710627097630351  1.0000
  C   C16       1.0  0.6407028754862341  0.8691863932847705  0.32893686366681857  1.0000
  C   C17       1.0  0.10027887059738562  0.17265424581329109  0.7754414635830429  1.0000
  C   C18       1.0  0.8997196399241499  0.8273430559868659  0.2245555105054251  1.0000
  C   C19       1.0  0.014956656083093418  0.22924594495058406  0.287403822329928  1.0000
  C   C20       1.0  0.9850447640132602  0.7707513170545253  0.7125987128187035  1.0000
  C   C21       1.0  0.9816695826142662  0.16705442097865839  0.22458717888072505  1.0000
  C   C22       1.0  0.01832886576901409  0.8329427632101131  0.7754176935783262  1.0000
  C   C23       1.0  0.30249487443405343  0.9001594538000575  0.9693529515603885  1.0000
  C   C24       1.0  0.6975109814794606  0.09983692364257728  0.03064402686651858  1.0000
  C   C25       1.0  0.5627786609084142  0.769594197512319  0.881751368876273  1.0000
  C   C26       1.0  0.43722116288259366  0.23039993618810684  0.1182519269288349  1.0000
  C   C27       1.0  0.47567496549226695  0.8753867868815348  0.055975997591886616  1.0000
  C   C28       1.0  0.5243289998585398  0.12461163035704458  0.9440206569400615  1.0000
  C   C29       1.0  0.8370372594699872  0.1967845785877032  0.24195303101060264  1.0000
  C   C30       1.0  0.1629632681665925  0.8032147634080572  0.7580474437613347  1.0000
  C   C31       1.0  0.31012281004749553  0.050226087908569604  0.3526429358949912  1.0000
  C   C32       1.0  0.6898749837204363  0.9497793871397063  0.647358538083772  1.0000
  C   C33       1.0  0.29054323534211346  0.830785933678804  0.3632687516835277  1.0000
  C   C34       1.0  0.7094553847849595  0.16921541603707618  0.636733553294512  1.0000
  C   C35       1.0  0.16616820472615523  0.9935621930310531  0.519416162007296  1.0000
  C   C36       1.0  0.833830881402072  0.0064381541113007965  0.4805846600411813  1.0000
  N   N1        1.0  0.09166576826179812  0.0727329201726192  0.1425303696495419  1.0000
  N   N2        1.0  0.9083327801157138  0.9272663735095676  0.8574714239847835  1.0000
  N   N3        1.0  0.225789390079747  0.0192476801646251  0.1354470668020369  1.0000
  N   N4        1.0  0.7742145526753318  0.9807506943061806  0.8645524598646617  1.0000
  N   N5        1.0  0.42293126502243444  0.8207444689115206  0.8871826363532307  1.0000
  N   N6        1.0  0.5770736040860099  0.17925188972029815  0.11281464248802577  1.0000
  N   N7        1.0  0.20705905638811126  0.20375975376283145  0.6853885498009474  1.0000
  N   N8        1.0  0.7929356391144111  0.7962415634775438  0.31461208469973906  1.0000
  N   N9        1.0  0.5814515618287075  0.79122579905016  0.9688580200272057  1.0000
  N   N10       1.0  0.41855339032716893  0.2087726369992353  0.03113833409038595  1.0000
  N   N11       1.0  0.29987996103988485  0.5869733394450876  0.20575191573468027  1.0000
  N   N12       1.0  0.7001215098968601  0.4130240187875173  0.7942441571107395  1.0000
  N   N13       1.0  0.2550226984810919  0.9620523336879147  0.40880706585600285  1.0000
  N   N14       1.0  0.7449764593967032  0.03795006948812579  0.5911942675361885  1.0000
  O   O1        1.0  0.5422722179627043  0.23867140937367992  0.3022228927434369  1.0000
  O   O2        1.0  0.45772413429687486  0.7613350708211825  0.697778928511859  1.0000
  O   O3        1.0  0.46869032470706173  0.4143237895248432  0.4083739748102602  1.0000
  O   O4        1.0  0.5313093596235844  0.5856796457274811  0.5916278230634618  1.0000
  O   O5        1.0  0.8489233591251236  0.4075751630063138  0.5360820817526674  1.0000
  O   O6        1.0  0.1510742628990158  0.5924261465148533  0.46392195970710765  1.0000
  O   O7        1.0  0.6695284365545928  0.7067661944456844  0.8031901985982443  1.0000
  O   O8        1.0  0.3304775588192825  0.2932208814450519  0.1968082777600415  1.0000
  O   O9        1.0  0.054836432462131886  0.39708685536608357  0.4026245665580602  1.0000
  O   O10       1.0  0.9451621046175164  0.6029124169322131  0.597378663143644  1.0000
  O   O11       1.0  0.17890642291686026  0.9435901201137824  0.9661390450925893  1.0000
  O   O12       1.0  0.8210937443617253  0.0564123446408544  0.033859115750502204  1.0000
  O   O13       1.0  0.5123144018980029  0.8968434339825109  0.12328777706475347  1.0000
  O   O14       1.0  0.48769238998018943  0.1031528660434446  0.8767153632510087  1.0000
  O   O15       1.0  0.2905178608970473  0.15861896546807938  0.3920167368159682  1.0000
  O   O16       1.0  0.7094787251681893  0.8413803119763513  0.6079842215796774  1.0000
  O   O17       1.0  0.2543841659815698  0.3249485368813296  0.538785258374709  1.0000
  O   O18       1.0  0.745612480535364  0.6750527752129046  0.4612176474320293  1.0000
  O   O19       1.0  0.40841635176700913  0.5111415564197157  0.23060308899908222  1.0000
  O   O20       1.0  0.5915832834097969  0.4888598655666954  0.7693953253961682  1.0000
  O   O21       1.0  0.30685364221258743  0.6744922201834171  0.13906520563416083  1.0000
  O   O22       1.0  0.6931501417831143  0.32550009310575223  0.8609256066644946  1.0000
  O   O23       1.0  0.1827210945237496  0.5672858121001099  0.2545347570102905  1.0000
  O   O24       1.0  0.817278019849134  0.4327145885019659  0.7454624748697399  1.0000
