data_image0
_chemical_formula_structural       Zn2H32C68N4O24
_chemical_formula_sum              "Zn2 H32 C68 N4 O24"
_cell_length_a       14.512499044987202
_cell_length_b       15.220635319634749
_cell_length_c       27.932928194290472
_cell_angle_alpha    92.68217389647118
_cell_angle_beta     89.64518434789042
_cell_angle_gamma    90.21365685658137

_space_group_name_H-M_alt    "P 1"
_space_group_IT_number       1

loop_
  _space_group_symop_operation_xyz
  'x, y, z'

loop_
  _atom_site_type_symbol
  _atom_site_label
  _atom_site_symmetry_multiplicity
  _atom_site_fract_x
  _atom_site_fract_y
  _atom_site_fract_z
  _atom_site_occupancy
  Zn  Zn1       1.0  0.40002637747348047  0.5005955175018215  0.4993750717783811  1.0000
  Zn  Zn2       1.0  0.6032194843034373  0.5008345334786101  0.5017542117327523  1.0000
  H   H1        1.0  0.6642220187474237  0.5554167230985527  0.3493988927290275  1.0000
  H   H2        1.0  0.6526759413435811  0.4601668458685212  0.6548420044745384  1.0000
  H   H3        1.0  0.345104150355013  0.2228464342612142  0.5272569716005577  1.0000
  H   H4        1.0  0.626742003394689  0.7771543710282246  0.5183213390905976  1.0000
  H   H5        1.0  0.3446623918925624  0.7765490196702205  0.4738710678429499  1.0000
  H   H6        1.0  0.6218197006876807  0.22736134842529765  0.4725990869903711  1.0000
  H   H7        1.0  0.47686802871785255  0.27872332033609143  0.1216174160940398  1.0000
  H   H8        1.0  0.5001992661425874  0.7055813343880004  0.8795893843147624  1.0000
  H   H9        1.0  0.34955133700243823  0.5107811388116802  0.7359559774059647  1.0000
  H   H10       1.0  0.38355153211801946  0.45450941713355775  0.2612468640390873  1.0000
  H   H11       1.0  0.4701036260365044  0.27105322521885  0.0330393705588108  1.0000
  H   H12       1.0  0.5127878656580194  0.7117298424233452  0.968149437330787  1.0000
  H   H13       1.0  0.9333658961262046  0.43806129146393863  0.4279856646109436  1.0000
  H   H14       1.0  0.06832325758271199  0.6289055181614103  0.5352201463988706  1.0000
  H   H15       1.0  0.9381592887711889  0.5614261207983091  0.5703638089107343  1.0000
  H   H16       1.0  0.0688764647798052  0.3742275391731624  0.4603665353910458  1.0000
  H   H17       1.0  0.7441733454396343  0.396554403340673  0.3577614144844077  1.0000
  H   H18       1.0  0.2582452144490616  0.7618009128599539  0.557984178934646  1.0000
  H   H19       1.0  0.6778419744691604  0.6679783182574042  0.6011804418804303  1.0000
  H   H20       1.0  0.2616821683821797  0.24080882115834612  0.44113985708276726  1.0000
  H   H21       1.0  0.6611242758514492  0.5550089334966374  0.2596801015405248  1.0000
  H   H22       1.0  0.6386805087755788  0.45228035575259906  0.74410192571073  1.0000
  H   H23       1.0  0.36397003338342415  0.5173273470923833  0.646269310123408  1.0000
  H   H24       1.0  0.3869256671416679  0.45685783293574644  0.35113415762624817  1.0000
  H   H25       1.0  0.5455439088610491  0.14740734410533207  0.8383615957798582  1.0000
  H   H26       1.0  0.5415732141688565  0.8473738632596267  0.1509965913688518  1.0000
  H   H27       1.0  0.4829954530672822  0.2661535441900043  0.9627513430846548  1.0000
  H   H28       1.0  0.5562451693047592  0.7096591129737889  0.0351612786434856  1.0000
  H   H29       1.0  0.3495690469284368  0.05901217100445421  0.527107600387744  1.0000
  H   H30       1.0  0.6299497175786255  0.9413903376800474  0.5187433950219571  1.0000
  H   H31       1.0  0.34749399558166527  0.9402170626355685  0.4723553193994334  1.0000
  H   H32       1.0  0.6261146073308979  0.06304189844227182  0.4701655391203232  1.0000
  C   C1        1.0  0.47989722664868134  0.3324658688367848  0.49912934486449256  1.0000
  C   C2        1.0  0.4820007072389815  0.669523946329683  0.49981557646060537  1.0000
  C   C3        1.0  0.5144637508259038  0.49506166443289606  0.1020124187806672  1.0000
  C   C4        1.0  0.49258054169136756  0.48578277863847324  0.8976095362451133  1.0000
  C   C5        1.0  0.5020943552175794  0.4170191835107531  0.1269960002882158  1.0000
  C   C6        1.0  0.49407087783352915  0.5654814837106129  0.8733475642113717  1.0000
  C   C7        1.0  0.48612448149567195  0.3378594013682132  0.1015316752286708  1.0000
  C   C8        1.0  0.5003727368671987  0.6453848826336639  0.8992549391440222  1.0000
  C   C9        1.0  0.5327211425490219  0.575362522594702  0.1279972353115113  1.0000
  C   C10       1.0  0.48610367015808714  0.40433494781184015  0.8709912873832196  1.0000
  C   C11       1.0  0.5261232630361192  0.5049936603644697  0.3552939673623712  1.0000
  C   C12       1.0  0.5088062587662918  0.4889696022969973  0.6456492909885795  1.0000
  C   C13       1.0  0.4930327143869775  0.40741086042758945  0.9728416539116012  1.0000
  C   C14       1.0  0.5204067780348893  0.5721155393166129  0.026515608524825  1.0000
  C   C15       1.0  0.5089457669167459  0.5707740926865127  0.9745122909082085  1.0000
  C   C16       1.0  0.49453550078537495  0.40991958208617524  0.0253077111701572  1.0000
  C   C17       1.0  0.4982642649411559  0.4880840426830416  0.9487387055413308  1.0000
  C   C18       1.0  0.5095007603752677  0.4922297558136535  0.05085574066967521  1.0000
  C   C19       1.0  0.48624877784909154  0.32862751497421533  0.9453621510072595  1.0000
  C   C20       1.0  0.5427235249190971  0.6490595593057478  0.053240389458928006  1.0000
  C   C21       1.0  0.48409203112028365  0.3262104024286643  0.895105059196368  1.0000
  C   C22       1.0  0.5496095346172324  0.6513116113436014  0.10331309094995329  1.0000
  C   C23       1.0  0.527379450326066  0.503707496217892  0.4089060570642928  1.0000
  C   C24       1.0  0.5163637445382108  0.4952875752950164  0.5924195492877686  1.0000
  C   C25       1.0  0.4826722225568858  0.3344684403205492  0.0515266528666558  1.0000
  C   C26       1.0  0.5079104077454701  0.6478512069803275  0.9490916390795618  1.0000
  C   C27       1.0  0.4085230329840073  0.09557207823157648  0.5138741801971634  1.0000
  C   C28       1.0  0.5673872900469449  0.9054527245367723  0.5085121571720919  1.0000
  C   C29       1.0  0.40820130938443805  0.9048083958824408  0.48368172304910934  1.0000
  C   C30       1.0  0.5647193051481948  0.09785696915673729  0.4832901524630557  1.0000
  C   C31       1.0  0.40585560215944844  0.1868898643602677  0.514387179643137  1.0000
  C   C32       1.0  0.5658309507831305  0.8140856979166315  0.508847296114908  1.0000
  C   C33       1.0  0.40634779684086203  0.8135610559631914  0.4841909597873553  1.0000
  C   C34       1.0  0.5626446702568443  0.1893021705995821  0.48415093783393104  1.0000
  C   C35       1.0  0.4827459566994321  0.23434563079612053  0.499197504898838  1.0000
  C   C36       1.0  0.4848223373716607  0.7674198775370443  0.4974902154464687  1.0000
  C   C37       1.0  0.4875789870093143  0.04943357652704349  0.4978227238388797  1.0000
  C   C38       1.0  0.4881787342894056  0.952518576834372  0.49658365262856563  1.0000
  C   C39       1.0  0.8999415559291463  0.4648943173442107  0.46045425183436356  1.0000
  C   C40       1.0  0.1031261853191836  0.5715706107761918  0.5189742385918521  1.0000
  C   C41       1.0  0.9028539785091071  0.5352783586706805  0.5384641688393472  1.0000
  C   C42       1.0  0.10335397472302789  0.431832445570663  0.4765595429743854  1.0000
  C   C43       1.0  0.804003438743777  0.46252404801003877  0.4638888658096789  1.0000
  C   C44       1.0  0.19911141043659333  0.5678363936433043  0.519809306256434  1.0000
  C   C45       1.0  0.8067333054285867  0.535418141240747  0.5380017275331639  1.0000
  C   C46       1.0  0.19945398025993907  0.4353957066973565  0.4763944837204336  1.0000
  C   C47       1.0  0.9515499027693651  0.5009119907695095  0.4986725140677493  1.0000
  C   C48       1.0  0.05311343100164829  0.5015850989026376  0.4977698099372603  1.0000
  C   C49       1.0  0.5071014325224183  0.41759885501817  0.17988814756984084  1.0000
  C   C50       1.0  0.4910334292357845  0.5656181888698485  0.8204594307957649  1.0000
  C   C51       1.0  0.533275833414031  0.5800801227461959  0.1808827842906311  1.0000
  C   C52       1.0  0.4817722895005829  0.40144023608382173  0.8180564388579512  1.0000
  C   C53       1.0  0.444731096180938  0.4767486356945057  0.2807623902720096  1.0000
  C   C54       1.0  0.4153558282868914  0.498944298713589  0.7177876543399364  1.0000
  C   C55       1.0  0.4464628218441078  0.4778223428317077  0.3305818940490682  1.0000
  C   C56       1.0  0.4231557820142768  0.5025299519639931  0.6682388010009888  1.0000
  C   C57       1.0  0.6033937907253273  0.5328553427655579  0.3297016062948899  1.0000
  C   C58       1.0  0.5865250898334223  0.470331855331196  0.6728293311484137  1.0000
  C   C59       1.0  0.6018079803323316  0.5322973097997946  0.2798136151882886  1.0000
  C   C60       1.0  0.5788224192230872  0.46630182605024123  0.7223791210353028  1.0000
  C   C61       1.0  0.5226135521967379  0.5033787168700528  0.2556144575424995  1.0000
  C   C62       1.0  0.4935007645837217  0.48138080334543804  0.744420635773551  1.0000
  C   C63       1.0  0.7553848215859273  0.40765185728919556  0.4252375585165709  1.0000
  C   C64       1.0  0.24673674402615833  0.6380392282209825  0.5507527931916982  1.0000
  C   C65       1.0  0.7624974314026858  0.5786770988751756  0.5821522633637102  1.0000
  C   C66       1.0  0.24828305911160697  0.36454165475704786  0.4463421609928843  1.0000
  C   C67       1.0  0.4750852136828101  0.23713009070090152  0.8697269890285639  1.0000
  C   C68       1.0  0.5824545928308141  0.7355380258856101  0.1281059971503282  1.0000
  N   N1        1.0  0.5210299454558013  0.5004565571446592  0.2039051200666506  1.0000
  N   N2        1.0  0.4880291905068646  0.4824171369864203  0.7961175931236468  1.0000
  N   N3        1.0  0.75654411084426  0.49886994921502753  0.5016235264874993  1.0000
  N   N4        1.0  0.2478618198052089  0.5014811341887154  0.49832974934545865  1.0000
  O   O1        1.0  0.4000753438021363  0.3682647427194255  0.5012769814596609  1.0000
  O   O2        1.0  0.5578860157824012  0.6304468469375452  0.5055040380574667  1.0000
  O   O3        1.0  0.4025911972169851  0.6327933224017243  0.4962603984045373  1.0000
  O   O4        1.0  0.5562742470249235  0.37267713346511766  0.4968873071757898  1.0000
  O   O5        1.0  0.4504143623381154  0.49583432808212546  0.4298427585558002  1.0000
  O   O6        1.0  0.5974211216448495  0.49321483300227004  0.5739123936901294  1.0000
  O   O7        1.0  0.441869485836854  0.5028625179390858  0.5696319138694932  1.0000
  O   O8        1.0  0.6060106455025007  0.5102212647620803  0.4294765922379753  1.0000
  O   O9        1.0  0.4996028168736046  0.35032174088201645  0.20236114773586422  1.0000
  O   O10       1.0  0.4924570928660756  0.6335011849437606  0.7982740259909207  1.0000
  O   O11       1.0  0.4736029820639729  0.3320390235248354  0.7939831655487168  1.0000
  O   O12       1.0  0.5430967752002331  0.6503037202611921  0.2040609833349123  1.0000
  O   O13       1.0  0.7122636442169037  0.3413012993048667  0.433085937475866  1.0000
  O   O14       1.0  0.7774046504473162  0.4349843486513053  0.3810468117486323  1.0000
  O   O15       1.0  0.28906743072388247  0.6227685747622473  0.5867405668512973  1.0000
  O   O16       1.0  0.2257140680358987  0.7195338537502708  0.5364470726277872  1.0000
  O   O17       1.0  0.7821819881318532  0.5571594864220232  0.6222919806725784  1.0000
  O   O18       1.0  0.7093098531816794  0.6471407850566635  0.5716181834476899  1.0000
  O   O19       1.0  0.2920619252241252  0.3791555798312772  0.4103926165096182  1.0000
  O   O20       1.0  0.22687574112182318  0.2835550780284991  0.4614212743910571  1.0000
  O   O21       1.0  0.4028684926920292  0.1961432161114587  0.8675624680013954  1.0000
  O   O22       1.0  0.5578771875792442  0.2044504758955199  0.854941852840696  1.0000
  O   O23       1.0  0.663463917291793  0.7508512092696408  0.1361730332770321  1.0000
  O   O24       1.0  0.5137662476755339  0.7951190167884549  0.1349443885435733  1.0000
