data_image0
_chemical_formula_structural       Zn4H24C32N12Cl4
_chemical_formula_sum              "Zn4 H24 C32 N12 Cl4"
_cell_length_a       8.77069518184199
_cell_length_b       8.539099782710123
_cell_length_c       16.917175425159137
_cell_angle_alpha    90.00089315608066
_cell_angle_beta     89.99931248947716
_cell_angle_gamma    133.01476527758552

_space_group_name_H-M_alt    "P 1"
_space_group_IT_number       1

loop_
  _space_group_symop_operation_xyz
  'x, y, z'

loop_
  _atom_site_type_symbol
  _atom_site_label
  _atom_site_symmetry_multiplicity
  _atom_site_fract_x
  _atom_site_fract_y
  _atom_site_fract_z
  _atom_site_occupancy
  Zn  Zn1       1.0  0.8020242755888775  0.4625114082671332  0.5561113949621089  1.0000
  Zn  Zn2       1.0  0.6979725323912619  0.037487100758632236  0.056113104616372304  1.0000
  Zn  Zn3       1.0  0.19797075508541442  0.537489863945453  0.44388980515267923  1.0000
  Zn  Zn4       1.0  0.30204061403212273  0.9625119120242192  0.9438869131832847  1.0000
  H   H1        1.0  0.7414769407994797  0.6995072073249275  0.4376649579608555  1.0000
  H   H2        1.0  0.7584995385521153  0.8004681688666081  0.937673595933916  1.0000
  H   H3        1.0  0.25852179150124505  0.30049451038694036  0.5623368332649576  1.0000
  H   H4        1.0  0.24150687758982767  0.19953299380775044  0.062326421916125724  1.0000
  H   H5        1.0  0.12376272123903935  0.6851744316870809  0.2818065825273735  1.0000
  H   H6        1.0  0.3762779206899084  0.8148614848108198  0.7818084565132255  1.0000
  H   H7        1.0  0.8762431340206477  0.3148296234030426  0.7181940264812781  1.0000
  H   H8        1.0  0.6237153152484751  0.1851425313432244  0.2181927436463482  1.0000
  H   H9        1.0  0.9795231405840779  0.7300242989014051  0.16998113949478014  1.0000
  H   H10       1.0  0.5205144373521196  0.7700057226672288  0.6699896733460734  1.0000
  H   H11       1.0  0.02048215389152118  0.2699826487190293  0.8300182873268086  1.0000
  H   H12       1.0  0.4794922589528313  0.22999399347472155  0.3300150734040913  1.0000
  H   H13       1.0  0.8665448114729984  0.8282800454233837  0.0657816819380201  1.0000
  H   H14       1.0  0.6334772127670121  0.6717468561364371  0.5657873195792719  1.0000
  H   H15       1.0  0.13345902464341464  0.17171488672925517  0.934219518059905  1.0000
  H   H16       1.0  0.3665244921058815  0.3282655792142038  0.4342144717927852  1.0000
  H   H17       1.0  0.5480983177672697  0.8883251882954256  0.22542181580745085  1.0000
  H   H18       1.0  0.951893301228914  0.611642559102421  0.7254351195950195  1.0000
  H   H19       1.0  0.45189390909582994  0.11165798724189815  0.7745699262103899  1.0000
  H   H20       1.0  0.048101168661290175  0.3883616056404691  0.27456489833269876  1.0000
  H   H21       1.0  0.663591093829183  0.8108633628801771  0.33852139732483283  1.0000
  H   H22       1.0  0.836386602409462  0.6890970061258559  0.8385299176872536  1.0000
  H   H23       1.0  0.3364018057435559  0.18912285324179126  0.6614762558872584  1.0000
  H   H24       1.0  0.1635900887955088  0.3108946594392706  0.1614606422673859  1.0000
  C   C1        1.0  0.841326709208076  0.6820160814687385  0.41024376528327633  1.0000
  C   C2        1.0  0.658652525634672  0.8179642833658892  0.9102487533910948  1.0000
  C   C3        1.0  0.15865710449777745  0.3179779209401446  0.5897538880673778  1.0000
  C   C4        1.0  0.34134923541923  0.18203483906972198  0.08975067332762171  1.0000
  C   C5        1.0  0.9062077968539981  0.7166648513197132  0.3309063667759204  1.0000
  C   C6        1.0  0.5937924479917029  0.7833213139212846  0.8309089535506333  1.0000
  C   C7        1.0  0.0937839808233605  0.2833271494810745  0.6690948332143096  1.0000
  C   C8        1.0  0.40620409692829906  0.21667866050044896  0.1690934287715109  1.0000
  C   C9        1.0  0.03435998199331906  0.6725358463706431  0.3301179133010877  1.0000
  C   C10       1.0  0.46566566497413237  0.8274719488887288  0.8301155004550509  1.0000
  C   C11       1.0  0.9656587165369575  0.3274801140000108  0.6698897892253373  1.0000
  C   C12       1.0  0.5343233643420932  0.17252120092315693  0.16988865513580725  1.0000
  C   C13       1.0  0.8394312761736061  0.7682211874080239  0.26575162726668117  1.0000
  C   C14       1.0  0.6605736016299417  0.7317671636802247  0.7657570700591521  1.0000
  C   C15       1.0  0.16056644659374802  0.23175968915261086  0.7342489814305824  1.0000
  C   C16       1.0  0.3394205877700501  0.26823844721327833  0.2342441301207145  1.0000
  C   C17       1.0  0.8881682146471733  0.7685359890136212  0.1865095399404737  1.0000
  C   C18       1.0  0.6118397150352309  0.7314855893346535  0.6865164363951595  1.0000
  C   C19       1.0  0.11182698439544943  0.23145790370431749  0.8134892956063382  1.0000
  C   C20       1.0  0.38816473810062757  0.26852569689034317  0.3134841727219496  1.0000
  C   C21       1.0  0.8231022377461629  0.8227753777707038  0.1268179212009031  1.0000
  C   C22       1.0  0.676916618677268  0.6772381512585286  0.6268264236059764  1.0000
  C   C23       1.0  0.17690855312449832  0.17722927144573225  0.8731815055716867  1.0000
  C   C24       1.0  0.3230913115467827  0.3227617134340903  0.3731777320275569  1.0000
  C   C25       1.0  0.6493984422673976  0.8585550395583896  0.21602118045341007  1.0000
  C   C26       1.0  0.8505896751173838  0.6414178160350021  0.716023512912159  1.0000
  C   C27       1.0  0.35060539414350705  0.14143989293786063  0.7839746995074606  1.0000
  C   C28       1.0  0.14938224841957753  0.3585658754128503  0.2839735492085182  1.0000
  C   C29       1.0  0.7128833089010485  0.8119216822502651  0.2790757681163569  1.0000
  C   C30       1.0  0.7871231220377269  0.6880623517575161  0.779088679219413  1.0000
  C   C31       1.0  0.2871104320441518  0.18806019530531873  0.7209201116849827  1.0000
  C   C32       1.0  0.2128646737193236  0.31193064992367436  0.2209095652205804  1.0000
  N   N1        1.0  0.9202877636780897  0.6180187979781949  0.45211130571181724  1.0000
  N   N2        1.0  0.5796907064226958  0.8819817843375051  0.9521109119111204  1.0000
  N   N3        1.0  0.07969986387423221  0.3819815833885372  0.5478863477200022  1.0000
  N   N4        1.0  0.4203226643753339  0.11802909528611145  0.047889106059273004  1.0000
  N   N5        1.0  0.04025445296480256  0.6120972457225095  0.40265927533404533  1.0000
  N   N6        1.0  0.45975839628274423  0.8879257651198885  0.9026509578915027  1.0000
  N   N7        1.0  0.9597524676166176  0.38791433714566653  0.5973472449325429  1.0000
  N   N8        1.0  0.5402481318829118  0.11208133078395831  0.09735201562004651  1.0000
  N   N9        1.0  0.7069108313924913  0.8705846677167628  0.14043114698275622  1.0000
  N   N10       1.0  0.7930885705880613  0.6294219827531722  0.6404381918216729  1.0000
  N   N11       1.0  0.29309681893031586  0.12941664381369836  0.8595635508288313  1.0000
  N   N12       1.0  0.20691891123554024  0.37058670811921246  0.35956123501880205  1.0000
  Cl  Cl1       1.0  0.460997485230088  0.17777572376666487  0.5342021232423022  1.0000
  Cl  Cl2       1.0  0.03900625519727897  0.3222372391631296  0.0341999666608004  1.0000
  Cl  Cl3       1.0  0.53900960401414  0.8222284799504821  0.4657967124192696  1.0000
  Cl  Cl4       1.0  0.9609976933354999  0.6777636266771482  0.9657970956159051  1.0000
