data_image0
_chemical_formula_structural       Zn2H20C31N2O9
_chemical_formula_sum              "Zn2 H20 C31 N2 O9"
_cell_length_a       9.757543119794319
_cell_length_b       11.007736622689361
_cell_length_c       14.034190312573442
_cell_angle_alpha    94.10858279631685
_cell_angle_beta     97.59995644708098
_cell_angle_gamma    90.949021011699

_space_group_name_H-M_alt    "P 1"
_space_group_IT_number       1

loop_
  _space_group_symop_operation_xyz
  'x, y, z'

loop_
  _atom_site_type_symbol
  _atom_site_label
  _atom_site_symmetry_multiplicity
  _atom_site_fract_x
  _atom_site_fract_y
  _atom_site_fract_z
  _atom_site_occupancy
  Zn  Zn1       1.0  0.35742970413296854  0.49548957870076277  0.493390985421314  1.0000
  Zn  Zn2       1.0  0.6457802334871161  0.5064126030866518  0.49921528040108837  1.0000
  H   H1        1.0  0.34656164605644346  0.4911035633196336  0.9725038684784476  1.0000
  H   H2        1.0  0.7138774633879519  0.3260934925126405  0.3681093825905605  1.0000
  H   H3        1.0  0.8141308215422142  0.1853383624798823  0.25205687305265906  1.0000
  H   H4        1.0  0.06823530811344367  0.1899302189447809  0.24452496512819974  1.0000
  H   H5        1.0  0.22339536342520452  0.3315140931590292  0.35583066689565607  1.0000
  H   H6        1.0  0.15698127306742998  0.6249937853075808  0.5988982321310417  1.0000
  H   H7        1.0  0.6649072644181828  0.5079249416001091  0.02025479774093238  1.0000
  H   H8        1.0  0.2437462905815906  0.2239293969651399  0.5313288310592766  1.0000
  H   H9        1.0  0.0203671163230794  0.11216102804861801  0.4965199349248122  1.0000
  H   H10       1.0  0.012925633247640197  0.8898939248575886  0.4440144232233435  1.0000
  H   H11       1.0  0.2314554300460188  0.7781415555670605  0.44965125144677387  1.0000
  H   H12       1.0  0.7119423607192132  0.8894858322773943  0.5390229817624785  1.0000
  H   H13       1.0  0.8968782469331699  0.6303167111696409  0.5991961457012208  1.0000
  H   H14       1.0  0.9294450091825439  0.13265604950829157  0.6464781984568545  1.0000
  H   H15       1.0  0.80459312298818  0.026031603730096695  0.6752729287068531  1.0000
  H   H16       1.0  0.7824825302096554  0.3048508931722438  0.6927900071238255  1.0000
  H   H17       1.0  0.6526561635810848  0.201980016043052  0.7154282821124905  1.0000
  H   H18       1.0  0.8141756054419245  0.11945552722805533  0.8498232307909461  1.0000
  H   H19       1.0  0.797688811110376  0.2793832799282399  0.8697487230885128  1.0000
  H   H20       1.0  0.9483369447766207  0.2201702432902621  0.8271461863993536  1.0000
  C   C1        1.0  0.5085168704229871  0.2681307067393276  0.5064879890718997  1.0000
  C   C2        1.0  0.44902982358961196  0.4974116955738451  0.20504057373625528  1.0000
  C   C3        1.0  0.2417842071164742  0.12683302820882147  0.5117443020178739  1.0000
  C   C4        1.0  0.11654405339620408  0.06399317085713112  0.4924593588470998  1.0000
  C   C5        1.0  0.11215933617710049  0.9381274164988652  0.46514221686701507  1.0000
  C   C6        1.0  0.23377308506103833  0.8758395410922188  0.4672837011688671  1.0000
  C   C7        1.0  0.36468282633487786  0.9366109358085026  0.49363290097044643  1.0000
  C   C8        1.0  0.3697350258326749  0.06772570801551579  0.5072139297993842  1.0000
  C   C9        1.0  0.5013887582570503  0.1337965124455138  0.5193676227447952  1.0000
  C   C10       1.0  0.6221608933490687  0.06689020844412849  0.5348431532597643  1.0000
  C   C11       1.0  0.6155152173151706  0.9383705792298898  0.5288185927274469  1.0000
  C   C12       1.0  0.4582258821979934  0.4995330047833662  0.3086336132246926  1.0000
  C   C13       1.0  0.4922600034496084  0.8729753707519876  0.5064741032508309  1.0000
  C   C14       1.0  0.824334791040215  0.3269659863734589  0.36516865053743425  1.0000
  C   C15       1.0  0.8812496658574529  0.2496056294780402  0.3004314123794528  1.0000
  C   C16       1.0  0.025152438974998897  0.25237875515692565  0.29590293953912544  1.0000
  C   C17       1.0  0.11252369108781578  0.3313644140236534  0.35715828666271676  1.0000
  C   C18       1.0  0.0576266306476469  0.4114222912984147  0.42493628171369824  1.0000
  C   C19       1.0  0.9107208965018426  0.41106774104401483  0.42775913358016027  1.0000
  C   C20       1.0  0.9424924915331089  0.567024849055649  0.5496346370240985  1.0000
  C   C21       1.0  0.08689805652490179  0.5642816933136672  0.5493523495827688  1.0000
  C   C22       1.0  0.5005463399930504  0.7364677163558754  0.5029419576406156  1.0000
  C   C23       1.0  0.5379518523805727  0.5112898573132156  0.6841478618315903  1.0000
  C   C24       1.0  0.553798534766983  0.5100998754784952  0.7879047079156151  1.0000
  C   C25       1.0  0.564291570724791  0.5031718422545381  0.9751682131376496  1.0000
  C   C26       1.0  0.4469039177219897  0.4957650847228122  0.017901525650955784  1.0000
  C   C27       1.0  0.4483773450978532  0.496020145791114  0.11793529163418268  1.0000
  C   C28       1.0  0.5606095296081292  0.5067958241712561  0.8751848362189845  1.0000
  C   C29       1.0  0.8186070018523707  0.1178605015281704  0.6501616269009104  1.0000
  C   C30       1.0  0.765399569217827  0.21451607451020038  0.7183442420338222  1.0000
  C   C31       1.0  0.8353453117826533  0.2077877854501082  0.8218798197595729  1.0000
  N   N1        1.0  0.8568372638335545  0.4921806957944738  0.4906408269652117  1.0000
  N   N2        1.0  0.1427631689378899  0.48860330513240063  0.48841067901814467  1.0000
  O   O1        1.0  0.3980918265983106  0.3169553999878403  0.46839464228715133  1.0000
  O   O2        1.0  0.6226884741451711  0.32696858971394954  0.5289061235154049  1.0000
  O   O3        1.0  0.34910433118311346  0.5217657377565601  0.34659608300610495  1.0000
  O   O4        1.0  0.577042001064264  0.4778872053175575  0.3529818891852798  1.0000
  O   O5        1.0  0.39573704421474787  0.6767121357437986  0.522268254074163  1.0000
  O   O6        1.0  0.61334156744482  0.6896781378104535  0.4837987925130633  1.0000
  O   O7        1.0  0.4185894128174822  0.4787406555004026  0.6403220665105563  1.0000
  O   O8        1.0  0.6436748037034405  0.5435849958063912  0.6465708330732481  1.0000
  O   O9        1.0  0.7527641033609667  0.11992090046125979  0.551410230915465  1.0000
