data_image0
_chemical_formula_structural       AlH21C36O6
_chemical_formula_sum              "Al1 H21 C36 O6"
_cell_length_a       3.9765414090300917
_cell_length_b       20.40473392035881
_cell_length_c       20.460140569640487
_cell_angle_alpha    60.09972586293444
_cell_angle_beta     86.18194086971968
_cell_angle_gamma    86.12257328714996

_space_group_name_H-M_alt    "P 1"
_space_group_IT_number       1

loop_
  _space_group_symop_operation_xyz
  'x, y, z'

loop_
  _atom_site_type_symbol
  _atom_site_label
  _atom_site_symmetry_multiplicity
  _atom_site_fract_x
  _atom_site_fract_y
  _atom_site_fract_z
  _atom_site_occupancy
  Al  Al1       1.0  0.041686905661670416  0.49912669095308365  0.500206380831983  1.0000
  H   H1        1.0  0.8416726110572409  0.3074427334567957  0.7061564246114923  1.0000
  H   H2        1.0  0.8216986954954065  0.23447407817889143  0.8471352587532761  1.0000
  H   H3        1.0  0.24436589961389632  0.7091816151341277  0.30829317291621533  1.0000
  H   H4        1.0  0.2413428758116822  0.8505602204783924  0.23690016467652683  1.0000
  H   H5        1.0  0.28746663951668683  0.3106402872145537  0.48311373207139485  1.0000
  H   H6        1.0  0.3001471364333311  0.23938309784938383  0.41295218093041075  1.0000
  H   H7        1.0  0.7807705269514568  0.7062982779180444  0.48524086305464204  1.0000
  H   H8        1.0  0.7572692778731277  0.8476672308073888  0.4172921921474281  1.0000
  H   H9        1.0  0.18376761004407874  0.4811727344086307  0.7104848090217074  1.0000
  H   H10       1.0  0.18246631231347968  0.41173893344893037  0.8515034433556746  1.0000
  H   H11       1.0  0.8879661409459484  0.4817418919488433  0.305014577638495  1.0000
  H   H12       1.0  0.8823268563932198  0.41392055151233353  0.23160961130277957  1.0000
  H   H13       1.0  0.7898203143006837  0.09553067050334363  0.3475497609187811  1.0000
  H   H14       1.0  0.500945250012009  0.028399363023162  0.3560149262948399  1.0000
  H   H15       1.0  0.3543273685203585  0.11427327269638715  0.35405681079030416  1.0000
  H   H16       1.0  0.7540167082344734  0.34667108069566416  0.03273546887198355  1.0000
  H   H17       1.0  0.6171942669078516  0.35475388492795196  0.1138044482288619  1.0000
  H   H18       1.0  0.3208160422198387  0.35735684064975  0.050947265650691465  1.0000
  H   H19       1.0  0.6541854781854323  0.037133266330108904  0.10292024899531066  1.0000
  H   H20       1.0  0.4395027703722432  0.1164685216741645  0.02855914805407168  1.0000
  H   H21       1.0  0.2136245378616052  0.0483891419212341  0.11041381844167118  1.0000
  C   C1        1.0  0.5233376285609661  0.44091200550224835  0.6163522922566143  1.0000
  C   C2        1.0  0.5772879026214068  0.4414365744763771  0.4411458021044863  1.0000
  C   C3        1.0  0.5229581318671562  0.6155901647472959  0.4423101384327522  1.0000
  C   C4        1.0  0.693198239885042  0.32887903192141016  0.7387032399185781  1.0000
  C   C5        1.0  0.6825883916789831  0.2885219082615436  0.8169721952056929  1.0000
  C   C6        1.0  0.36051517560309065  0.7401961493804804  0.33090164340679706  1.0000
  C   C7        1.0  0.35786489243363917  0.8186757292963875  0.29144300867893225  1.0000
  C   C8        1.0  0.42255913961724184  0.33176888660839415  0.42870536119301755  1.0000
  C   C9        1.0  0.4292780926097847  0.2923301646030368  0.3896508966904333  1.0000
  C   C10       1.0  0.6579040883619027  0.7386157508488863  0.43151944830674427  1.0000
  C   C11       1.0  0.6453440272732108  0.8170995207578925  0.3936559088026924  1.0000
  C   C12       1.0  0.3269423613401939  0.4277659371498503  0.7410995701311759  1.0000
  C   C13       1.0  0.32536121190076256  0.38904302255323847  0.8193791558796942  1.0000
  C   C14       1.0  0.7560283022687243  0.4292408677187823  0.32748602295009  1.0000
  C   C15       1.0  0.7536478755452973  0.39140067228025543  0.2868676062324622  1.0000
  C   C16       1.0  0.513475452293214  0.3984369203603819  0.7001460845940098  1.0000
  C   C17       1.0  0.5012106825799022  0.3184267773137677  0.8586280768552964  1.0000
  C   C18       1.0  0.4980660133618214  0.2783576603288296  0.9384523825484687  1.0000
  C   C19       1.0  0.49932426958880416  0.2432792774384964  0.007276800982083342  1.0000
  C   C20       1.0  0.5071106096734043  0.2042615826516041  0.08711517337079742  1.0000
  C   C21       1.0  0.5130747166911716  0.69954052721679  0.40086147851093284  1.0000
  C   C22       1.0  0.4977722151179475  0.8584562083890006  0.32252340138807495  1.0000
  C   C23       1.0  0.4928364105032655  0.9384033848420187  0.2828916542091802  1.0000
  C   C24       1.0  0.49318075725070537  0.007424802941109503  0.24910130282598422  1.0000
  C   C25       1.0  0.5018532996917028  0.08737849468491281  0.2080972574730423  1.0000
  C   C26       1.0  0.5876448550500438  0.4001914330242045  0.3983022047643059  1.0000
  C   C27       1.0  0.5916963316056605  0.3220317455120566  0.3175320316641146  1.0000
  C   C28       1.0  0.5858317254202418  0.2829652943682817  0.2767448319804655  1.0000
  C   C29       1.0  0.5705242260135178  0.24900382476644012  0.24201723020146898  1.0000
  C   C30       1.0  0.5465500225440039  0.2080639528696864  0.20345094809898254  1.0000
  C   C31       1.0  0.48631258464528293  0.12483364425241213  0.12843829899442474  1.0000
  C   C32       1.0  0.5297476660636561  0.1282720314737276  0.24628543310366516  1.0000
  C   C33       1.0  0.5382364744084709  0.24661078427413236  0.12396702640052121  1.0000
  C   C34       1.0  0.5431608389288339  0.08894216221455051  0.3305433106479966  1.0000
  C   C35       1.0  0.5601854885497345  0.33088788011034603  0.07842572541265004  1.0000
  C   C36       1.0  0.4470324989688803  0.07988428683428589  0.08987174533056927  1.0000
  O   O1        1.0  0.3032877952113323  0.5824845279770302  0.4274461388072337  1.0000
  O   O2        1.0  0.2822550124850947  0.4889427122641196  0.5835873982758312  1.0000
  O   O3        1.0  0.3361573187304215  0.4269231830460997  0.49045397255522954  1.0000
  O   O4        1.0  0.7517528979167166  0.5816199210057746  0.4905501078933196  1.0000
  O   O5        1.0  0.8062459025590626  0.48830529908895676  0.42663454966162806  1.0000
  O   O6        1.0  0.774015300473138  0.4264950884851472  0.5824159381981313  1.0000
