data_image0
_chemical_formula_structural       Zn2H16C12N4O14
_chemical_formula_sum              "Zn2 H16 C12 N4 O14"
_cell_length_a       7.264314650636152
_cell_length_b       8.137515208412536
_cell_length_c       9.807640575727195
_cell_angle_alpha    65.48795879618179
_cell_angle_beta     78.21192281751942
_cell_angle_gamma    60.52484256708785

_space_group_name_H-M_alt    "P 1"
_space_group_IT_number       1

loop_
  _space_group_symop_operation_xyz
  'x, y, z'

loop_
  _atom_site_type_symbol
  _atom_site_label
  _atom_site_symmetry_multiplicity
  _atom_site_fract_x
  _atom_site_fract_y
  _atom_site_fract_z
  _atom_site_occupancy
  Zn  Zn1       1.0  0.07940193829845296  0.004487200143678549  0.22754279169169683  1.0000
  Zn  Zn2       1.0  0.5794743983070058  0.23210072844545945  0.7725721962056938  1.0000
  H   H1        1.0  0.881805383384744  0.3737325442244952  0.007463695200328947  1.0000
  H   H2        1.0  0.381439266251689  0.38076695733739974  0.9926855750192661  1.0000
  H   H3        1.0  0.11315584143869706  0.2954693424569257  0.9400889349756413  1.0000
  H   H4        1.0  0.6129410082153368  0.23593970333154604  0.05979803970475225  1.0000
  H   H5        1.0  0.9642718437444056  0.802588197644802  0.13700070334545705  1.0000
  H   H6        1.0  0.46439007430185314  0.9395518544250404  0.8629729722416857  1.0000
  H   H7        1.0  0.15998522154963965  0.8318969995860286  0.04152077133569784  1.0000
  H   H8        1.0  0.6600652255780725  0.8733200897850253  0.9584510725577715  1.0000
  H   H9        1.0  0.6916101435027996  0.036985156851258576  0.30150675354725825  1.0000
  H   H10       1.0  0.19184004657190437  0.3382966536960552  0.69837694103704  1.0000
  H   H11       1.0  0.6690593257968657  0.26075045487450405  0.25898462619611007  1.0000
  H   H12       1.0  0.1691435162872208  0.5195099700603972  0.7410269822945639  1.0000
  H   H13       1.0  0.15548577235293934  0.5229281158598411  0.38873497388338774  1.0000
  H   H14       1.0  0.6553234037512675  0.9122134259615178  0.6109926860362975  1.0000
  H   H15       1.0  0.10623796753649369  0.40807602114033864  0.19952649149340837  1.0000
  H   H16       1.0  0.6063805306264022  0.6080821152091574  0.8004253691456642  1.0000
  C   C1        1.0  0.08701267067958418  0.847793573473403  0.5566516426190307  1.0000
  C   C2        1.0  0.5870020947060295  0.4046086835934801  0.44352420634584894  1.0000
  C   C3        1.0  0.09063747226149836  0.04723873751313306  0.5127564249971571  1.0000
  C   C4        1.0  0.5906850113179373  0.56020325270498  0.48733441380198184  1.0000
  C   C5        1.0  0.10136812945017923  0.1184663621973029  0.6175876147206553  1.0000
  C   C6        1.0  0.6013650728532905  0.7362315903953486  0.3824033346393564  1.0000
  C   C7        1.0  0.07908098670115032  0.02305119348837766  0.7856039708619137  1.0000
  C   C8        1.0  0.5790655917173448  0.8086716399821939  0.21440878070295355  1.0000
  C   C9        1.0  0.13443936704536688  0.3874238300370009  0.42373922566179095  1.0000
  C   C10       1.0  0.634325790032704  0.8116222732819408  0.576116003805595  1.0000
  C   C11       1.0  0.11219800477852694  0.3226131660334203  0.3195232114334204  1.0000
  C   C12       1.0  0.6122897255651832  0.6425209285394542  0.6804296723977146  1.0000
  N   N1        1.0  0.0938988762014645  0.15194837026022145  0.36538225766007326  1.0000
  N   N2        1.0  0.5940353403447953  0.5175807420040498  0.6346867327434114  1.0000
  N   N3        1.0  0.12733527195398142  0.2862153455253632  0.5710756769192927  1.0000
  N   N4        1.0  0.6272348499277378  0.857623456661173  0.42878882589042183  1.0000
  O   O1        1.0  0.09273155702833663  0.7930529274784349  0.4509315474380957  1.0000
  O   O2        1.0  0.5928669027549417  0.24411960385592815  0.5492638703179581  1.0000
  O   O3        1.0  0.0861181642792982  0.7487276428301541  0.6952450107689858  1.0000
  O   O4        1.0  0.5859418003651339  0.44413556809274  0.30493707567225675  1.0000
  O   O5        1.0  0.8940364911854665  0.08024151981654618  0.838721419553167  1.0000
  O   O6        1.0  0.39405834746883506  0.9188875826804122  0.16134921559370957  1.0000
  O   O7        1.0  0.24634593007242933  0.9054959225311235  0.8635336165528998  1.0000
  O   O8        1.0  0.7463690259718231  0.7689313430614745  0.1364700910295156  1.0000
  O   O9        1.0  0.029485815592721547  0.2840762670949387  0.03605102865584096  1.0000
  O   O10       1.0  0.5291387670987503  0.3203510619715709  0.9639330296578877  1.0000
  O   O11       1.0  0.09981043025710774  0.7996919297423659  0.1455667946813294  1.0000
  O   O12       1.0  0.599957186870753  0.9451846668258596  0.8544219292142332  1.0000
  O   O13       1.0  0.7355242057689393  0.14098343990540485  0.22317730918044285  1.0000
  O   O14       1.0  0.2356953022280519  0.36391832863824164  0.7767243558649782  1.0000
