data_image0
_chemical_formula_structural       Gd4H48C40N4O44
_chemical_formula_sum              "Gd4 H48 C40 N4 O44"
_cell_length_a       6.073060703
_cell_length_b       15.3374950755158
_cell_length_c       16.5527
_cell_angle_alpha    115.0798889231688
_cell_angle_beta     90.0
_cell_angle_gamma    90.0

_space_group_name_H-M_alt    "P 1"
_space_group_IT_number       1

loop_
  _space_group_symop_operation_xyz
  'x, y, z'

loop_
  _atom_site_type_symbol
  _atom_site_label
  _atom_site_symmetry_multiplicity
  _atom_site_fract_x
  _atom_site_fract_y
  _atom_site_fract_z
  _atom_site_occupancy
  Gd  Gd1       1.0  0.0488551019839889  0.8503841318513636  0.5946731469250821  1.0000
  Gd  Gd2       1.0  0.5488517508730695  0.1496130009152523  0.9053239749529283  1.0000
  Gd  Gd3       1.0  0.9511464288750774  0.1496151605186071  0.4053272396884823  1.0000
  Gd  Gd4       1.0  0.45114484013745954  0.8503870113224964  0.09467609026670938  1.0000
  H   H1        1.0  0.8296557940728349  0.8220112630326213  0.8388985607266477  1.0000
  H   H2        1.0  0.32965749856757043  0.1779901889406972  0.6611002575740841  1.0000
  H   H3        1.0  0.1703424435538707  0.1779894690729122  0.1611011830990634  1.0000
  H   H4        1.0  0.6703407390591353  0.8220105431648435  0.338901298644771  1.0000
  H   H5        1.0  0.593150665894143  0.7883977567500295  0.7673071677974975  1.0000
  H   H6        1.0  0.0931490771565251  0.2116044150910739  0.7326901208472166  1.0000
  H   H7        1.0  0.4068508649649162  0.21160225548772627  0.2326916891600419  1.0000
  H   H8        1.0  0.9068524537025341  0.7883948772788971  0.26730966163530223  1.0000
  H   H9        1.0  0.6889606747933714  0.6472424824230743  0.7640696232862325  1.0000
  H   H10       1.0  0.1889590860557533  0.35275896955024433  0.7359304032765978  1.0000
  H   H11       1.0  0.3110408560656879  0.3527582496824594  0.23592951640843304  1.0000
  H   H12       1.0  0.8110407981871292  0.6472403228197265  0.2640699833369666  1.0000
  H   H13       1.0  0.7794438803586559  0.4742150619818091  0.712841734120488  1.0000
  H   H14       1.0  0.2794439382372147  0.5257856701237316  0.7871549890499809  1.0000
  H   H15       1.0  0.2205543572680497  0.5257849502559466  0.2871565187060058  1.0000
  H   H16       1.0  0.7205559460056676  0.4742136222462393  0.21284298103938684  1.0000
  H   H17       1.0  0.0755813291596539  0.39944599464892155  0.5994388018593426  1.0000
  H   H18       1.0  0.5755829178972718  0.600556177192182  0.9005590909164172  1.0000
  H   H19       1.0  0.9244185550832286  0.6005547374566121  0.4005615460974141  1.0000
  H   H20       1.0  0.42441861296178734  0.39944455491335173  0.09943884051615026  1.0000
  H   H21       1.0  0.2747889543036592  0.4968858580874667  0.536654116147382  1.0000
  H   H22       1.0  0.7747888964251004  0.5031155938858518  0.9633434938912586  1.0000
  H   H23       1.0  0.7252125765554069  0.503113434282497  0.4633456663351368  1.0000
  H   H24       1.0  0.2252126344339587  0.4968851382196889  0.0366550416723541  1.0000
  H   H25       1.0  0.399844513130006  0.6052626727606807  0.47444904543840494  1.0000
  H   H26       1.0  0.8998395154029168  0.3947380593448528  0.025551302518351787  1.0000
  H   H27       1.0  0.6001603109614067  0.3947373394770679  0.5255516239122784  1.0000
  H   H28       1.0  0.10015707560761201  0.6052633926284656  0.9744499323065697  1.0000
  H   H29       1.0  0.5092967370591452  0.625871047666628  0.5820557099835781  1.0000
  H   H30       1.0  0.0092918550891667  0.3741282447033427  0.9179434683678878  1.0000
  H   H31       1.0  0.4907064404160977  0.3741282447033427  0.4179446766299862  1.0000
  H   H32       1.0  0.9907014426890015  0.6258703277988431  0.08205663550855039  1.0000
  H   H33       1.0  0.623530734367499  0.9027624316463659  0.5471706878259326  1.0000
  H   H34       1.0  0.123529145629881  0.09723614085582  0.9528276036573617  1.0000
  H   H35       1.0  0.3764707964915601  0.0972368607236049  0.4528284905255333  1.0000
  H   H36       1.0  0.8764674453806479  0.9027638713819357  0.04717246156226908  1.0000
  H   H37       1.0  0.2804549605701538  0.9537146733622636  0.7621733666018997  1.0000
  H   H38       1.0  0.7804516094592345  0.04628749847884  0.7378263385670039  1.0000
  H   H39       1.0  0.7195465702889123  0.0462860587432701  0.2378275854859027  1.0000
  H   H40       1.0  0.2195466281674641  0.9537132336267007  0.26217340525870714  1.0000
  H   H41       1.0  0.7722333481177444  0.9889514814966418  0.5429834091463023  1.0000
  H   H42       1.0  0.2722334059963032  0.0110463711377591  0.9570152037309257  1.0000
  H   H43       1.0  0.227766536125138  0.011047091005544003  0.4570154864680447  1.0000
  H   H44       1.0  0.7277648316304024  0.9889522013644267  0.04298429601447399  1.0000
  H   H45       1.0  0.2360835944372752  0.854039620455957  0.7712404355614241  1.0000
  H   H46       1.0  0.7360835365587164  0.1459625513851464  0.7287586654764341  1.0000
  H   H47       1.0  0.7639162898056071  0.1459603917817915  0.2287584213961154  1.0000
  H   H48       1.0  0.2639147010679892  0.8540381807203944  0.2712410783492771  1.0000
  C   C1        1.0  0.7389124231515183  0.9204056711520892  0.7816837073198499  1.0000
  C   C2        1.0  0.2389058945653701  0.0795914616145268  0.7183097897718653  1.0000
  C   C3        1.0  0.2610907543237175  0.07959362121788162  0.21831426276951763  1.0000
  C   C4        1.0  0.7610874032128053  0.9204056711520892  0.2816861238440466  1.0000
  C   C5        1.0  0.759644967441389  0.8195752304532749  0.7766454339060405  1.0000
  C   C6        1.0  0.2596384388552337  0.1804262215200509  0.7233515720015546  1.0000
  C   C7        1.0  0.2403565634176701  0.180425501652266  0.2233543099196709  1.0000
  C   C8        1.0  0.7403597987714718  0.819573790717705  0.2766490973491358  1.0000
  C   C9        1.0  0.9312421325224493  0.6696368492998772  0.6791259024360485  1.0000
  C   C10       1.0  0.431235603936301  0.3303624430700935  0.8208720676533261  1.0000
  C   C11       1.0  0.0687593983366099  0.3303624430700935  0.3208720676533261  1.0000
  C   C12       1.0  0.5687609870742278  0.6696375691676623  0.17912920582841  1.0000
  C   C13       1.0  0.8166870450594956  0.6145828009536132  0.7139859652362759  1.0000
  C   C14       1.0  0.3166854563218777  0.3854179311519204  0.7860125703273368  1.0000
  C   C15       1.0  0.1833128391833867  0.3854179311519204  0.28601257032733685  1.0000
  C   C16       1.0  0.6833144279210046  0.6145813612180504  0.21398721215518182  1.0000
  C   C17       1.0  0.8691663492499729  0.516928416915583  0.6852282041753526  1.0000
  C   C18       1.0  0.3691664071285317  0.48307303505773563  0.8147700099943337  1.0000
  C   C19       1.0  0.1308335349929095  0.4830723151899505  0.3147709355193058  1.0000
  C   C20       1.0  0.6308351237305274  0.5169269771800202  0.18522945109425853  1.0000
  C   C21       1.0  0.0353676688747555  0.47531430008720593  0.6226713362886542  1.0000
  C   C22       1.0  0.5353659643800199  0.5246878717538976  0.8773271606181511  1.0000
  C   C23       1.0  0.9646338619843036  0.5246857121505428  0.37732812479993083  1.0000
  C   C24       1.0  0.46463556647903914  0.475312860351643  0.12267137494546183  1.0000
  C   C25       1.0  0.1496576511331469  0.5305843087685176  0.5874176228346357  1.0000
  C   C26       1.0  0.6496543000222346  0.46941714320480094  0.9125811954660961  1.0000
  C   C27       1.0  0.8503438797259122  0.469416423337016  0.412582725122121  1.0000
  C   C28       1.0  0.350343937604471  0.5305835889007327  0.0874179442285623  1.0000
  C   C29       1.0  0.0981119783152593  0.6271876858426424  0.615128250098337  1.0000
  C   C30       1.0  0.598108627204347  0.3728137661306761  0.8848717764644932  1.0000
  C   C31       1.0  0.9018895525437998  0.3728130462628911  0.3848708895963214  1.0000
  C   C32       1.0  0.4018896104223586  0.6271869659748575  0.11512977975436199  1.0000
  C   C33       1.0  0.4165428477852018  0.6581535184175351  0.5445498900101527  1.0000
  C   C34       1.0  0.9165362034419291  0.34184721368799853  0.9554498538155515  1.0000
  C   C35       1.0  0.5834603296900411  0.3418457739524356  0.4554504966034116  1.0000
  C   C36       1.0  0.0834587409524232  0.6581542382853202  0.044551381009370165  1.0000
  C   C37       1.0  0.5421796621221731  0.7455757017809432  0.5475956879572552  1.0000
  C   C38       1.0  0.0421649004551341  0.2544243104568054  0.9524043772623756  1.0000
  C   C39       1.0  0.4578284552015931  0.2544235905890275  0.45240530278735497  1.0000
  C   C40       1.0  0.9578251040906807  0.7455764216487282  0.04759597069438116  1.0000
  N   N1        1.0  0.18082480213931262  0.8062576764585857  0.40611850109434044  1.0000
  N   N2        1.0  0.6808181577960397  0.1937401761758224  0.0938801117828802  1.0000
  N   N3        1.0  0.8191783753359232  0.19374161591138522  0.5938806772571256  1.0000
  N   N4        1.0  0.3191800798306659  0.8062591161941484  0.9061196706996315  1.0000
  O   O1        1.0  0.7997697104527007  0.9327413254900849  0.7134699147162424  1.0000
  O   O2        1.0  0.2997648284827292  0.0672522079376137  0.7865173356414843  1.0000
  O   O3        1.0  0.20022852717400502  0.0672565271443162  0.2865274898988872  1.0000
  O   O4        1.0  0.7002334091439765  0.9327442049612246  0.2134801076304456  1.0000
  O   O5        1.0  0.6594500196616907  0.9847827271624183  0.8520337608504462  1.0000
  O   O6        1.0  0.1594352579946516  0.0152151254719897  0.6479576024541985  1.0000
  O   O7        1.0  0.340548217965015  0.015216565207552402  0.147964813369974  1.0000
  O   O8        1.0  0.8405646262482307  0.9847848867657663  0.3520424627654322  1.0000
  O   O9        1.0  0.8972312753778838  0.7654850850691091  0.70210078351829  1.0000
  O   O10       1.0  0.39722145355937505  0.2345142073008546  0.7978977907021303  1.0000
  O   O11       1.0  0.1027735487135288  0.2345156470364245  0.2978995644384668  1.0000
  O   O12       1.0  0.60277349083497  0.765485804936894  0.202102878648553  1.0000
  O   O13       1.0  0.2022406921428086  0.6875068471574013  0.5839171375542522  1.0000
  O   O14       1.0  0.7022356944157124  0.3124960445514873  0.916084058613869  1.0000
  O   O15       1.0  0.7977608387162506  0.31249460481592456  0.41608349313962384  1.0000
  O   O16       1.0  0.2977592499786326  0.6875061272896161  0.08391927134132258  1.0000
  O   O17       1.0  0.4337911522436499  0.8209969693256769  0.5595928155367176  1.0000
  O   O18       1.0  0.9337910943650911  0.1790052025154267  0.9404087020253302  1.0000
  O   O19       1.0  0.5662103786154091  0.1790030429120719  0.4404072496829202  1.0000
  O   O20       1.0  0.066210436493968  0.820995529590107  0.05959225006247245  1.0000
  O   O21       1.0  0.7479523459655439  0.7361252775192  0.5370270276362917  1.0000
  O   O22       1.0  0.2479524038441028  0.2638768943219034  0.9629750940568017  1.0000
  O   O23       1.0  0.2520475382773384  0.2638761744541185  0.4629748113196826  1.0000
  O   O24       1.0  0.7520441871664261  0.7361245576514153  0.03702614076812693  1.0000
  O   O25       1.0  0.0951826481356335  0.746255256968567  0.4315033271478299  1.0000
  O   O26       1.0  0.5951792970247212  0.2537447552691887  0.0684979463339062  1.0000
  O   O27       1.0  0.9048205293396024  0.2537447552691887  0.5684973422028534  1.0000
  O   O28       1.0  0.4048172939858077  0.746255256968567  0.9315033271478299  1.0000
  O   O29       1.0  0.2000589257077294  0.8930053437088503  0.4639562532972193  1.0000
  O   O30       1.0  0.7000522813644565  0.10699394866111331  0.0360429250542538  1.0000
  O   O31       1.0  0.7999442517675064  0.10699394866111331  0.5360429250542467  1.0000
  O   O32       1.0  0.2999459562622491  0.8930053437088503  0.963956857428265  1.0000
  O   O33       1.0  0.2439363069873792  0.7791856087246245  0.3270901178342387  1.0000
  O   O34       1.0  0.7439296626441134  0.2208115240419986  0.17291123296110564  1.0000
  O   O35       1.0  0.7560652238716798  0.2208129637775613  0.6729099860421996  1.0000
  O   O36       1.0  0.2560702215987689  0.7791877683279722  0.8270885495214133  1.0000
  O   O37       1.0  0.772941393074035  0.9223637115231966  0.5369743711186246  1.0000
  O   O38       1.0  0.2729414509525938  0.0776348609789892  0.9630245244957225  1.0000
  O   O39       1.0  0.2270584911688474  0.07763558084676701  0.463025411363887  1.0000
  O   O40       1.0  0.7270567866741118  0.9223644313909817  0.03697525798679638  1.0000
  O   O41       1.0  0.2569577477184026  0.8827198728182495  0.7286321831166945  1.0000
  O   O42       1.0  0.7569543966074833  0.1172822990228539  0.7713687303143004  1.0000
  O   O43       1.0  0.7430454297568403  0.11728085928728403  0.2713681648400623  1.0000
  O   O44       1.0  0.2430438410192224  0.8827191529504717  0.2286319003795754  1.0000
