data_image0
_chemical_formula_structural       FeH16PdC20S2N12
_chemical_formula_sum              "Fe1 H16 Pd1 C20 S2 N12"
_cell_length_a       7.025191615255914
_cell_length_b       7.509133619081061
_cell_length_c       12.382289043885825
_cell_angle_alpha    100.88023573791685
_cell_angle_beta     100.55030826830851
_cell_angle_gamma    93.01133441420761

_space_group_name_H-M_alt    "P 1"
_space_group_IT_number       1

loop_
  _space_group_symop_operation_xyz
  'x, y, z'

loop_
  _atom_site_type_symbol
  _atom_site_label
  _atom_site_symmetry_multiplicity
  _atom_site_fract_x
  _atom_site_fract_y
  _atom_site_fract_z
  _atom_site_occupancy
  Fe  Fe1       1.0  0.4862667327483122  0.509672141596937  0.5000799095747155  1.0000
  H   H1        1.0  0.2581422974466179  0.16380457812566362  0.9594946615402902  1.0000
  H   H2        1.0  0.7374502249470537  0.8391684524195069  0.04086396241763168  1.0000
  H   H3        1.0  0.37905585747979126  0.11350457441953672  0.3276893128815459  1.0000
  H   H4        1.0  0.6088993094276631  0.8977550579653625  0.6736137664548564  1.0000
  H   H5        1.0  0.3652562973349163  0.4184793450069931  0.07142670870759817  1.0000
  H   H6        1.0  0.642957422964166  0.5834346143152088  0.9261529502370037  1.0000
  H   H7        1.0  0.1434413792865215  0.9650390972720615  0.755420768330417  1.0000
  H   H8        1.0  0.8510997535314786  0.0382283008710971  0.24588033752151262  1.0000
  H   H9        1.0  0.048521623495965116  0.6227648746970973  0.653526469785575  1.0000
  H   H10       1.0  0.9436776455279272  0.3805000865279311  0.3479463128329954  1.0000
  H   H11       1.0  0.9775993872590689  0.30258241472240854  0.7076314994347257  1.0000
  H   H12       1.0  0.020052860778854188  0.7019817211598322  0.2928475552341041  1.0000
  H   H13       1.0  0.014153685054154196  0.2909723866404548  0.8519812988418918  1.0000
  H   H14       1.0  0.9865366062703771  0.710767468843251  0.14824075296814954  1.0000
  H   H15       1.0  0.21600849103496245  0.29008582160962954  0.7816213710504625  1.0000
  H   H16       1.0  0.7827312666357286  0.7126981748007566  0.21706026260162758  1.0000
  Pd  Pd1       1.0  0.013288301913689795  0.9842034703662819  0.49854406106810956  1.0000
  C   C1        1.0  0.8229072998743022  0.16656076303141282  0.5062882924933376  1.0000
  C   C2        1.0  0.20479845457828108  0.7989226807614144  0.4917219005792716  1.0000
  C   C3        1.0  0.20636146123784732  0.19316796062615538  0.5146726428783807  1.0000
  C   C4        1.0  0.8070312190305489  0.7883320652787587  0.4839783582338057  1.0000
  C   C5        1.0  0.2568239160010108  0.04005163578066371  0.9944053728973116  1.0000
  C   C6        1.0  0.7438696633420533  0.9630252621030095  0.006304581672921467  1.0000
  C   C7        1.0  0.386420380644303  0.22676600028585625  0.2854809548016988  1.0000
  C   C8        1.0  0.6038760615699345  0.782813521805778  0.7146306372319413  1.0000
  C   C9        1.0  0.3781113036324514  0.3834852280615095  0.1531225900448021  1.0000
  C   C10       1.0  0.6216871342795045  0.6214126872751818  0.8450369735443244  1.0000
  C   C11       1.0  0.1983296783920281  0.8736120105242335  0.9147846625255056  1.0000
  C   C12       1.0  0.8032023544269152  0.12894890262922593  0.08624136824609252  1.0000
  C   C13       1.0  0.1448233670002494  0.8515667085709707  0.7988508591607014  1.0000
  C   C14       1.0  0.8524265098068468  0.1514807606621318  0.20236497428011546  1.0000
  C   C15       1.0  0.10663462143583759  0.5491633422457693  0.8170767718753353  1.0000
  C   C16       1.0  0.8929985923842807  0.45360222397899724  0.18397315756636348  1.0000
  C   C17       1.0  0.09309925735592368  0.6681784681919679  0.743933177767218  1.0000
  C   C18       1.0  0.9029050476719148  0.3350353847996104  0.2573664530053676  1.0000
  C   C19       1.0  0.07629913947472741  0.34702324472239343  0.788973005952549  1.0000
  C   C20       1.0  0.9228740925594108  0.6557660739746607  0.21109949695721747  1.0000
  S   S1        1.0  0.18084623727241933  0.6646045887761574  0.9546819894483249  1.0000
  S   S2        1.0  0.8235160003935816  0.33766499531988353  0.04622050153255228  1.0000
  N   N1        1.0  0.30625651744041693  0.32445722081204315  0.5171853922189769  1.0000
  N   N2        1.0  0.6837928818163307  0.6763129937625647  0.48277393929520673  1.0000
  N   N3        1.0  0.7189303838971596  0.2829523653309849  0.5127492340506237  1.0000
  N   N4        1.0  0.3078212275540579  0.680803145332881  0.4893131958540237  1.0000
  N   N5        1.0  0.4262470562761393  0.4016171853070957  0.3322262716869844  1.0000
  N   N6        1.0  0.5580768578624316  0.6089897929706963  0.6664349074746951  1.0000
  N   N7        1.0  0.3030532644089163  0.041465318118959295  0.10105450016328629  1.0000
  N   N8        1.0  0.7007267040566135  0.962915167853467  0.8997127978580721  1.0000
  N   N9        1.0  0.4222298731262626  0.501305780187039  0.2491624816129558  1.0000
  N   N10       1.0  0.5684685214366567  0.5063638639441591  0.7483259442972283  1.0000
  N   N11       1.0  0.3536955367513316  0.20898834236098912  0.1717285636439883  1.0000
  N   N12       1.0  0.6457303809156015  0.7969839242465896  0.8281068003403574  1.0000
