data_image0
_chemical_formula_structural       Mn3H20C24N10O10
_chemical_formula_sum              "Mn3 H20 C24 N10 O10"
_cell_length_a       6.624851325522689
_cell_length_b       9.902808434734784
_cell_length_c       11.340488187704786
_cell_angle_alpha    74.29896275936498
_cell_angle_beta     74.478449923223
_cell_angle_gamma    88.49415282707803

_space_group_name_H-M_alt    "P 1"
_space_group_IT_number       1

loop_
  _space_group_symop_operation_xyz
  'x, y, z'

loop_
  _atom_site_type_symbol
  _atom_site_label
  _atom_site_symmetry_multiplicity
  _atom_site_fract_x
  _atom_site_fract_y
  _atom_site_fract_z
  _atom_site_occupancy
  Mn  Mn1       1.0  0.51343803473587  0.9958042144797047  0.9985559040020392  1.0000
  Mn  Mn2       1.0  0.7703471867988297  0.17594069100058357  0.18925878843734978  1.0000
  Mn  Mn3       1.0  0.2345836817267895  0.8302715107236194  0.8199890491190515  1.0000
  H   H1        1.0  0.8369629681783409  0.9296292098236234  0.14031732150428414  1.0000
  H   H2        1.0  0.1353821607378478  0.07559788350067717  0.8710637919255575  1.0000
  H   H3        1.0  0.0440207028625537  0.0105915818221618  0.1276720587100328  1.0000
  H   H4        1.0  0.9618943298705673  0.0411807331341549  0.8083473902676771  1.0000
  H   H5        1.0  0.1851128077587845  0.5207116657884683  0.994295438272168  1.0000
  H   H6        1.0  0.8304218274273866  0.47020102211673975  0.016036370658696238  1.0000
  H   H7        1.0  0.5340923591185318  0.6985316788661464  0.6234909646420874  1.0000
  H   H8        1.0  0.46406042734268743  0.2771870920684519  0.38182827442989975  1.0000
  H   H9        1.0  0.5980056108254673  0.4609870061295425  0.5834232417701841  1.0000
  H   H10       1.0  0.3805337980696208  0.5091453646775432  0.4252789389504131  1.0000
  H   H11       1.0  0.4372628012487639  0.24704373378640557  0.7588656783032731  1.0000
  H   H12       1.0  0.5371415900895897  0.730408931476262  0.25474286702919346  1.0000
  H   H13       1.0  0.3350476327728559  0.005759577322578498  0.537783982606804  1.0000
  H   H14       1.0  0.6817431711105115  0.995502187457461  0.4615670657853528  1.0000
  H   H15       1.0  0.9242429654762319  0.6624753275982939  0.7388305955189762  1.0000
  H   H16       1.0  0.0476135837434839  0.3590412363379016  0.24923672287805226  1.0000
  H   H17       1.0  0.8918653045040585  0.6164011751426127  0.5377962538529744  1.0000
  H   H18       1.0  0.09022667725973581  0.4101280332095668  0.44259026029470055  1.0000
  H   H19       1.0  0.10047484579547471  0.7718833960921572  0.3279061776945582  1.0000
  H   H20       1.0  0.9115252522253313  0.24870515437544327  0.6582753784696251  1.0000
  C   C1        1.0  0.18343097945603404  0.24648128718069268  0.9926252683453995  1.0000
  C   C2        1.0  0.8031238524242924  0.7407390676121393  0.021558306770081984  1.0000
  C   C3        1.0  0.29911558141279226  0.36738129760144733  0.8907678781100614  1.0000
  C   C4        1.0  0.6946303279588122  0.6146273917904564  0.12354094227862335  1.0000
  C   C5        1.0  0.2763683646153652  0.5038874538082821  0.9045873317614124  1.0000
  C   C6        1.0  0.7310954164818286  0.4813095246724684  0.10573381870770496  1.0000
  C   C7        1.0  0.471064126305393  0.6019029435826013  0.6971202103682755  1.0000
  C   C8        1.0  0.5268183084629287  0.3751107191543496  0.31054473237123387  1.0000
  C   C9        1.0  0.5047523659728909  0.470354042742052  0.6756551137729332  1.0000
  C   C10       1.0  0.48148529405725077  0.5046262146410214  0.3333726332415523  1.0000
  C   C11       1.0  0.4174258119111655  0.3513451679299279  0.7731850660701552  1.0000
  C   C12       1.0  0.5674871456015468  0.6270677729530332  0.2398699143260501  1.0000
  C   C13       1.0  0.38026012060785763  0.9845782314635086  0.2945567883442379  1.0000
  C   C14       1.0  0.6593029373480661  0.015139146567271694  0.7008345078648403  1.0000
  C   C15       1.0  0.23516455616731238  0.9011399613170705  0.4165780591210436  1.0000
  C   C16       1.0  0.784325520979273  0.1085057939317764  0.5755847709348672  1.0000
  C   C17       1.0  0.23826728239491504  0.9211242162029053  0.5333651387346308  1.0000
  C   C18       1.0  0.7717588616810218  0.08566276574486408  0.4613570645665277  1.0000
  C   C19       1.0  0.0072547294873715  0.7295012088146392  0.6456694043571005  1.0000
  C   C20       1.0  0.9778614504664063  0.288087297173405  0.3427276902003413  1.0000
  C   C21       1.0  0.9908083290001811  0.704582904738842  0.5334398005040626  1.0000
  C   C22       1.0  0.0003930129718057091  0.31565774510077915  0.45213536628524753  1.0000
  C   C23       1.0  0.10622117890547858  0.7907055605338368  0.4172113148544909  1.0000
  C   C24       1.0  0.9019630648350087  0.22630145909019458  0.5710030251618718  1.0000
  N   N1        1.0  0.6789266305653425  0.17959716449554006  0.014429676959316916  1.0000
  N   N2        1.0  0.3157826879390838  0.8235488417678949  0.9939296434825522  1.0000
  N   N3        1.0  0.7688530967412106  0.2704902377560074  0.9201381684638291  1.0000
  N   N4        1.0  0.22187772808730694  0.7355406588154307  0.088878777274644  1.0000
  N   N5        1.0  0.8537662619154248  0.3575415324429371  0.8291572402280278  1.0000
  N   N6        1.0  0.1297743947284218  0.649578174015076  0.17872283425845129  1.0000
  N   N7        1.0  0.35798600892579907  0.6185192791463191  0.8100780770441675  1.0000
  N   N8        1.0  0.6551279073146148  0.36174846497170415  0.19847730882658243  1.0000
  N   N9        1.0  0.1295877396053342  0.8363354054627833  0.6454949756551187  1.0000
  N   N10       1.0  0.8613549799956817  0.17534496662197088  0.34587359872980267  1.0000
  O   O1        1.0  0.9024698408597517  0.9802828005911477  0.18733143450393883  1.0000
  O   O2        1.0  0.11446014224306109  0.04299581870673558  0.7995884226162175  1.0000
  O   O3        1.0  0.0331564217059039  0.27434255090769  0.07940989863762128  1.0000
  O   O4        1.0  0.9350598603189724  0.7217077377110995  0.9242588584192005  1.0000
  O   O5        1.0  0.2247804792681976  0.11986293753896861  0.9862729182530786  1.0000
  O   O6        1.0  0.7616667535981135  0.8624202235958334  0.03965629021807622  1.0000
  O   O7        1.0  0.5013367176384306  0.07921168292902789  0.3023527915234183  1.0000
  O   O8        1.0  0.5339808889173838  0.9220518330092349  0.6988195178160409  1.0000
  O   O9        1.0  0.3800978989432124  0.9492615060964124  0.1954983008560235  1.0000
  O   O10       1.0  0.6835464494526066  0.040666851517165994  0.8014533069139277  1.0000
