data_image0
_chemical_formula_structural       Hg2H28C20S4Cl4
_chemical_formula_sum              "Hg2 H28 C20 S4 Cl4"
_cell_length_a       7.584295610524
_cell_length_b       8.68764004318942
_cell_length_c       11.387120912452518
_cell_angle_alpha    83.0809623008596
_cell_angle_beta     76.20980183949264
_cell_angle_gamma    63.619974438631175

_space_group_name_H-M_alt    "P 1"
_space_group_IT_number       1

loop_
  _space_group_symop_operation_xyz
  'x, y, z'

loop_
  _atom_site_type_symbol
  _atom_site_label
  _atom_site_symmetry_multiplicity
  _atom_site_fract_x
  _atom_site_fract_y
  _atom_site_fract_z
  _atom_site_occupancy
  Hg  Hg1       1.0  0.9821551768323358  0.7860507254298457  0.9293770281343752  1.0000
  Hg  Hg2       1.0  0.017844940667345106  0.21394708071198926  0.07062099611954406  1.0000
  H   H1        1.0  0.5528599434735925  0.39392874534772915  0.8205031105791317  1.0000
  H   H2        1.0  0.4471340789241653  0.6060703817751188  0.17949750674469556  1.0000
  H   H3        1.0  0.3826515208841244  0.545843877290075  0.7327807747963319  1.0000
  H   H4        1.0  0.6173462121743256  0.4541641841824173  0.26721845964075175  1.0000
  H   H5        1.0  0.31485365154085815  0.9574597705129193  0.8630602133725914  1.0000
  H   H6        1.0  0.6851385598247646  0.042545782545794004  0.1369357204225494  1.0000
  H   H7        1.0  0.5431972430140279  0.8298903569608953  0.9134464672147043  1.0000
  H   H8        1.0  0.4567984057669818  0.17011644193448924  0.08655232891191389  1.0000
  H   H9        1.0  0.6949362954184863  0.95801167615155  0.7254787655711393  1.0000
  H   H10       1.0  0.30506844853027104  0.041982245949064606  0.2745223948113845  1.0000
  H   H11       1.0  0.7616578662578067  0.8516951072161093  0.5853946704988783  1.0000
  H   H12       1.0  0.23835251171176014  0.1483039008863614  0.414602516194769  1.0000
  H   H13       1.0  0.9361540251086073  0.39001757155989486  0.7645009999010097  1.0000
  H   H14       1.0  0.06384190790154076  0.6099776983649149  0.23550054217553643  1.0000
  H   H15       1.0  0.7765958513681853  0.5352243932286028  0.8834140225784847  1.0000
  H   H16       1.0  0.22339341950480227  0.46477603149713803  0.11659424850240184  1.0000
  H   H17       1.0  0.8881872414553275  0.5004970716269241  0.5587667560050277  1.0000
  H   H18       1.0  0.11181885563137688  0.49949683373325376  0.44123682839851586  1.0000
  H   H19       1.0  0.7441448147029633  0.38434282483651583  0.5906511911286072  1.0000
  H   H20       1.0  0.25585119239198656  0.6156549961256133  0.40935362328166036  1.0000
  H   H21       1.0  0.65013572739597  0.5705797653739495  0.41067909217021265  1.0000
  H   H22       1.0  0.349873813479988  0.4294153902480248  0.5893255967873825  1.0000
  H   H23       1.0  0.37729604895044133  0.8527700116270724  0.4530531514963981  1.0000
  H   H24       1.0  0.622731148858975  0.1472224726847173  0.546941106297332  1.0000
  H   H25       1.0  0.366824270436048  0.004972106154966102  0.6284358376410991  1.0000
  H   H26       1.0  0.6331862843855024  0.9950320239352096  0.3715599837215889  1.0000
  H   H27       1.0  0.25156379007862734  0.8717056254890355  0.6911330688659518  1.0000
  H   H28       1.0  0.7484411625914191  0.12829344072491716  0.308857937298498  1.0000
  C   C1        1.0  0.6517037891970863  0.5842367671305694  0.7192246594379905  1.0000
  C   C2        1.0  0.34830041639881415  0.4157610087030364  0.2807727268805634  1.0000
  C   C3        1.0  0.49067427750737397  0.5278598929402137  0.7881228886573266  1.0000
  C   C4        1.0  0.509319184229014  0.4721430724276772  0.21188010682349998  1.0000
  C   C5        1.0  0.4447458711849635  0.8314171646029963  0.856107261462739  1.0000
  C   C6        1.0  0.5552511307339929  0.16858961755195878  0.14389395868488455  1.0000
  C   C7        1.0  0.5526691604937426  0.7840536691215689  0.7238252370446858  1.0000
  C   C8        1.0  0.44733447488000166  0.2159479383193812  0.2761771640970067  1.0000
  C   C9        1.0  0.7257996796548414  0.8383043162264984  0.6842408059198062  1.0000
  C   C10       1.0  0.27420052467736883  0.16169604980290594  0.3157569751129897  1.0000
  C   C11       1.0  0.8268124622161467  0.5232242598210279  0.7847945801547666  1.0000
  C   C12       1.0  0.17318563871703674  0.4767748303558932  0.2152080358998275  1.0000
  C   C13       1.0  0.7320290383458858  0.5157735049701059  0.5894331175367781  1.0000
  C   C14       1.0  0.2679757828746078  0.4842229703803937  0.4105704362907544  1.0000
  C   C15       1.0  0.6103253419910931  0.6251189387492743  0.4998352981417183  1.0000
  C   C16       1.0  0.3896843285705246  0.3748595814023546  0.500167349875788  1.0000
  C   C17       1.0  0.46068615780806954  0.7822851173822445  0.5232331814835118  1.0000
  C   C18       1.0  0.5393095841793283  0.21772424582583477  0.47676361364455017  1.0000
  C   C19       1.0  0.39776961260723454  0.8681858566434217  0.6421899643338874  1.0000
  C   C20       1.0  0.6022361421001822  0.13181703771283543  0.3578032073424423  1.0000
  S   S1        1.0  0.36182716412722005  0.6648803497597984  0.9202674273448324  1.0000
  S   S2        1.0  0.6381670319355949  0.3351238971381962  0.07973270353674165  1.0000
  S   S3        1.0  0.9500887597589132  0.6637718759919338  0.7282779452623839  1.0000
  S   S4        1.0  0.04990862596942952  0.33622594593026633  0.2717222620591996  1.0000
  Cl  Cl1       1.0  0.8832107242057816  0.0874570963699668  0.841117525967881  1.0000
  Cl  Cl2       1.0  0.11677198411030099  0.912551051894532  0.15889371534136384  1.0000
  Cl  Cl3       1.0  0.7538946507009502  0.706896441403778  0.08899273060077913  1.0000
  Cl  Cl4       1.0  0.24609937807066737  0.2931026901441953  0.9110061289456223  1.0000
