data_image0
_chemical_formula_structural       Al4H16C56N4O20
_chemical_formula_sum              "Al4 H16 C56 N4 O20"
_cell_length_a       6.675102029238946
_cell_length_b       18.78294075164339
_cell_length_c       22.055942642879426
_cell_angle_alpha    93.29996162562314
_cell_angle_beta     89.99927039500692
_cell_angle_gamma    89.99793708223577

_space_group_name_H-M_alt    "P 1"
_space_group_IT_number       1

loop_
  _space_group_symop_operation_xyz
  'x, y, z'

loop_
  _atom_site_type_symbol
  _atom_site_label
  _atom_site_symmetry_multiplicity
  _atom_site_fract_x
  _atom_site_fract_y
  _atom_site_fract_z
  _atom_site_occupancy
  Al  Al1       1.0  0.2253702718454633  0.7495895810263847  0.7496581874798448  1.0000
  Al  Al2       1.0  0.7746382872886882  0.25040964216202616  0.2503430673328992  1.0000
  Al  Al3       1.0  0.725370063147146  0.7504193667581375  0.7503434050837041  1.0000
  Al  Al4       1.0  0.27463849552626135  0.2495884311358409  0.24965881830708975  1.0000
  H   H1        1.0  0.7342308086893468  0.4211108227578535  0.1448622624264999  1.0000
  H   H2        1.0  0.2657792482854049  0.5788937004886138  0.8551385759517484  1.0000
  H   H3        1.0  0.234203764050136  0.07889204076558802  0.35513075891314116  1.0000
  H   H4        1.0  0.7657598528737635  0.9210965442126526  0.6448522629466139  1.0000
  H   H5        1.0  0.5627536483670496  0.5208104038200221  0.09645020268595057  1.0000
  H   H6        1.0  0.4372579068112472  0.47919201515587434  0.9035510747392762  1.0000
  H   H7        1.0  0.0627268982959777  0.9791953786003943  0.4035498775622912  1.0000
  H   H8        1.0  0.9372187408655107  0.020798177048639798  0.5964454360058936  1.0000
  H   H9        1.0  0.5482717429132292  0.6063035646260246  0.015584202122745697  1.0000
  H   H10       1.0  0.45176228399644464  0.39369565839791687  0.9844170526319188  1.0000
  H   H11       1.0  0.048232467711699194  0.8937007807346403  0.4844154787695841  1.0000
  H   H12       1.0  0.9517176653431675  0.1062989229115416  0.5155848716864142  1.0000
  H   H13       1.0  0.477290579122176  0.662630995794352  0.7212149296857148  1.0000
  H   H14       1.0  0.5227254703814809  0.337370462991565  0.2787881567092468  1.0000
  H   H15       1.0  0.9772787590353146  0.8373730145815161  0.778793218970442  1.0000
  H   H16       1.0  0.022737290326347203  0.162630653573288  0.22121124489387253  1.0000
  C   C1        1.0  0.4747100934608142  0.8348882776072061  0.836671405823452  1.0000
  C   C2        1.0  0.5252984647759077  0.1651261746704193  0.16333540410536068  1.0000
  C   C3        1.0  0.9746982747957845  0.6651192580450314  0.6633326938226103  1.0000
  C   C4        1.0  0.025304291936023994  0.3348803927085627  0.3366667482539256  1.0000
  C   C5        1.0  0.47533833199854314  0.8330543113463378  0.6702026230677587  1.0000
  C   C6        1.0  0.5246612389790997  0.1669372448015096  0.3297949459475689  1.0000
  C   C7        1.0  0.9753044748881196  0.6669434449747629  0.829798226995514  1.0000
  C   C8        1.0  0.024705582175016602  0.33305900028781105  0.1702035045630623  1.0000
  C   C9        1.0  0.17944276999601527  0.3813280867162234  0.07524698194125529  1.0000
  C   C10       1.0  0.820576275768815  0.6186741745493196  0.924751570687256  1.0000
  C   C11       1.0  0.6794114556620059  0.1186640555334506  0.42475120180011305  1.0000
  C   C12       1.0  0.32055066275346883  0.8813269156677845  0.575245455270874  1.0000
  C   C13       1.0  0.020987443770479803  0.3802032618995597  0.11776166685118028  1.0000
  C   C14       1.0  0.9790211150736781  0.6198008601070981  0.8822414384102897  1.0000
  C   C15       1.0  0.5209802395483436  0.1197916170067757  0.38223996813390226  1.0000
  C   C16       1.0  0.47901184121381146  0.8801945340137111  0.6177562008098291  1.0000
  C   C17       1.0  0.8562683718975495  0.4248627303470728  0.11238479598300438  1.0000
  C   C18       1.0  0.14373269628711677  0.5751440548803188  0.8876183281449811  1.0000
  C   C19       1.0  0.3562463654533444  0.0751311455551829  0.3876176030156485  1.0000
  C   C20       1.0  0.6437172517349339  0.9248479500159732  0.6123762463347971  1.0000
  C   C21       1.0  0.8462804245494199  0.4739055610492785  0.0669348904127958  1.0000
  C   C22       1.0  0.15373862136264188  0.5260907553115217  0.9330713371860354  1.0000
  C   C23       1.0  0.3462630821721859  0.026095236684490396  0.43306533249123885  1.0000
  C   C24       1.0  0.6537170133031013  0.9739003967259309  0.5669290878180249  1.0000
  C   C25       1.0  0.004515823356584299  0.47560364897963575  0.023470946319683595  1.0000
  C   C26       1.0  0.9955107128133136  0.5244021567398818  0.9765244537713824  1.0000
  C   C27       1.0  0.5044815773768009  0.0243947245714722  0.476523070037963  1.0000
  C   C28       1.0  0.49548503563126894  0.9755913740594837  0.523472190703977  1.0000
  C   C29       1.0  0.17120477973509907  0.4282316462874078  0.026834019061688297  1.0000
  C   C30       1.0  0.828796288497159  0.5717754876354846  0.9731659299266083  1.0000
  C   C31       1.0  0.6711687988480931  0.07176364053430721  0.473161500105263  1.0000
  C   C32       1.0  0.3287798370177981  0.9282193937908829  0.5268360087080524  1.0000
  C   C33       1.0  0.6827449252544042  0.5225548699363645  0.06294714539372849  1.0000
  C   C34       1.0  0.3172636335871388  0.4774511198382214  0.9370514336479016  1.0000
  C   C35       1.0  0.1827169722059026  0.9774458182526472  0.4370555400713199  1.0000
  C   C36       1.0  0.8172586290389532  0.022544027944036295  0.5629492799981434  1.0000
  C   C37       1.0  0.6746296832870228  0.5698577278248109  0.018205329496211693  1.0000
  C   C38       1.0  0.32536988663918004  0.43015222694210564  0.9817973631245632  1.0000
  C   C39       1.0  0.17460175082566556  0.9301407506988966  0.4817941989950611  1.0000
  C   C40       1.0  0.8253453869036207  0.06984236246695731  0.518204672211489  1.0000
  C   C41       1.0  0.024488684951528197  0.3847181790694308  0.38865289368570183  1.0000
  C   C42       1.0  0.9755288618462218  0.6152973646960973  0.6113543778923187  1.0000
  C   C43       1.0  0.5245036092729265  0.11529450127616063  0.11134431215572956  1.0000
  C   C44       1.0  0.47550494992292863  0.8847064320181915  0.8886496916575408  1.0000
  C   C45       1.0  0.015976294126509995  0.428844291644353  0.4317603413738451  1.0000
  C   C46       1.0  0.9840607282936132  0.5711692073830433  0.5682391986411517  1.0000
  C   C47       1.0  0.5159930389617244  0.0711768105661292  0.0682333305689653  1.0000
  C   C48       1.0  0.4840245081027276  0.9288390101584484  0.9317603246506749  1.0000
  C   C49       1.0  0.0054081969314979  0.47744810376169533  0.47859549764577014  1.0000
  C   C50       1.0  0.9946512973379313  0.522561910266788  0.5213990242693357  1.0000
  C   C51       1.0  0.5053989131845001  0.022564744341615005  0.021400432891304895  1.0000
  C   C52       1.0  0.4946261245146104  0.9774470780287673  0.9785977334515505  1.0000
  C   C53       1.0  0.34811819257313187  0.33488483196146746  0.07727975879900839  1.0000
  C   C54       1.0  0.6519023514106764  0.6651157525599984  0.9227174201266095  1.0000
  C   C55       1.0  0.84808218752174  0.16510744628271826  0.42272084957689054  1.0000
  C   C56       1.0  0.151890417455391  0.8348862668541557  0.5772771887094164  1.0000
  N   N1        1.0  0.4911711189335434  0.29897132403990406  0.07323935749602128  1.0000
  N   N2        1.0  0.508832945977744  0.7010281427650326  0.9267569056675311  1.0000
  N   N3        1.0  0.9911627148941449  0.2010278125290412  0.4267638375491813  1.0000
  N   N4        1.0  0.0088113878095868  0.798968688060974  0.5732455690617114  1.0000
  O   O1        1.0  0.6444117575322963  0.8173171823232509  0.6922315232346745  1.0000
  O   O2        1.0  0.3555788241563462  0.1826857694225623  0.30776975800826983  1.0000
  O   O3        1.0  0.1444449096640525  0.6826900425780807  0.8077686031529934  1.0000
  O   O4        1.0  0.8555636492410345  0.31731253407915017  0.1922353990586956  1.0000
  O   O5        1.0  0.3049223561305467  0.8157679227863994  0.8151084845895369  1.0000
  O   O6        1.0  0.6950727198988814  0.1842344962959217  0.18489279287327065  1.0000
  O   O7        1.0  0.8049601160579059  0.6842344870212359  0.6848895284246409  1.0000
  O   O8        1.0  0.1950469447079541  0.31577003624458655  0.31511130996044295  1.0000
  O   O9        1.0  0.3042178994369138  0.8147591087324103  0.6892531015570994  1.0000
  O   O10       1.0  0.6957801732106218  0.1852371885813824  0.310743593130745  1.0000
  O   O11       1.0  0.8042518601608605  0.6852430928875889  0.8107503604682975  1.0000
  O   O12       1.0  0.19577167963594633  0.3147617193187742  0.1892554733085205  1.0000
  O   O13       1.0  0.1456578554628933  0.6841748334333033  0.6839981258688821  1.0000
  O   O14       1.0  0.8543432133043679  0.3158202863896591  0.3160058235814843  1.0000
  O   O15       1.0  0.6456482125595429  0.815829896417128  0.816005154992794  1.0000
  O   O16       1.0  0.35437982188084755  0.1841717796019111  0.18399248558545617  1.0000
  O   O17       1.0  0.4758900673899191  0.7064874643126018  0.7467074275449476  1.0000
  O   O18       1.0  0.5241259820601343  0.29351412585830167  0.2532979294997019  1.0000
  O   O19       1.0  0.9758763173526218  0.7935184319318437  0.7532962012838026  1.0000
  O   O20       1.0  0.024126249133388497  0.20648507864805046  0.24670553783163027  1.0000
