data_image0
_chemical_formula_structural       Cd2H36C40N8O14
_chemical_formula_sum              "Cd2 H36 C40 N8 O14"
_cell_length_a       7.926485403796275
_cell_length_b       11.264007491150375
_cell_length_c       15.310944948131212
_cell_angle_alpha    107.10762363598779
_cell_angle_beta     96.3419478497605
_cell_angle_gamma    109.43598038115395

_space_group_name_H-M_alt    "P 1"
_space_group_IT_number       1

loop_
  _space_group_symop_operation_xyz
  'x, y, z'

loop_
  _atom_site_type_symbol
  _atom_site_label
  _atom_site_symmetry_multiplicity
  _atom_site_fract_x
  _atom_site_fract_y
  _atom_site_fract_z
  _atom_site_occupancy
  Cd  Cd1       1.0  0.7439086047823835  0.5912078845870354  0.1548461523176243  1.0000
  Cd  Cd2       1.0  0.25609196899998204  0.4087875470564341  0.8451575655861988  1.0000
  H   H1        1.0  0.4102973117197522  0.7624071888512631  0.6982374434175825  1.0000
  H   H2        1.0  0.5897102278208096  0.23758454441181695  0.3017517698677424  1.0000
  H   H3        1.0  0.9246684048013095  0.3195428970260678  0.6777225705211692  1.0000
  H   H4        1.0  0.0753489566801449  0.6804880313779406  0.32227835674318334  1.0000
  H   H5        1.0  0.6742489254614626  0.2741425688790215  0.10885544673534041  1.0000
  H   H6        1.0  0.325768165720021  0.7258471387569757  0.8911452808429559  1.0000
  H   H7        1.0  0.5611266914323566  0.0673991483736742  0.9653440160395805  1.0000
  H   H8        1.0  0.43889993260187776  0.9325933333072101  0.03465076437446861  1.0000
  H   H9        1.0  0.713814262400902  0.3252193033762368  0.8034271472032233  1.0000
  H   H10       1.0  0.2862030919269714  0.674765286306517  0.19657006853575607  1.0000
  H   H11       1.0  0.8208662701704625  0.5212178088357148  0.9524177272724758  1.0000
  H   H12       1.0  0.17913705515931622  0.47877426631658443  0.0475784108655688  1.0000
  H   H13       1.0  0.5612545977635007  0.08952730436250529  0.7185052860362902  1.0000
  H   H14       1.0  0.4387340833613964  0.9104666169529666  0.28149395086054346  1.0000
  H   H15       1.0  0.9164441138867758  0.9097046422128158  0.2667728990852183  1.0000
  H   H16       1.0  0.08355484106209586  0.09030554541309499  0.7332320224907891  1.0000
  H   H17       1.0  0.9244720664426325  0.0838217049816876  0.4157062721439574  1.0000
  H   H18       1.0  0.075512720909309  0.9161817465153701  0.5842897825268523  1.0000
  H   H19       1.0  0.504730460498898  0.7677114144821642  0.46595325183416497  1.0000
  H   H20       1.0  0.49526598275893724  0.23230982548422927  0.5340567199153767  1.0000
  H   H21       1.0  0.5084865414057164  0.6085672194189655  0.3131024605408967  1.0000
  H   H22       1.0  0.4915157458428894  0.39144850983512913  0.6869115666520998  1.0000
  H   H23       1.0  0.6272611805910272  0.9923410506068747  0.5861690279913958  1.0000
  H   H24       1.0  0.3727094919535999  0.007677985137540601  0.41383000823906724  1.0000
  H   H25       1.0  0.16915808447632247  0.9892487354536358  0.14186120877330669  1.0000
  H   H26       1.0  0.8308468896396235  0.010733339033805606  0.8581313076543184  1.0000
  H   H27       1.0  0.6946048381304737  0.8206625797707756  0.9121612880379646  1.0000
  H   H28       1.0  0.3054039113826478  0.1793181036057518  0.08783912865155942  1.0000
  H   H29       1.0  0.6605320123248148  0.4302963034226648  0.4597630078446713  1.0000
  H   H30       1.0  0.3394666293019454  0.5696918861698419  0.5402353362687506  1.0000
  H   H31       1.0  0.17852034111957246  0.536289412890845  0.3798764273059803  1.0000
  H   H32       1.0  0.8214745866852838  0.46370649209738707  0.6201210410656445  1.0000
  H   H33       1.0  0.5026621744981128  0.4004245316569807  0.19574253115983  1.0000
  H   H34       1.0  0.4973614115523261  0.5995892382708803  0.8042643231064021  1.0000
  H   H35       1.0  0.3970017180466102  0.38467382746530626  0.0924944787233528  1.0000
  H   H36       1.0  0.6030069575477413  0.615322932588313  0.9075120796614939  1.0000
  C   C1        1.0  0.6811132795978737  0.2812793237094269  0.03966546581388295  1.0000
  C   C2        1.0  0.31887784547104303  0.7187084214616916  0.960328279497034  1.0000
  C   C3        1.0  0.6176276345823766  0.16643145678301607  0.9598878376843276  1.0000
  C   C4        1.0  0.38237598646034593  0.8335554601231858  0.040104129739113  1.0000
  C   C5        1.0  0.6234997748468485  0.17915306257255992  0.8715531534448788  1.0000
  C   C6        1.0  0.37648555852999277  0.8208337440859665  0.12844323757089168  1.0000
  C   C7        1.0  0.701581197378914  0.309678477818629  0.8696615535162522  1.0000
  C   C8        1.0  0.2984108650045557  0.69032090860086  0.1303297689527553  1.0000
  C   C9        1.0  0.7625965219822036  0.41922577627576635  0.9526844846226654  1.0000
  C   C10       1.0  0.2373939381950977  0.5807579832034477  0.047308495062622996  1.0000
  C   C11       1.0  0.5559793483738175  0.06634248317934067  0.7829986542640485  1.0000
  C   C12       1.0  0.444005136602506  0.9336485574436605  0.21700300691252744  1.0000
  C   C13       1.0  0.8265737205359259  0.883683219217609  0.3129485832193454  1.0000
  C   C14       1.0  0.1734273201247944  0.11632123548530159  0.6870580943988572  1.0000
  C   C15       1.0  0.8320671725442992  0.9791075691337453  0.39574121417854263  1.0000
  C   C16       1.0  0.16793032901777136  0.020912377399909608  0.6042633758561708  1.0000
  C   C17       1.0  0.7180964889968422  0.9391192828890663  0.4545124104475491  1.0000
  C   C18       1.0  0.28189340092159654  0.06089554449131641  0.5454913165734612  1.0000
  C   C19       1.0  0.5991239628167906  0.8031162751367803  0.42404993683388886  1.0000
  C   C20       1.0  0.4008871655450932  0.19691746114337147  0.5759667020869729  1.0000
  C   C21       1.0  0.6006932212419258  0.7143154958417027  0.339428204260642  1.0000
  C   C22       1.0  0.3993047405358325  0.2856959046312397  0.6605807812796202  1.0000
  C   C23       1.0  0.7201169161218103  0.0315732678962348  0.5442752430045914  1.0000
  C   C24       1.0  0.27988960078588604  0.9684436924974024  0.4557255995997735  1.0000
  C   C25       1.0  0.8502444131490849  0.7766698043764677  0.06320103564379313  1.0000
  C   C26       1.0  0.1497412449494107  0.2233182086136338  0.9367988680527477  1.0000
  C   C27       1.0  0.9248416101236573  0.8918479242492339  0.030213601744812  1.0000
  C   C28       1.0  0.07516173588223297  0.10813613271093905  0.9697797949832108  1.0000
  C   C29       1.0  0.09573435619137181  0.9947450902877008  0.07985595169725457  1.0000
  C   C30       1.0  0.9042639008084095  0.005232382338050512  0.9201437158118682  1.0000
  C   C31       1.0  0.8289349259808174  0.8983846256587426  0.9503415485378427  1.0000
  C   C32       1.0  0.1710647321070553  0.10158953728416259  0.0496517493642585  1.0000
  C   C33       1.0  0.8111608315008425  0.46504298206915695  0.3152259008565323  1.0000
  C   C34       1.0  0.18885784121070504  0.534970370699227  0.6847759109155049  1.0000
  C   C35       1.0  0.9095247947149403  0.4813848339163797  0.41005620583997887  1.0000
  C   C36       1.0  0.0904682717861364  0.518622926815418  0.5899432366331185  1.0000
  C   C37       1.0  0.8092848946213423  0.46033193161203206  0.47786333723137636  1.0000
  C   C38       1.0  0.1907159489700732  0.5396759511983403  0.5221354330419672  1.0000
  C   C39       1.0  0.10099796718105838  0.5210113318432831  0.4328660880519378  1.0000
  C   C40       1.0  0.8990004619280897  0.47897871282792437  0.5671306084525513  1.0000
  N   N1        1.0  0.7501571342908877  0.4068133706691484  0.03683021736095069  1.0000
  N   N2        1.0  0.2498311270265746  0.593174669582865  0.9631692426439074  1.0000
  N   N3        1.0  0.4983607666099133  0.943530247719572  0.7805642937794846  1.0000
  N   N4        1.0  0.501622956719075  0.056455318830003896  0.21942847696370654  1.0000
  N   N5        1.0  0.7134361246327073  0.7527401965508601  0.2846244078443121  1.0000
  N   N6        1.0  0.2865661207727826  0.24726279948637145  0.7153899548521852  1.0000
  N   N7        1.0  0.8339926779940541  0.155600690102041  0.5737305607723402  1.0000
  N   N8        1.0  0.1660235600500429  0.8444316123204133  0.4262770659574002  1.0000
  O   O1        1.0  0.4459316140298597  0.8523523095044608  0.6898189230491811  1.0000
  O   O2        1.0  0.5540728140611789  0.14764640982151178  0.3101732570334832  1.0000
  O   O3        1.0  0.820363909513233  0.22912200179175093  0.6599121566943894  1.0000
  O   O4        1.0  0.1796340246906992  0.7709101944445603  0.3400841913334247  1.0000
  O   O5        1.0  0.950200209411733  0.7739297711539307  0.13348293303130987  1.0000
  O   O6        1.0  0.04977459532736361  0.2260602699171912  0.8665217099499999  1.0000
  O   O7        1.0  0.690725355944629  0.684815518136915  0.02212410066354659  1.0000
  O   O8        1.0  0.3092574692990411  0.31517593599158994  0.9778689982550973  1.0000
  O   O9        1.0  0.8984134265396194  0.539928527157457  0.2728825327343499  1.0000
  O   O10       1.0  0.1016077217385458  0.46008021843380215  0.7271232300100863  1.0000
  O   O11       1.0  0.6460650244173111  0.38004474381879305  0.2819648114164154  1.0000
  O   O12       1.0  0.3539560777339048  0.619959250516409  0.7180276670720147  1.0000
  O   O13       1.0  0.4563360258739949  0.4474955919625714  0.15911893031521626  1.0000
  O   O14       1.0  0.5436701741537391  0.552505775268173  0.8408836770972243  1.0000
