data_image0
_chemical_formula_structural       Zn2H13C32Br8N7O8
_chemical_formula_sum              "Zn2 H13 C32 Br8 N7 O8"
_cell_length_a       10.926490778418568
_cell_length_b       16.24237457982213
_cell_length_c       17.25008839631319
_cell_angle_alpha    96.79611997396835
_cell_angle_beta     92.50839149933752
_cell_angle_gamma    93.21983282900983

_space_group_name_H-M_alt    "P 1"
_space_group_IT_number       1

loop_
  _space_group_symop_operation_xyz
  'x, y, z'

loop_
  _atom_site_type_symbol
  _atom_site_label
  _atom_site_symmetry_multiplicity
  _atom_site_fract_x
  _atom_site_fract_y
  _atom_site_fract_z
  _atom_site_occupancy
  Zn  Zn1       1.0  0.4983388335485158  0.4107615607837333  0.5033773216568703  1.0000
  Zn  Zn2       1.0  0.5173582992378486  0.5900421705274115  0.5066776486888926  1.0000
  H   H1        1.0  0.37864687548361786  0.7080403856229083  0.43808140670724066  1.0000
  H   H2        1.0  0.36078965724369283  0.8624729024112132  0.4353925565230412  1.0000
  H   H3        1.0  0.3377820495839856  0.10709762016585243  0.3837043843171344  1.0000
  H   H4        1.0  0.6203977955272036  0.11521183466413733  0.5677330374090062  1.0000
  H   H5        1.0  0.41620461684355087  0.6032736308059372  0.25945849225111317  1.0000
  H   H6        1.0  0.4060798524953952  0.5901484600525537  0.1124458576365654  1.0000
  H   H7        1.0  0.5383177340402839  0.6563920682664205  0.9149562134817157  1.0000
  H   H8        1.0  0.4125307978608461  0.39877248053653613  0.8826047323782544  1.0000
  H   H9        1.0  0.8910796759330567  0.35354493788281627  0.49960230311982906  1.0000
  H   H10       1.0  0.8848043907551216  0.6159862816705941  0.48939442737866296  1.0000
  H   H11       1.0  0.12169311212255711  0.36677197193051836  0.5039487313818043  1.0000
  H   H12       1.0  0.21564078025956226  0.6510856332314321  0.4988583659310918  1.0000
  H   H13       1.0  0.0742893587163707  0.6968711481782537  0.5033461098931581  1.0000
  C   C1        1.0  0.5053812031971745  0.5035927677001979  0.3532860879370219  1.0000
  C   C2        1.0  0.26992083545500384  0.5000729827983222  0.5013423109264108  1.0000
  C   C3        1.0  0.4985459730646227  0.5236168307432437  0.6555184369005501  1.0000
  C   C4        1.0  0.7384161712475574  0.48144136193639053  0.49752123801924597  1.0000
  C   C5        1.0  0.44517368215531405  0.7539477492709565  0.46962384759928694  1.0000
  C   C6        1.0  0.43612965742730847  0.8383589699634088  0.46751774956613446  1.0000
  C   C7        1.0  0.5259424868118288  0.893409020038661  0.5092372771869264  1.0000
  C   C8        1.0  0.6233147177661564  0.861041389285191  0.5495171563551224  1.0000
  C   C9        1.0  0.6251171349775718  0.7743749385565906  0.548193108027057  1.0000
  C   C10       1.0  0.4003101713562955  0.1411950543699519  0.4285392886872187  1.0000
  C   C11       1.0  0.47737948468132185  0.09994986188033295  0.4753963450740101  1.0000
  C   C12       1.0  0.5581250520855151  0.14604216601165382  0.531462790458832  1.0000
  C   C13       1.0  0.5575806828091957  0.23210707206702358  0.5386711791897482  1.0000
  C   C14       1.0  0.4054502294437513  0.22787345023857603  0.4412579537773951  1.0000
  C   C15       1.0  0.5077199667441192  0.4908564769696682  0.2653358176006435  1.0000
  C   C16       1.0  0.45377493437218425  0.5508957898283883  0.22499895731412775  1.0000
  C   C17       1.0  0.4482118577693229  0.544079872130908  0.14424800344926328  1.0000
  C   C18       1.0  0.49726415777293204  0.4761579260127533  0.10088199915968227  1.0000
  C   C19       1.0  0.5520121991958291  0.41519662845158234  0.1402423895754765  1.0000
  C   C20       1.0  0.558364090442076  0.4228699139697056  0.22238679148453844  1.0000
  C   C21       1.0  0.5122841952639446  0.60016474591135  0.8755755754282148  1.0000
  C   C22       1.0  0.48125419889188237  0.5269904452163917  0.9071775192929791  1.0000
  C   C23       1.0  0.4419911275835701  0.45465235946658583  0.8576708131780747  1.0000
  C   C24       1.0  0.4404026018158476  0.456331387536956  0.7773490937523844  1.0000
  C   C25       1.0  0.48153762588086113  0.5273614050041079  0.7425116070570468  1.0000
  C   C26       1.0  0.5127301877135295  0.5998603478407604  0.7949022142234411  1.0000
  C   C27       1.0  0.13361472588556472  0.49749011897866796  0.4974578662965711  1.0000
  C   C28       1.0  0.8753857947262702  0.4850703813419558  0.49523230851672645  1.0000
  C   C29       1.0  0.0668600549896965  0.56984830600954  0.4927908352922826  1.0000
  C   C30       1.0  0.9408607476648285  0.4132261979163091  0.4979205074632062  1.0000
  C   C31       1.0  0.9378489657873533  0.5614610409017191  0.49233595793000967  1.0000
  C   C32       1.0  0.0680233989944554  0.42073798216467406  0.499814572967459  1.0000
  Br  Br1       1.0  0.7541167752078123  0.7286092400508436  0.6006498743093402  1.0000
  Br  Br2       1.0  0.7492061738422606  0.9342534681219093  0.6005925246676111  1.0000
  Br  Br3       1.0  0.29733227786815764  0.28119253281283824  0.378469342341134  1.0000
  Br  Br4       1.0  0.6680503468341925  0.2904965993591376  0.6154691307949419  1.0000
  Br  Br5       1.0  0.6431994717670264  0.34464114569900783  0.2740747701711257  1.0000
  Br  Br6       1.0  0.6225422039758045  0.3267633848243678  0.07961022695211989  1.0000
  Br  Br7       1.0  0.5614491148005526  0.7048336844751336  0.7631047207127536  1.0000
  Br  Br8       1.0  0.36886160301832394  0.3580524690902181  0.716491433109006  1.0000
  N   N1        1.0  0.5367811754495619  0.7225923574471267  0.5100712091949545  1.0000
  N   N2        1.0  0.5218914450698405  0.9803656141858571  0.5180443902848637  1.0000
  N   N3        1.0  0.47435663988876087  0.011677175271316299  0.46127425990492543  1.0000
  N   N4        1.0  0.4826322875239556  0.27398927115037713  0.49479250124480956  1.0000
  N   N5        1.0  0.49139244100445023  0.46598446972129903  0.018361683263087503  1.0000
  N   N6        1.0  0.49136569546811865  0.5341629010509197  0.9895827313233453  1.0000
  N   N7        1.0  0.12303261092630889  0.6467967337431234  0.4881716667212642  1.0000
  O   O1        1.0  0.48241765356245764  0.4403420594558939  0.3877676889658587  1.0000
  O   O2        1.0  0.5229449152624711  0.5784614322213386  0.3852453972489086  1.0000
  O   O3        1.0  0.32906594223633334  0.5677892034005368  0.4893878120718468  1.0000
  O   O4        1.0  0.32068344662668835  0.43449559609066324  0.5167106463444497  1.0000
  O   O5        1.0  0.4820215037644359  0.5888130381827993  0.6233107208499999  1.0000
  O   O6        1.0  0.5319673750260137  0.45549396391871266  0.6219477281945842  1.0000
  O   O7        1.0  0.6810213724193731  0.4102556049773086  0.4877916626095881  1.0000
  O   O8        1.0  0.6890265375888376  0.5508031281131595  0.5102482303786218  1.0000
