data_image0
_chemical_formula_structural       Cd2H22C22S2N4O10
_chemical_formula_sum              "Cd2 H22 C22 S2 N4 O10"
_cell_length_a       5.827071924312842
_cell_length_b       10.383084461502968
_cell_length_c       11.137024938798142
_cell_angle_alpha    93.62652655206601
_cell_angle_beta     92.47881016072841
_cell_angle_gamma    90.73665189016123

_space_group_name_H-M_alt    "P 1"
_space_group_IT_number       1

loop_
  _space_group_symop_operation_xyz
  'x, y, z'

loop_
  _atom_site_type_symbol
  _atom_site_label
  _atom_site_symmetry_multiplicity
  _atom_site_fract_x
  _atom_site_fract_y
  _atom_site_fract_z
  _atom_site_occupancy
  Cd  Cd1       1.0  0.6645461111006908  0.035784365687007415  0.1463494406525854  1.0000
  Cd  Cd2       1.0  0.33545225134846396  0.9642237890909088  0.8536460882738197  1.0000
  H   H1        1.0  0.28167084841178536  0.21940168371622096  0.3063580243627086  1.0000
  H   H2        1.0  0.7183097751344151  0.7805786928828836  0.6936567910442974  1.0000
  H   H3        1.0  0.8741500889349325  0.0362196560781243  0.4380427444827717  1.0000
  H   H4        1.0  0.12588202677579827  0.9637852076690053  0.5619415387062148  1.0000
  H   H5        1.0  0.7160260110868676  0.20265849248949755  0.621744921711425  1.0000
  H   H6        1.0  0.2840081071609505  0.7973343816467421  0.3782528352178005  1.0000
  H   H7        1.0  0.27948541855775483  0.3130541867744513  0.6278288230266753  1.0000
  H   H8        1.0  0.7205279476412088  0.6869225741767481  0.3721854625361658  1.0000
  H   H9        1.0  0.1727791522382844  0.3554535314673331  0.48419517647955956  1.0000
  H   H10       1.0  0.8272115640213543  0.6445220271357357  0.5158215161742916  1.0000
  H   H11       1.0  0.35772691887411406  0.5406947983456405  0.6092733926349752  1.0000
  H   H12       1.0  0.6422631193671152  0.45928493381884294  0.39073282772518775  1.0000
  H   H13       1.0  0.6190508088634062  0.45819873161888586  0.6170196544623465  1.0000
  H   H14       1.0  0.3809390813722259  0.5417838406173558  0.38298859706875993  1.0000
  H   H15       1.0  0.3057605850034264  0.673515373478594  0.19161779533002488  1.0000
  H   H16       1.0  0.6942403218664098  0.3264911323190419  0.8083687235449304  1.0000
  H   H17       1.0  0.30864678534749146  0.4151809213811294  0.17710371268734093  1.0000
  H   H18       1.0  0.691344784234978  0.5848252911776869  0.82289042651378  1.0000
  H   H19       1.0  0.19241767288571757  0.09549048783317463  0.0863546863851994  1.0000
  H   H20       1.0  0.8075841553444151  0.9045225104794882  0.9136414178266108  1.0000
  H   H21       1.0  0.194189881624645  0.9480013822016602  0.1067219970554802  1.0000
  H   H22       1.0  0.8058051673582723  0.052011603341647124  0.8932728808902013  1.0000
  C   C1        1.0  0.4238123733851538  0.19229308103101772  0.36593174007087004  1.0000
  C   C2        1.0  0.5761845759888332  0.807693444028338  0.634075385671366  1.0000
  C   C3        1.0  0.7284056201016538  0.09995087531950733  0.4385442099566674  1.0000
  C   C4        1.0  0.27161867851412325  0.9000497921416583  0.5614492359411258  1.0000
  C   C5        1.0  0.6538398982015465  0.18313156668967423  0.5291445147944671  1.0000
  C   C6        1.0  0.34618573174263634  0.8168622494468918  0.47085201427945117  1.0000
  C   C7        1.0  0.33010389461351514  0.34454325632336946  0.5404767809916109  1.0000
  C   C8        1.0  0.6698958493028329  0.6554363462122978  0.4595361902188131  1.0000
  C   C9        1.0  0.4655064278168766  0.4721524055133771  0.5584633094922253  1.0000
  C   C10       1.0  0.5344849894209104  0.5278272284005896  0.4415465661511107  1.0000
  C   C11       1.0  0.8563332113133056  0.7924682099045062  0.17046983856801032  1.0000
  C   C12       1.0  0.1436706560331089  0.20754297711931716  0.8295226135389767  1.0000
  C   C13       1.0  0.9338402984798718  0.6579225310341384  0.1636655593915748  1.0000
  C   C14       1.0  0.06615808439848077  0.3420885179183913  0.8363302147235672  1.0000
  C   C15       1.0  0.1542996265586325  0.6105494195124666  0.17883008640129114  1.0000
  C   C16       1.0  0.8456938477539921  0.3894597512790128  0.8211625953251128  1.0000
  C   C17       1.0  0.156187008405972  0.47424498342730464  0.1700501326742128  1.0000
  C   C18       1.0  0.8438094765519607  0.525764072017431  0.8299471806452203  1.0000
  C   C19       1.0  0.9383209815256207  0.42048632715057016  0.14685370830882497  1.0000
  C   C20       1.0  0.061670271616456766  0.5795226713771555  0.8531442480454459  1.0000
  C   C21       1.0  0.8687114931208131  0.2829134413041318  0.1348528487868634  1.0000
  C   C22       1.0  0.1312743733900703  0.7170973756534594  0.8651477000436146  1.0000
  S   S1        1.0  0.7328141870336538  0.5363254965662207  0.13444608657954396  1.0000
  S   S2        1.0  0.26717845872443746  0.46368533316072563  0.8655556885170556  1.0000
  N   N1        1.0  0.5838867680174715  0.10632530062264318  0.3378126271117878  1.0000
  N   N2        1.0  0.4161161413894519  0.8936692155641099  0.6621873655034065  1.0000
  N   N3        1.0  0.46063662361257224  0.24108559489005896  0.48135627040016965  1.0000
  N   N4        1.0  0.5393688004455727  0.7588980587192397  0.5186519197382111  1.0000
  O   O1        1.0  0.6406539458815742  0.8118048752682727  0.15847856332690213  1.0000
  O   O2        1.0  0.35934812138128797  0.18820627474892868  0.8415146984524355  1.0000
  O   O3        1.0  0.003773581528505999  0.8848152619530513  0.18979498322618585  1.0000
  O   O4        1.0  0.9962305384701083  0.11519600622505521  0.8101947899074916  1.0000
  O   O5        1.0  0.6587990525185745  0.25543602518804687  0.1065981568640026  1.0000
  O   O6        1.0  0.34118484547395406  0.7445747006600668  0.8934049876210324  1.0000
  O   O7        1.0  0.0189216573228137  0.1979153537229834  0.15819046827483157  1.0000
  O   O8        1.0  0.9810642797859969  0.8020935608362906  0.8418090241053803  1.0000
  O   O9        1.0  0.2793360494193564  0.015426917975489104  0.06425366455943049  1.0000
  O   O10       1.0  0.7206589995635609  0.9845860675678182  0.935741213386251  1.0000
