data_image0
_chemical_formula_structural       Zn2H16C46Br4N2O12
_chemical_formula_sum              "Zn2 H16 C46 Br4 N2 O12"
_cell_length_a       14.526252654506369
_cell_length_b       14.471730881477903
_cell_length_c       15.704954137986483
_cell_angle_alpha    80.31204328384709
_cell_angle_beta     89.75082175879385
_cell_angle_gamma    74.40978608819589

_space_group_name_H-M_alt    "P 1"
_space_group_IT_number       1

loop_
  _space_group_symop_operation_xyz
  'x, y, z'

loop_
  _atom_site_type_symbol
  _atom_site_label
  _atom_site_symmetry_multiplicity
  _atom_site_fract_x
  _atom_site_fract_y
  _atom_site_fract_z
  _atom_site_occupancy
  Zn  Zn1       1.0  0.4696527394726716  0.6013768984019946  0.5176290777317759  1.0000
  Zn  Zn2       1.0  0.5302868935018737  0.4069222236788121  0.4861552756744628  1.0000
  H   H1        1.0  0.4210708858479109  0.7656972184886895  0.9419718067820283  1.0000
  H   H2        1.0  0.6865005186239229  0.25989530156673624  0.05642780445255369  1.0000
  H   H3        1.0  0.4951254523353512  0.5414365288370534  0.7815557231812844  1.0000
  H   H4        1.0  0.5609755829762763  0.4690088162172259  0.2230647359091691  1.0000
  H   H5        1.0  0.6378590776130723  0.24764110337954998  0.7561733687967375  1.0000
  H   H6        1.0  0.41814723564414197  0.7615507810252352  0.24988800405057526  1.0000
  H   H7        1.0  0.47156384840806737  0.6432197893176903  0.8506580206217504  1.0000
  H   H8        1.0  0.6326980024920418  0.3820956298095269  0.1481856310901577  1.0000
  H   H9        1.0  0.7266336975183239  0.9536998496565872  0.3824405389564943  1.0000
  H   H10       1.0  0.3804851075220841  0.007846865563735202  0.7122567008895115  1.0000
  H   H11       1.0  0.5145627338545539  0.7816377744687487  0.4612617394834685  1.0000
  H   H12       1.0  0.4596936327712627  0.23935017793425575  0.5176942842333644  1.0000
  H   H13       1.0  0.3564095393114784  0.6911581155956695  0.6615465349555691  1.0000
  H   H14       1.0  0.6779470400902242  0.3028423138859751  0.3705507563592007  1.0000
  H   H15       1.0  0.678954121687923  0.678929478911165  0.5173115501630079  1.0000
  H   H16       1.0  0.5260295967141603  0.24098021876282882  0.6652054070401618  1.0000
  C   C1        1.0  0.4959632822149018  0.5780740535146761  0.3401519994755446  1.0000
  C   C2        1.0  0.5313980341085839  0.42509353950171663  0.6671137952746021  1.0000
  C   C3        1.0  0.5197672572456895  0.5689140525583057  0.10091850231892607  1.0000
  C   C4        1.0  0.5627800061358103  0.44925293447114  0.9009896978975717  1.0000
  C   C5        1.0  0.4708452049070644  0.6670768324862452  0.06273834505546462  1.0000
  C   C6        1.0  0.6174896538687946  0.3527865605912767  0.9384603552139693  1.0000
  C   C7        1.0  0.5554607649475259  0.4975658514502824  0.04554185247165072  1.0000
  C   C8        1.0  0.5344515897315106  0.5229030550470171  0.9553064122561282  1.0000
  C   C9        1.0  0.48571759441674084  0.6213787583453367  0.9201745652941893  1.0000
  C   C10       1.0  0.6118555593444271  0.40143342367247936  0.07962625272894289  1.0000
  C   C11       1.0  0.456874364946657  0.690908268732592  0.9712345139278539  1.0000
  C   C12       1.0  0.6426462537284933  0.3323079818225452  0.02842631954118959  1.0000
  C   C13       1.0  0.6771671194083951  0.15114318914876887  0.3863828147972157  1.0000
  C   C14       1.0  0.38171666554180234  0.831341634880296  0.6660066093490755  1.0000
  C   C15       1.0  0.6452289650226818  0.24624058797081727  0.39959949523188937  1.0000
  C   C16       1.0  0.3901041008079318  0.7471148571327435  0.6328443663047806  1.0000
  C   C17       1.0  0.5259799433445451  0.20906866511920444  0.4874157590591395  1.0000
  C   C18       1.0  0.4833287320690189  0.7958504220365867  0.5224787077475881  1.0000
  C   C19       1.0  0.5612868404066234  0.10863373494272818  0.4871666183057214  1.0000
  C   C20       1.0  0.4870173777654828  0.8787655993173686  0.5565910271081336  1.0000
  C   C21       1.0  0.6363689454374112  0.0784004471866169  0.4304604500762536  1.0000
  C   C22       1.0  0.428986247083209  0.9014349575895653  0.6278521061828002  1.0000
  C   C23       1.0  0.6860941679044217  0.5018584451370742  0.510898527673902  1.0000
  C   C24       1.0  0.32319038928834243  0.4985576433964169  0.5036859922602233  1.0000
  C   C25       1.0  0.5218839462358034  0.0376327242906385  0.5393475287521736  1.0000
  C   C26       1.0  0.543147458664052  0.9426070278901123  0.5190895104971104  1.0000
  C   C27       1.0  0.6211866986146504  0.9128847770799808  0.46375850721982886  1.0000
  C   C28       1.0  0.4644467533133536  0.05838032681142381  0.6126088964161127  1.0000
  C   C29       1.0  0.6665416116521713  0.9787221301397507  0.422302163922609  1.0000
  C   C30       1.0  0.42173987380715533  0.9911878950764434  0.656013852410531  1.0000
  C   C31       1.0  0.7863708947209603  0.4969729817138956  0.5116132600892911  1.0000
  C   C32       1.0  0.22559523542737736  0.49312555070979874  0.5049854676320962  1.0000
  C   C33       1.0  0.8713353495051807  0.49506617120997726  0.5107474922330225  1.0000
  C   C34       1.0  0.14141869052067343  0.49218594430569595  0.5062666668727899  1.0000
  C   C35       1.0  0.9640125164592704  0.49323863011618124  0.5094601689990625  1.0000
  C   C36       1.0  0.0492169818823953  0.49213169465862455  0.5079560594298653  1.0000
  C   C37       1.0  0.49109190129888014  0.611227112144185  0.24442894875991775  1.0000
  C   C38       1.0  0.5612270170683971  0.3981712463759735  0.7608146106606739  1.0000
  C   C39       1.0  0.436737488642649  0.7351155624390558  0.11902884631216179  1.0000
  C   C40       1.0  0.6434800748699276  0.2823865195883144  0.8831634632952187  1.0000
  C   C41       1.0  0.44610378229330666  0.7089512099276901  0.20776192459347703  1.0000
  C   C42       1.0  0.615943310304239  0.30322881499199633  0.7965748472586112  1.0000
  C   C43       1.0  0.5280076417698967  0.5434979924991055  0.19164038378625037  1.0000
  C   C44       1.0  0.5365792338372658  0.469329024042935  0.8122833636227396  1.0000
  C   C45       1.0  0.6618481898226989  0.8084623495869395  0.4519630030570312  1.0000
  C   C46       1.0  0.45171028141321307  0.1510836222063716  0.6489567900950559  1.0000
  Br  Br1       1.0  0.37305624263379406  0.8675439106562732  0.0720498238011089  1.0000
  Br  Br2       1.0  0.7189391732844399  0.15353368417937216  0.9280263664196226  1.0000
  Br  Br3       1.0  0.7762135389849265  0.1208224529988868  0.3084326913878641  1.0000
  Br  Br4       1.0  0.30568901850242014  0.850923942659243  0.7631738069374094  1.0000
  N   N1        1.0  0.5686788266718709  0.27410090358108624  0.4482539946512175  1.0000
  N   N2        1.0  0.43866220403889855  0.7318085753072199  0.560145168428299  1.0000
  O   O1        1.0  0.4634272010257376  0.6415400253572019  0.38825562995391033  1.0000
  O   O2        1.0  0.5318168051534329  0.3574455285579247  0.6235990924793597  1.0000
  O   O3        1.0  0.531298662739239  0.4872980102795453  0.3671025571503534  1.0000
  O   O4        1.0  0.5085263879455726  0.5154513719879644  0.6355081819009881  1.0000
  O   O5        1.0  0.6277778164702071  0.5859546848030915  0.5102680426459185  1.0000
  O   O6        1.0  0.3855553738077475  0.42656881506114525  0.48234508402290294  1.0000
  O   O7        1.0  0.6643984524947655  0.42247566576268986  0.511119733151169  1.0000
  O   O8        1.0  0.3374096799848517  0.5754383801359708  0.5235917607698466  1.0000
  O   O9        1.0  0.6767957845757806  0.7858562398458274  0.3805934620163781  1.0000
  O   O10       1.0  0.6787782605161327  0.7461520705001733  0.5275415971273175  1.0000
  O   O11       1.0  0.3729934292181625  0.2020399677600579  0.6622345200261818  1.0000
  O   O12       1.0  0.5356396363572531  0.16935995859290637  0.6641247118930522  1.0000
