data_image0
_chemical_formula_structural       Zn4H56C32N8O28
_chemical_formula_sum              "Zn4 H56 C32 N8 O28"
_cell_length_a       8.401382186192519
_cell_length_b       9.45717079625497
_cell_length_c       17.61989368847077
_cell_angle_alpha    90.00083655818513
_cell_angle_beta     89.99969820854407
_cell_angle_gamma    103.96254355339259

_space_group_name_H-M_alt    "P 1"
_space_group_IT_number       1

loop_
  _space_group_symop_operation_xyz
  'x, y, z'

loop_
  _atom_site_type_symbol
  _atom_site_label
  _atom_site_symmetry_multiplicity
  _atom_site_fract_x
  _atom_site_fract_y
  _atom_site_fract_z
  _atom_site_occupancy
  Zn  Zn1       1.0  0.30954053859235847  0.20241434166553057  0.15935948495619806  1.0000
  Zn  Zn2       1.0  0.19045259945343668  0.7975792662304428  0.659361025856704  1.0000
  Zn  Zn3       1.0  0.690458035888831  0.7975807425423864  0.8406429872885823  1.0000
  Zn  Zn4       1.0  0.8095280681669693  0.20240726887864469  0.3406459866994637  1.0000
  H   H1        1.0  0.06796084564996359  0.5099038714906925  0.14850736108424198  1.0000
  H   H2        1.0  0.4320330606645228  0.49010037278985397  0.6484984898077144  1.0000
  H   H3        1.0  0.9320431486796821  0.49009771131327523  0.8514973813405788  1.0000
  H   H4        1.0  0.5679664968019155  0.5099023507805002  0.35149660444186276  1.0000
  H   H5        1.0  0.20937550192981297  0.5006105207636793  0.2231772901349416  1.0000
  H   H6        1.0  0.2906177514849517  0.4993902194663136  0.723167146242531  1.0000
  H   H7        1.0  0.7906287492405327  0.49938778068409556  0.7768302899781929  1.0000
  H   H8        1.0  0.7093817528723108  0.5006081332016663  0.2768285155301911  1.0000
  H   H9        1.0  0.08211824216279953  0.33180138162820333  0.0397715921929134  1.0000
  H   H10       1.0  0.4178778397242978  0.6681978090442156  0.5397664312393928  1.0000
  H   H11       1.0  0.917884875412078  0.6682013035362857  0.9602331502373642  1.0000
  H   H12       1.0  0.5821213546742712  0.33179945413708367  0.4602315006906821  1.0000
  H   H13       1.0  0.2859229279819715  0.3359775235556839  0.0099510808703016  1.0000
  H   H14       1.0  0.2140655826010942  0.6640231547510425  0.5099464011185545  1.0000
  H   H15       1.0  0.7140752390218736  0.664032865266023  0.9900519589756553  1.0000
  H   H16       1.0  0.7859303616256953  0.335975236471505  0.4900509632797565  1.0000
  H   H17       1.0  0.5069881972481696  0.4979274124187186  0.0824513104863343  1.0000
  H   H18       1.0  0.9930089250869116  0.5020723045102996  0.5824440824423431  1.0000
  H   H19       1.0  0.49301404357414214  0.5020763750914129  0.9175522968687703  1.0000
  H   H20       1.0  0.006988772652718494  0.49792388196890885  0.4175515793241118  1.0000
  H   H21       1.0  0.4733820058531322  0.5379603427037194  0.17854232885750318  1.0000
  H   H22       1.0  0.02660724078086218  0.462037087570522  0.6785325564095572  1.0000
  H   H23       1.0  0.52662167852003  0.4620401505986891  0.82146354864404  1.0000
  H   H24       1.0  0.9733868968338087  0.5379591374260855  0.3214619702809144  1.0000
  H   H25       1.0  0.3259592136075682  0.7215305656329177  0.14460376026619307  1.0000
  H   H26       1.0  0.17403971154358547  0.27847024358812433  0.6445938709630141  1.0000
  H   H27       1.0  0.6740468441825982  0.2784699019887569  0.8554026847725708  1.0000
  H   H28       1.0  0.82595829614813  0.7215270324223865  0.3554029258879793  1.0000
  H   H29       1.0  0.5047560244960679  0.7561271562288212  0.088179948201514  1.0000
  H   H30       1.0  0.9952443788897796  0.24387595361309167  0.5881695433577504  1.0000
  H   H31       1.0  0.4952485897443495  0.24387660559313673  0.9118236591504854  1.0000
  H   H32       1.0  0.0047536819155240976  0.7561256932700503  0.41182441580883716  1.0000
  H   H33       1.0  0.27937191962345054  0.8821105559568923  0.0340317078367818  1.0000
  H   H34       1.0  0.22064503161838192  0.11789481589262604  0.5340244074968297  1.0000
  H   H35       1.0  0.7206410546895228  0.11789748685882981  0.9659713319812441  1.0000
  H   H36       1.0  0.7793624697468714  0.8821023573577592  0.46597182180146746  1.0000
  H   H37       1.0  0.1680159443661536  0.7788876564232509  0.9587770889435702  1.0000
  H   H38       1.0  0.33199269851327534  0.22111798731707916  0.4587671257647514  1.0000
  H   H39       1.0  0.8319925930593824  0.22112152732242407  0.0412287885861176  1.0000
  H   H40       1.0  0.6680145991138531  0.7788868382364811  0.5412291035639782  1.0000
  H   H41       1.0  0.4431975091356222  0.0018204144373540991  0.1618545677599883  1.0000
  H   H42       1.0  0.05680589213445585  0.9981884478138028  0.6618540549216901  1.0000
  H   H43       1.0  0.5568061752452494  0.9981800788130143  0.8381473369593593  1.0000
  H   H44       1.0  0.9431999088293352  0.001815301067416903  0.3381421744046804  1.0000
  H   H45       1.0  0.42185224586977915  0.0476405818084515  0.24705335977449747  1.0000
  H   H46       1.0  0.07814179160308028  0.9523596817550694  0.7470529992826014  1.0000
  H   H47       1.0  0.5781481883404139  0.9523610394757325  0.7529474098727673  1.0000
  H   H48       1.0  0.9218476522790553  0.04764096555742012  0.2529437975924864  1.0000
  H   H49       1.0  0.03386367209763111  0.0682266812795191  0.10132376613270107  1.0000
  H   H50       1.0  0.4661329414025061  0.9317642779385122  0.6013205619019715  1.0000
  H   H51       1.0  0.9661396492241817  0.9317683515223149  0.8986764359446298  1.0000
  H   H52       1.0  0.5338554132914338  0.06821998810271171  0.3986768024502111  1.0000
  H   H53       1.0  0.0965954180451192  0.08134958546263958  0.0175962188168199  1.0000
  H   H54       1.0  0.4033772107727458  0.9186164928953031  0.5175953394429201  1.0000
  H   H55       1.0  0.903395726232965  0.9186444862561912  0.9824034157317669  1.0000
  H   H56       1.0  0.5965907487352452  0.08132537195096029  0.48240486246938014  1.0000
  C   C1        1.0  0.03064220494508159  0.30568261015399395  0.20541954564463077  1.0000
  C   C2        1.0  0.4693439971331371  0.6943177419517637  0.7054150283608394  1.0000
  C   C3        1.0  0.9693605495718317  0.6943146145545213  0.7945829266033185  1.0000
  C   C4        1.0  0.5306425065370064  0.30568512288124333  0.2945783632848132  1.0000
  C   C5        1.0  0.1446026749159586  0.4429242868318113  0.1736938719280374  1.0000
  C   C6        1.0  0.3553892739060132  0.5570740802671991  0.6736862896920073  1.0000
  C   C7        1.0  0.8553997696378631  0.5570718484197528  0.8263131406385184  1.0000
  C   C8        1.0  0.6446072902304466  0.4429264899807777  0.326310507173794  1.0000
  C   C9        1.0  0.2095134264832481  0.39578719085906755  0.041272260387835  1.0000
  C   C10       1.0  0.29047470567597594  0.6042175894789706  0.5412680513386974  1.0000
  C   C11       1.0  0.7904849973678978  0.6042199165618313  0.9587302119045376  1.0000
  C   C12       1.0  0.7095242318763867  0.39578295509569733  0.4587298806046434  1.0000
  C   C13       1.0  0.21136835105086502  0.5350879106080483  0.9977774433840949  1.0000
  C   C14       1.0  0.28862022323148295  0.4649156919527257  0.4977700796665587  1.0000
  C   C15       1.0  0.7886250160031737  0.46491815871738135  0.0022284341524497  1.0000
  C   C16       1.0  0.7113742243319692  0.5350816225974809  0.5022272847293934  1.0000
  C   C17       1.0  0.4205802899556518  0.5309771576615887  0.12139105828183008  1.0000
  C   C18       1.0  0.07941335854898313  0.4690209157478976  0.6213834778619685  1.0000
  C   C19       1.0  0.5794207110484209  0.46902227179026573  0.8786131165979612  1.0000
  C   C20       1.0  0.9205840292374746  0.5309741812074478  0.3786116163602742  1.0000
  C   C21       1.0  0.3879412004553089  0.6762011226946143  0.09868835685993099  1.0000
  C   C22       1.0  0.1120549626988137  0.3238007011122832  0.5986806839975856  1.0000
  C   C23       1.0  0.6120627938743369  0.3238004601093536  0.9013163855648898  1.0000
  C   C24       1.0  0.887942168239235  0.6761976772513094  0.4013155453185461  1.0000
  C   C25       1.0  0.2819650251701162  0.7976433978796819  0.9917386255394902  1.0000
  C   C26       1.0  0.2180437466079823  0.20235982810141448  0.49173050451722833  1.0000
  C   C27       1.0  0.7180465055887028  0.20236793916606635  0.008263846753031597  1.0000
  C   C28       1.0  0.7819614344483413  0.7976417417395113  0.5082651572610215  1.0000
  C   C29       1.0  0.42105983015447634  0.8544965192714571  0.9354789704564866  1.0000
  C   C30       1.0  0.07894461690507629  0.14549763174083805  0.43547018441532964  1.0000
  C   C31       1.0  0.578942614401548  0.14549961596523528  0.064526907029439  1.0000
  C   C32       1.0  0.9210575708267754  0.8545017847405347  0.5645243422775792  1.0000
  N   N1        1.0  0.26806317966482857  0.41261970168587675  0.12059111968078888  1.0000
  N   N2        1.0  0.2319284615814396  0.5873838369309894  0.6205874931235371  1.0000
  N   N3        1.0  0.7319420013804746  0.5873818682294002  0.8794102175005988  1.0000
  N   N4        1.0  0.7680618590543631  0.41261570802842573  0.3794098712864127  1.0000
  N   N5        1.0  0.2882844305091012  0.6635021007156466  0.029758391164719497  1.0000
  N   N6        1.0  0.2117168001458225  0.3365022366428079  0.529752269673608  1.0000
  N   N7        1.0  0.7117184302184683  0.33650386584965025  0.9702469188191285  1.0000
  N   N8        1.0  0.7882853875750159  0.663497179912909  0.4702479324224385  1.0000
  O   O1        1.0  0.06272104018151477  0.18122989472742998  0.1930330146650334  1.0000
  O   O2        1.0  0.4372800703904929  0.8187721577697146  0.6930301272340955  1.0000
  O   O3        1.0  0.9372760907521281  0.8187684836659059  0.8069654848123519  1.0000
  O   O4        1.0  0.5627132435840992  0.18122954045259826  0.3069609942371158  1.0000
  O   O5        1.0  0.9123005349049363  0.32368978615476607  0.2449215806377154  1.0000
  O   O6        1.0  0.5876818137710275  0.6762979477617391  0.7449275322668851  1.0000
  O   O7        1.0  0.08770252956185938  0.6763085280999164  0.7550831617753957  1.0000
  O   O8        1.0  0.41229932313671475  0.323702789533705  0.25507494002217607  1.0000
  O   O9        1.0  0.1422076367682408  0.526138587544061  0.9348350043236379  1.0000
  O   O10       1.0  0.35777953454137906  0.47387431241531897  0.4348264016709535  1.0000
  O   O11       1.0  0.8577828431730766  0.47387407027115813  0.0651720083231524  1.0000
  O   O12       1.0  0.6422135225782029  0.5261306672598421  0.565169260136031  1.0000
  O   O13       1.0  0.5230313671318996  0.775172649040563  0.9250363548345817  1.0000
  O   O14       1.0  0.9769728830020696  0.224823930758248  0.4250351358276346  1.0000
  O   O15       1.0  0.4769681372132411  0.22482570370920738  0.07496554988159689  1.0000
  O   O16       1.0  0.02303204120033797  0.7751809205281005  0.5749644987460698  1.0000
  O   O17       1.0  0.42202249494955885  0.973598794793965  0.9029843506171032  1.0000
  O   O18       1.0  0.07798744498265359  0.026396632523201898  0.402977465493791  1.0000
  O   O19       1.0  0.5779924366077722  0.026399391019850806  0.09702039178052499  1.0000
  O   O20       1.0  0.9220162925162043  0.9736082315700544  0.5970193313798973  1.0000
  O   O21       1.0  0.35646400951137036  0.011394444705331396  0.2011670973908366  1.0000
  O   O22       1.0  0.14353582966829487  0.9886034628558279  0.7011651551406429  1.0000
  O   O23       1.0  0.6435357516810712  0.9886006266436309  0.7988342397717645  1.0000
  O   O24       1.0  0.8564601145584946  0.011394928366719594  0.2988322092576681  1.0000
  O   O25       1.0  0.10618643658106922  0.033588485852618505  0.065907887650674  1.0000
  O   O26       1.0  0.3938277606665108  0.9664210282442407  0.565900031197735  1.0000
  O   O27       1.0  0.8938103844004956  0.9664088030094147  0.9340894767421802  1.0000
  O   O28       1.0  0.6062294936820863  0.033617135411510894  0.4340803070706371  1.0000
