data_image0
_chemical_formula_structural       Ag4H20C16N4O10
_chemical_formula_sum              "Ag4 H20 C16 N4 O10"
_cell_length_a       7.582138968066703
_cell_length_b       8.556983959098389
_cell_length_c       11.32250174120407
_cell_angle_alpha    100.06753584543442
_cell_angle_beta     102.15280564405465
_cell_angle_gamma    115.76538630323691

_space_group_name_H-M_alt    "P 1"
_space_group_IT_number       1

loop_
  _space_group_symop_operation_xyz
  'x, y, z'

loop_
  _atom_site_type_symbol
  _atom_site_label
  _atom_site_symmetry_multiplicity
  _atom_site_fract_x
  _atom_site_fract_y
  _atom_site_fract_z
  _atom_site_occupancy
  Ag  Ag1       1.0  0.5859386896364926  0.14119919204554782  0.2978902044387084  1.0000
  Ag  Ag2       1.0  0.41406838805630025  0.8588043115016645  0.7021130693346862  1.0000
  Ag  Ag3       1.0  0.17937289485923455  0.9639377504664282  0.5145673192094905  1.0000
  Ag  Ag4       1.0  0.8206346412778133  0.03606168371985769  0.4854337177619925  1.0000
  H   H1        1.0  0.4986226759634106  0.7917860219598437  0.22894329153024273  1.0000
  H   H2        1.0  0.5013850992536747  0.20821882428167268  0.7710593633768782  1.0000
  H   H3        1.0  0.6929755564478269  0.9242804213322626  0.196058478093768  1.0000
  H   H4        1.0  0.30702855408303986  0.07572026127323987  0.8039405124275588  1.0000
  H   H5        1.0  0.718272812711284  0.5781249433563643  0.7540849675806102  1.0000
  H   H6        1.0  0.281733597169179  0.42188251929849935  0.2459152010994146  1.0000
  H   H7        1.0  0.946103693745414  0.46483360147809083  0.24485468684814288  1.0000
  H   H8        1.0  0.05388854591564745  0.5351574638904067  0.7551432887110252  1.0000
  H   H9        1.0  0.043483401457130685  0.7030401299806428  0.2906266819652714  1.0000
  H   H10       1.0  0.9565068102376842  0.296952227482464  0.7093703165489487  1.0000
  H   H11       1.0  0.5944825727669212  0.4131767102655316  0.1364037110554648  1.0000
  H   H12       1.0  0.40550338140140946  0.5868101959939195  0.8635929128868797  1.0000
  H   H13       1.0  0.6857355289631358  0.649334406796349  0.18609998373174358  1.0000
  H   H14       1.0  0.31425454574432626  0.35065523545137006  0.8138957606567203  1.0000
  H   H15       1.0  0.9364727504118235  0.6985461493132873  0.06146482173490846  1.0000
  H   H16       1.0  0.06351732429563839  0.30144349293443184  0.9385309226535484  1.0000
  H   H17       1.0  0.6768217926112997  0.5529359608934287  0.9632657454523966  1.0000
  H   H18       1.0  0.323171042481377  0.4470537503295303  0.03673124743061611  1.0000
  H   H19       1.0  0.8376642768794015  0.45855634299626763  0.008494305816924556  1.0000
  H   H20       1.0  0.16232796278166  0.5414347223722371  0.9915036697422366  1.0000
  C   C1        1.0  0.7037188630705415  0.46502173365161054  0.5272732348787628  1.0000
  C   C2        1.0  0.2962808377676183  0.5349856576306705  0.472728709302217  1.0000
  C   C3        1.0  0.8402218594366745  0.6531046660149116  0.5804381073799334  1.0000
  C   C4        1.0  0.15977983188169284  0.34690405651041095  0.41956161639235023  1.0000
  C   C5        1.0  0.847729239000266  0.5653535595600373  0.38828028903321876  1.0000
  C   C6        1.0  0.15226809269893243  0.4346470149217937  0.6117186963573148  1.0000
  C   C7        1.0  0.570301584309533  0.32883691764048  0.5781932821609459  1.0000
  C   C8        1.0  0.4297071326945954  0.6711693999241531  0.4218149860910715  1.0000
  C   C9        1.0  0.8981081510057222  0.7828311369784372  0.7045819185918489  1.0000
  C   C10       1.0  0.10190038634230798  0.2171803721348482  0.29541728380522875  1.0000
  C   C11       1.0  0.9041319578837703  0.5711830084731062  0.27041749554295086  1.0000
  C   C12       1.0  0.09585971864900236  0.428812071129677  0.7295800458704846  1.0000
  C   C13       1.0  0.7317271126025345  0.5470843436699935  0.1577520280689697  1.0000
  C   C14       1.0  0.26826365962921983  0.4529066412720227  0.8422430974532206  1.0000
  C   C15       1.0  0.799884255636819  0.5651595586483111  0.04138641539939414  1.0000
  C   C16       1.0  0.20010801891891813  0.4348315250957383  0.9586124504756484  1.0000
  N   N1        1.0  0.7105646136901173  0.4140013696740255  0.40696195894161497  1.0000
  N   N2        1.0  0.2894364524846651  0.5860034051949086  0.5930424714664753  1.0000
  N   N3        1.0  0.926950562149358  0.7121700045475875  0.4906756971364389  1.0000
  N   N4        1.0  0.07304686905116847  0.28783590848727414  0.5093213449262066  1.0000
  O   O1        1.0  0.4488052533306259  0.16980433588290816  0.499811822130539  1.0000
  O   O2        1.0  0.5512009924418635  0.8301924680414388  0.500193123521136  1.0000
  O   O3        1.0  0.546110274369056  0.8881712576017123  0.1858330671550377  1.0000
  O   O4        1.0  0.4538939059511621  0.11182946175488688  0.8141677039980522  1.0000
  O   O5        1.0  0.5832167817542243  0.37390620371670014  0.6947913320422857  1.0000
  O   O6        1.0  0.4167905324272496  0.6261053535989305  0.30521125252897713  1.0000
  O   O7        1.0  0.023241996469025056  0.9478051366107465  0.7304811047616582  1.0000
  O   O8        1.0  0.976766471089654  0.052206335751442595  0.2695163170036566  1.0000
  O   O9        1.0  0.8134093782156455  0.7183651354672803  0.7886016936190857  1.0000
  O   O10       1.0  0.18659985924803382  0.2816450746271072  0.2113991970494808  1.0000
