data_image0
_chemical_formula_structural       Zn2H28C36N8O18F8
_chemical_formula_sum              "Zn2 H28 C36 N8 O18 F8"
_cell_length_a       8.064152562224463
_cell_length_b       11.882884244150748
_cell_length_c       12.202814204985907
_cell_angle_alpha    85.84528900584571
_cell_angle_beta     70.70614492148971
_cell_angle_gamma    77.32537404386059

_space_group_name_H-M_alt    "P 1"
_space_group_IT_number       1

loop_
  _space_group_symop_operation_xyz
  'x, y, z'

loop_
  _atom_site_type_symbol
  _atom_site_label
  _atom_site_symmetry_multiplicity
  _atom_site_fract_x
  _atom_site_fract_y
  _atom_site_fract_z
  _atom_site_occupancy
  Zn  Zn1       1.0  0.5729462064475327  0.24998973944207847  0.854481829513375  1.0000
  Zn  Zn2       1.0  0.4270523023928162  0.7500103469554843  0.14551708002937144  1.0000
  H   H1        1.0  0.46992515927326656  0.08804095079452175  0.5401181532952178  1.0000
  H   H2        1.0  0.9897254017524161  0.41204982739376556  0.5401810520025094  1.0000
  H   H3        1.0  0.5300737830095344  0.9119591298592766  0.45988296416684443  1.0000
  H   H4        1.0  0.010277128326947445  0.587951110944246  0.4598148577050764  1.0000
  H   H5        1.0  0.49302801028333215  0.17791941040462683  0.07261608369789488  1.0000
  H   H6        1.0  0.43426038081278046  0.32196602251593737  0.0726211263786354  1.0000
  H   H7        1.0  0.5069709863006863  0.822082396678887  0.9273831090866408  1.0000
  H   H8        1.0  0.5657394311060311  0.6780357830194532  0.9273772456423685  1.0000
  H   H9        1.0  0.667557837513165  0.9945453955409818  0.78147283264758  1.0000
  H   H10       1.0  0.5511143786915227  0.5053628121049983  0.7814619042887542  1.0000
  H   H11       1.0  0.33244067132718397  0.005454690856581101  0.2185260768951665  1.0000
  H   H12       1.0  0.4488867928744328  0.4946372667762945  0.21853564692305844  1.0000
  H   H13       1.0  0.9977618263958444  0.22836899445764666  0.7173808037411505  1.0000
  H   H14       1.0  0.28466252053435415  0.2715395748726692  0.7177538625978528  1.0000
  H   H15       1.0  0.0022371158869489483  0.7716310861961518  0.2826203137209191  1.0000
  H   H16       1.0  0.7153371855331302  0.728460514172397  0.28224119749850735  1.0000
  H   H17       1.0  0.023456475120930246  0.7899283605656039  0.6830250743110895  1.0000
  H   H18       1.0  0.29382824400429525  0.7100506722333152  0.6828770810820328  1.0000
  H   H19       1.0  0.9765446964450174  0.21007171831568883  0.3169724769007233  1.0000
  H   H20       1.0  0.7061675466755021  0.2899502813616124  0.3171242907741316  1.0000
  H   H21       1.0  0.05821035268837686  0.8379295553689442  0.5382978800976161  1.0000
  H   H22       1.0  0.40380070925924344  0.6617732527058494  0.5382373111659291  1.0000
  H   H23       1.0  0.9417894603641555  0.1620696640556218  0.4617013126184232  1.0000
  H   H24       1.0  0.5961935604871371  0.33822857073395335  0.4617626735572812  1.0000
  H   H25       1.0  0.8364614150058783  0.8323995811146362  0.6328962055008062  1.0000
  H   H26       1.0  0.5309467584291737  0.6672930051469025  0.6328477525350067  1.0000
  H   H27       1.0  0.163540245437467  0.1675996323417905  0.3671024496478381  1.0000
  H   H28       1.0  0.46905017404281313  0.3327088107766372  0.36715087385726264  1.0000
  C   C1        1.0  0.9419309192422816  0.9715251020513948  0.6657567379879198  1.0000
  C   C2        1.0  0.39212635018864683  0.5283868277065623  0.6659231225398656  1.0000
  C   C3        1.0  0.058068404932853944  0.0284749827980377  0.334241350791295  1.0000
  C   C4        1.0  0.6078713976181332  0.47161498666883966  0.33407468308887905  1.0000
  C   C5        1.0  0.060965259794926334  0.047645287361021395  0.6461615390430211  1.0000
  C   C6        1.0  0.2924581510375785  0.4523013526880676  0.6465326604014265  1.0000
  C   C7        1.0  0.9390371616819948  0.952352198117559  0.3538382200196254  1.0000
  C   C8        1.0  0.7075441080193344  0.5476978620921146  0.35346407002403163  1.0000
  C   C9        1.0  0.9592107296719231  0.1481328730013516  0.7101143912147876  1.0000
  C   C10       1.0  0.33038329087047175  0.35181533499058304  0.7104828835659872  1.0000
  C   C11       1.0  0.04079104164132009  0.8518646210928722  0.28988205596888145  1.0000
  C   C12       1.0  0.6696216309120472  0.6481838722733286  0.28951248852853684  1.0000
  C   C13       1.0  0.9660806017909845  0.8516346507180544  0.6272235622409355  1.0000
  C   C14       1.0  0.40690349915557517  0.6481785710464437  0.6272063331976483  1.0000
  C   C15       1.0  0.03391763489319285  0.1483662982324887  0.3727753473246338  1.0000
  C   C16       1.0  0.593093433316412  0.3518232448770958  0.372792293194621  1.0000
  C   C17       1.0  0.2512327444238451  0.025534708168152096  0.5792004240803762  1.0000
  C   C18       1.0  0.16923602443162614  0.474425633726753  0.5794897334100425  1.0000
  C   C19       1.0  0.7487682115546049  0.9744627874742094  0.42079684386681737  1.0000
  C   C20       1.0  0.830766233491566  0.525576167164246  0.4205061763203659  1.0000
  C   C21       1.0  0.7484922028453271  0.45994276068572765  0.8866661125887418  1.0000
  C   C22       1.0  0.3651181719031411  0.039805993865812205  0.8867184573181744  1.0000
  C   C23       1.0  0.25150874811455276  0.5400581708091465  0.1133366752480782  1.0000
  C   C24       1.0  0.6348762048282949  0.9601949599534902  0.11328566002470808  1.0000
  C   C25       1.0  0.8766774205438065  0.48121151205633333  0.9456784557688495  1.0000
  C   C26       1.0  0.1779317321331603  0.018479740206366602  0.9457938953512438  1.0000
  C   C27       1.0  0.12332162872404233  0.5187876989769649  0.0543267943128996  1.0000
  C   C28       1.0  0.8220647087103147  0.9815212047729105  0.054210788383905126  1.0000
  C   C29       1.0  0.8978556484886793  0.4175745519508923  0.04274703020679031  1.0000
  C   C30       1.0  0.059727771744825  0.0821024618125108  0.0428965502119709  1.0000
  C   C31       1.0  0.10214530473864884  0.5824212073223478  0.9572573990201076  1.0000
  C   C32       1.0  0.9402696468534372  0.9178967523170415  0.9571103413968345  1.0000
  C   C33       1.0  0.01829503988236062  0.43608575417822953  0.0957682784048473  1.0000
  C   C34       1.0  0.8860167975760975  0.0639233481196584  0.09578901225690128  1.0000
  C   C35       1.0  0.9817066732448152  0.5639108632279816  0.9042364340410102  1.0000
  C   C36       1.0  0.11398236369537064  0.9360715574406199  0.9042148505549079  1.0000
  N   N1        1.0  0.7913497014029642  0.1346957441870131  0.7646706135212398  1.0000
  N   N2        1.0  0.44396065904304266  0.36524766296923145  0.7648352354692919  1.0000
  N   N3        1.0  0.2086508715494161  0.8653043333705241  0.2353288624137662  1.0000
  N   N4        1.0  0.5560405125229051  0.634752415912061  0.23516231574252086  1.0000
  N   N5        1.0  0.78381499566116  0.027829749753770696  0.7362491824677662  1.0000
  N   N6        1.0  0.47992888676058937  0.47209511714164165  0.7363260219096259  1.0000
  N   N7        1.0  0.216185088413823  0.9721711932286327  0.263749189530408  1.0000
  N   N8        1.0  0.5200702206933274  0.5279049705796695  0.26367096290992714  1.0000
  O   O1        1.0  0.7602145813506308  0.35700129672088815  0.8611905050740843  1.0000
  O   O2        1.0  0.37865655007018245  0.14275838468743274  0.8611374704901564  1.0000
  O   O3        1.0  0.23978800027883537  0.6429996316777321  0.13881064123566486  1.0000
  O   O4        1.0  0.6213368489064593  0.8572442999815946  0.13886443897906992  1.0000
  O   O5        1.0  0.6396883828124513  0.5477237285272311  0.8659892913275158  1.0000
  O   O6        1.0  0.4947610949523804  0.9521133696733346  0.8660617184145919  1.0000
  O   O7        1.0  0.36031620749410115  0.45227805071246513  0.1340135253569912  1.0000
  O   O8        1.0  0.5052346391587433  0.0478910297135116  0.1339399367290213  1.0000
  O   O9        1.0  0.33304587623579357  0.1089590280161801  0.5855147914389391  1.0000
  O   O10       1.0  0.0810076008959087  0.3910814132428299  0.5857282811133544  1.0000
  O   O11       1.0  0.6669557287726062  0.891041045121348  0.4144849676921964  1.0000
  O   O12       1.0  0.9189925386140274  0.6089186700584719  0.4142689869023286  1.0000
  O   O13       1.0  0.32918758086904615  0.9347118421890952  0.5218206461325963  1.0000
  O   O14       1.0  0.14892943325394709  0.5651952892594637  0.5219918529557646  1.0000
  O   O15       1.0  0.6708106015138994  0.06528738033172492  0.4781801881105067  1.0000
  O   O16       1.0  0.8510853252299099  0.4348013033766875  0.47799972727361245  1.0000
  O   O17       1.0  0.48749406055281247  0.24996312835042292  0.025343353757179415  1.0000
  O   O18       1.0  0.5125086308128243  0.7500386667968116  0.974654763892559  1.0000
  F   F1        1.0  0.7964955183012064  0.3384905931262026  0.08902186302535854  1.0000
  F   F2        1.0  0.11494748902401854  0.1610545303357398  0.0892631864072655  1.0000
  F   F3        1.0  0.2035070655957082  0.6615051630507834  0.9109809246744759  1.0000
  F   F4        1.0  0.8850477573434288  0.8389481483651552  0.9107381854945586  1.0000
  F   F5        1.0  0.028617333759349564  0.374762008347517  0.19213102166221316  1.0000
  F   F6        1.0  0.7794629377563354  0.1252531000850041  0.1921850591923615  1.0000
  F   F7        1.0  0.9713872576809235  0.625237184781362  0.8078726157173364  1.0000
  F   F8        1.0  0.22053382954452855  0.8747487087710155  0.8078176998424239  1.0000
