data_image0
_chemical_formula_structural       Ag2H46C46S2N4O8
_chemical_formula_sum              "Ag2 H46 C46 S2 N4 O8"
_cell_length_a       8.082059374632234
_cell_length_b       10.597549357259934
_cell_length_c       13.008971396486926
_cell_angle_alpha    70.05968447329803
_cell_angle_beta     89.49131778872764
_cell_angle_gamma    85.41777330146282

_space_group_name_H-M_alt    "P 1"
_space_group_IT_number       1

loop_
  _space_group_symop_operation_xyz
  'x, y, z'

loop_
  _atom_site_type_symbol
  _atom_site_label
  _atom_site_symmetry_multiplicity
  _atom_site_fract_x
  _atom_site_fract_y
  _atom_site_fract_z
  _atom_site_occupancy
  Ag  Ag1       1.0  0.10741362964971299  0.42483161155931987  0.3645961671531737  1.0000
  Ag  Ag2       1.0  0.892580302588769  0.5751694019772486  0.6354099365311326  1.0000
  H   H1        1.0  0.48097608934609337  0.02972304261670189  0.3807565773277729  1.0000
  H   H2        1.0  0.5190339923581108  0.9702770490519016  0.6192350724639795  1.0000
  H   H3        1.0  0.8420701126427445  0.7037523149130109  0.36878658077895915  1.0000
  H   H4        1.0  0.15793595241625977  0.2962386621809755  0.6312160508883764  1.0000
  H   H5        1.0  0.9333062274558729  0.1386762330373941  0.0751810608018602  1.0000
  H   H6        1.0  0.06668996518292399  0.861326822220576  0.9248198562312168  1.0000
  H   H7        1.0  0.029029144140004265  0.9778241982623186  0.1490450413947855  1.0000
  H   H8        1.0  0.9709696225011158  0.022177854030395794  0.8509553659677705  1.0000
  H   H9        1.0  0.1559853328022669  0.09124163087931689  0.4748760157640888  1.0000
  H   H10       1.0  0.8440173444643906  0.9087584157099967  0.5251233799616556  1.0000
  H   H11       1.0  0.9869048476992788  0.3510559181916619  0.0556628716390719  1.0000
  H   H12       1.0  0.013095154337236202  0.6489461385181271  0.9443367580483937  1.0000
  H   H13       1.0  0.08286859502818797  0.4468475941937412  0.12272501285165303  1.0000
  H   H14       1.0  0.9171301716129323  0.553154458098966  0.8772753945109031  1.0000
  H   H15       1.0  0.6209025995257492  0.0981125023320502  0.0941455159247724  1.0000
  H   H16       1.0  0.37909306036129925  0.9018835123550278  0.9058557988323839  1.0000
  H   H17       1.0  0.760817543824956  0.9699266903094707  0.29418942639163964  1.0000
  H   H18       1.0  0.23919356404345393  0.030063297297616  0.7058103702841335  1.0000
  H   H19       1.0  0.0459693676756743  0.8555812167701546  0.29662469063153907  1.0000
  H   H20       1.0  0.9540182724720551  0.1444208143457075  0.703379635923376  1.0000
  H   H21       1.0  0.301899721787116  0.722244464727808  0.597891871211445  1.0000
  H   H22       1.0  0.6981073988568343  0.27776061672901164  0.40210611515340833  1.0000
  H   H23       1.0  0.2701541932754665  0.9001904685389092  0.5407165566708443  1.0000
  H   H24       1.0  0.729855392208151  0.09981463568468739  0.4592775644312396  1.0000
  H   H25       1.0  0.0676414295686882  0.21476870644602286  0.9065606551751769  1.0000
  H   H26       1.0  0.932355496293795  0.7852393797166428  0.09343964558055268  1.0000
  H   H27       1.0  0.701267661223369  0.2510701843654033  0.22131036787894934  1.0000
  H   H28       1.0  0.29872863065954647  0.7489318683815752  0.7786900548920599  1.0000
  H   H29       1.0  0.6779708689495366  0.3223439704586752  0.078116748160717  1.0000
  H   H30       1.0  0.3220303704660807  0.6776580860239816  0.9218828738225254  1.0000
  H   H31       1.0  0.8214572015312244  0.46218136926116654  0.22495803362702563  1.0000
  H   H32       1.0  0.17854167030513682  0.5378196665879216  0.7750441893860582  1.0000
  H   H33       1.0  0.7927451398476322  0.533923389959014  0.08201507916373174  1.0000
  H   H34       1.0  0.20725486814000504  0.4660786528181475  0.9179868604363293  1.0000
  H   H35       1.0  0.4766810829488861  0.5065456924623247  0.09789647375831126  1.0000
  H   H36       1.0  0.5233175685784559  0.4934573994950497  0.902098268099401  1.0000
  H   H37       1.0  0.501093013476904  0.4383835431626579  0.2420980521016887  1.0000
  H   H38       1.0  0.49889935587822276  0.561620543152955  0.7578987624809485  1.0000
  H   H39       1.0  0.4084915285343059  0.34531397071953757  0.1703468306345215  1.0000
  H   H40       1.0  0.5915059868417603  0.6546881143097706  0.8296481946362134  1.0000
  H   H41       1.0  0.32547601421765654  0.2763107896552058  0.7998669798341708  1.0000
  H   H42       1.0  0.6745237932980359  0.7236932627881599  0.2001351783191581  1.0000
  H   H43       1.0  0.7241831809743217  0.30999963664638835  0.7301386886764617  1.0000
  H   H44       1.0  0.2758160918059218  0.6899973798702916  0.2698630972300862  1.0000
  H   H45       1.0  0.3670895731680019  0.033203865722782694  0.20089823724236308  1.0000
  H   H46       1.0  0.6329048493399513  0.966792149191427  0.7991030852190163  1.0000
  C   C1        1.0  0.0998622347626323  0.0332337890166912  0.3292690064129573  1.0000
  C   C2        1.0  0.9001428200018255  0.9667672549851427  0.6707316381372692  1.0000
  C   C3        1.0  0.539932322101123  0.9281472288457877  0.39951040808070815  1.0000
  C   C4        1.0  0.46007310781902794  0.07184985619836232  0.6004797897417475  1.0000
  C   C5        1.0  0.47373389418213924  0.8161343498639936  0.4717076307725137  1.0000
  C   C6        1.0  0.5262724853032951  0.18386571926497197  0.5282878919862383  1.0000
  C   C7        1.0  0.7352168230811246  0.7591071531063774  0.3889261929638153  1.0000
  C   C8        1.0  0.2647883023311337  0.24088081668175224  0.6110749636215473  1.0000
  C   C9        1.0  0.04201705604612019  0.25009164195976297  0.22501027700232606  1.0000
  C   C10       1.0  0.9579853274556032  0.7499114028741258  0.7749921414513494  1.0000
  C   C11       1.0  0.0431190345003287  0.0861880625903666  0.1250921704400199  1.0000
  C   C12       1.0  0.9568823061431146  0.9138129867370849  0.8749077272520153  1.0000
  C   C13       1.0  0.2001310834482837  0.12055301035597667  0.0604866692325245  1.0000
  C   C14       1.0  0.7998675799813029  0.87945005373615  0.9395126924503714  1.0000
  C   C15       1.0  0.12096374550203143  0.11671742415788339  0.38960211996232635  1.0000
  C   C16       1.0  0.8790378035481866  0.8832815969265226  0.6104006390599038  1.0000
  C   C17       1.0  0.9890376252369036  0.3741237010946178  0.13172496527879224  1.0000
  C   C18       1.0  0.010962585206378586  0.6258763273721256  0.8682775257388614  1.0000
  C   C19       1.0  0.49935520478543793  0.1247103191821921  0.05373578738249309  1.0000
  C   C20       1.0  0.5006416924807199  0.8752856952777532  0.9462655196704403  1.0000
  C   C21       1.0  0.6896789382225493  0.8954472595742615  0.3525208678731744  1.0000
  C   C22       1.0  0.3103271189016255  0.10454373609655931  0.6474786839107053  1.0000
  C   C23       1.0  0.11033490903678705  0.8897090387976477  0.35442235064396493  1.0000
  C   C24       1.0  0.889662923908702  0.11028999225657538  0.6455788915492134  1.0000
  C   C25       1.0  0.1873249148299578  0.7901016291149858  0.4392116984145246  1.0000
  C   C26       1.0  0.8126753869226135  0.2098974154176005  0.5607872184576123  1.0000
  C   C27       1.0  0.3044420436787476  0.808590323401276  0.5217575337700779  1.0000
  C   C28       1.0  0.6955630984275843  0.1914097459548145  0.4782379966929042  1.0000
  C   C29       1.0  0.18956810208873523  0.18763734812462468  0.947229703089448  1.0000
  C   C30       1.0  0.8104300552017207  0.8123707517435292  0.05276828004946304  1.0000
  C   C31       1.0  0.4887719962246779  0.19372259590625157  0.9407378853052106  1.0000
  C   C32       1.0  0.5112272825066881  0.8062744066778009  0.059266210513925395  1.0000
  C   C33       1.0  0.6770104029685059  0.3476617123357002  0.15350557760277184  1.0000
  C   C34       1.0  0.322989497840183  0.6523413515292944  0.8464937763759011  1.0000
  C   C35       1.0  0.6426498303202379  0.23488605734746665  0.8788266695009526  1.0000
  C   C36       1.0  0.3573467692135637  0.7651129646454747  0.12117612033817694  1.0000
  C   C37       1.0  0.8173065307976302  0.4374840619916752  0.1492465592181347  1.0000
  C   C38       1.0  0.1826936756782374  0.5625159757634891  0.8507543918577907  1.0000
  C   C39       1.0  0.5064786437170883  0.41272056163333537  0.16694067853055125  1.0000
  C   C40       1.0  0.4935173405149343  0.5872845218676729  0.8330573771723377  1.0000
  C   C41       1.0  0.3330369146062254  0.22339225401859145  0.8877226295145204  1.0000
  C   C42       1.0  0.66696165156295  0.776611807940327  0.11227799640130341  1.0000
  C   C43       1.0  0.356486289384101  0.08807628767007708  0.11311133059093237  1.0000
  C   C44       1.0  0.6435077262288402  0.911923760509168  0.8868881190643947  1.0000
  C   C45       1.0  0.16857692579008443  0.6475520392059478  0.44724881504306063  1.0000
  C   C46       1.0  0.8314210103669383  0.35244598004885563  0.552753472829778  1.0000
  S   S1        1.0  0.5948701955688876  0.671324083596417  0.47968074929442395  1.0000
  S   S2        1.0  0.4051317445066758  0.3286709413766289  0.52031772276694  1.0000
  N   N1        1.0  0.0848912040153564  0.24856558867200823  0.3247592157944154  1.0000
  N   N2        1.0  0.915111272779363  0.7514364675835097  0.6752403984845969  1.0000
  N   N3        1.0  0.0481525190925396  0.1213276738866895  0.22469553982777768  1.0000
  N   N4        1.0  0.9518449029905227  0.8786753997209829  0.7753022896176133  1.0000
  O   O1        1.0  0.1400364960801923  0.6282942675905687  0.35493597176166247  1.0000
  O   O2        1.0  0.8599598851282979  0.3717068058664522  0.6450601068929628  1.0000
  O   O3        1.0  0.6176702858680941  0.27929430501753666  0.7711020933598076  1.0000
  O   O4        1.0  0.38232795793982177  0.720700683483237  0.2289025615811511  1.0000
  O   O5        1.0  0.7793432954515609  0.22908177644887215  0.9232800705482801  1.0000
  O   O6        1.0  0.22065617780062047  0.7709132304016036  0.07672149680499978  1.0000
  O   O7        1.0  0.1788613102254075  0.5556872688189928  0.5385652893266766  1.0000
  O   O8        1.0  0.821127561350302  0.44431477600236485  0.4614367196114201  1.0000
