data_image0
_chemical_formula_structural       Li4Cu4P4H16C12O20
_chemical_formula_sum              "Li4 Cu4 P4 H16 C12 O20"
_cell_length_a       4.964989508659618
_cell_length_b       11.027887229227629
_cell_length_c       11.132143488526353
_cell_angle_alpha    80.88139676884984
_cell_angle_beta     77.11372155839231
_cell_angle_gamma    76.92252203688628

_space_group_name_H-M_alt    "P 1"
_space_group_IT_number       1

loop_
  _space_group_symop_operation_xyz
  'x, y, z'

loop_
  _atom_site_type_symbol
  _atom_site_label
  _atom_site_symmetry_multiplicity
  _atom_site_fract_x
  _atom_site_fract_y
  _atom_site_fract_z
  _atom_site_occupancy
  Li  Li1       1.0  0.04319186138700085  0.5057820415082831  0.34394816933160405  1.0000
  Li  Li2       1.0  0.8949088770735468  0.9939304262188531  0.15539991317197627  1.0000
  Li  Li3       1.0  0.9567971993476827  0.49421717553378386  0.6560572581156592  1.0000
  Li  Li4       1.0  0.10509051266533438  0.006069760278791101  0.844594626384904  1.0000
  Cu  Cu1       1.0  0.4999946453764464  0.4999972665811967  0.5000028679251545  1.0000
  Cu  Cu2       1.0  0.4999980255125246  2.7316427945987263e-06  0.9999964812908292  1.0000
  Cu  Cu3       1.0  0.40855761685574477  0.2502987780416248  0.7498780933998719  1.0000
  Cu  Cu4       1.0  0.5914461270011272  0.7497004492731493  0.2501229659471775  1.0000
  P   P1        1.0  0.8145384132303091  0.22698648988689032  0.944092436336746  1.0000
  P   P2        1.0  0.9854652578923221  0.2730120790628519  0.5557656250702012  1.0000
  P   P3        1.0  0.18545478965707216  0.7730117877620516  0.05591350357745027  1.0000
  P   P4        1.0  0.014539599796840292  0.7269843504034982  0.44423173737825306  1.0000
  H   H1        1.0  0.026974002648167062  0.2833222076311587  0.08997000620018274  1.0000
  H   H2        1.0  0.40159665955415813  0.21652049290069186  0.4103741307321159  1.0000
  H   H3        1.0  0.973027113216197  0.7166788883043793  0.9100326453626908  1.0000
  H   H4        1.0  0.598401475042237  0.7834825046385349  0.5896201008412022  1.0000
  H   H5        1.0  0.4110772345109693  0.42791289602493526  0.10149919788067052  1.0000
  H   H6        1.0  0.942139076244501  0.07215320241708413  0.3984236139976575  1.0000
  H   H7        1.0  0.5889214009226856  0.5720872745760631  0.898500245327455  1.0000
  H   H8        1.0  0.057860513658333175  0.9278488476185913  0.601573826349899  1.0000
  H   H9        1.0  0.9167227070339903  0.4133789753218622  0.986194210347094  1.0000
  H   H10       1.0  0.31728289380717445  0.08659095111741522  0.5143118613568947  1.0000
  H   H11       1.0  0.0832764880906892  0.586620245072112  0.013809340404371487  1.0000
  H   H12       1.0  0.6827271782113864  0.913410171852888  0.48568180251498216  1.0000
  H   H13       1.0  0.5066027976140361  0.2877534739575368  0.19475415581047176  1.0000
  H   H14       1.0  0.9905044097032059  0.21231053225697147  0.30534059264240204  1.0000
  H   H15       1.0  0.4933935575528565  0.7122476348469533  0.8052449798335959  1.0000
  H   H16       1.0  0.009496146470147916  0.7876915138855979  0.6946579513771313  1.0000
  C   C1        1.0  0.6445963623172162  0.4428582848465865  0.23668071650344308  1.0000
  C   C2        1.0  0.3258261899257063  0.057250395690786604  0.26322639966174693  1.0000
  C   C3        1.0  0.35539152018166903  0.5571409558783388  0.7633175999486072  1.0000
  C   C4        1.0  0.6741507214215259  0.9427507157099627  0.7367735881637218  1.0000
  C   C5        1.0  0.58581577377209  0.37032843480346145  0.14320649771278945  1.0000
  C   C6        1.0  0.10093035476476309  0.12964296225096922  0.3568797577477839  1.0000
  C   C7        1.0  0.4141853420922809  0.6296726611320834  0.8567961538500841  1.0000
  C   C8        1.0  0.8990700130459711  0.870355337025785  0.6431189920136193  1.0000
  C   C9        1.0  0.8487912354810871  0.3318834721719739  0.045737659900311166  1.0000
  C   C10       1.0  0.22787494053961374  0.16798413956276903  0.4544320410108258  1.0000
  C   C11       1.0  0.151206504337153  0.6681166957255515  0.954262682076916  1.0000
  C   C12       1.0  0.7721186453245887  0.8320188510556651  0.5455646819669158  1.0000
  O   O1        1.0  0.7330269486391783  0.10719086192266762  0.0254405139335958  1.0000
  O   O2        1.0  0.8650602690860011  0.3921680122457404  0.4735072707365334  1.0000
  O   O3        1.0  0.26696547634030254  0.8928111664852023  0.9745641165667538  1.0000
  O   O4        1.0  0.1349293575912892  0.6078274738271576  0.5264934588013405  1.0000
  O   O5        1.0  0.8754325905517387  0.47665866275203683  0.2177781103940291  1.0000
  O   O6        1.0  0.5719650868794159  0.0235910339124104  0.28187725441699035  1.0000
  O   O7        1.0  0.12458436306794556  0.5233461864289168  0.7822210709987376  1.0000
  O   O8        1.0  0.4280717823976938  0.9764025615851465  0.7181247981330403  1.0000
  O   O9        1.0  0.1137744794746279  0.1799076986801396  0.868917702252354  1.0000
  O   O10       1.0  0.1608672220166052  0.3205665257587711  0.6312393775415404  1.0000
  O   O11       1.0  0.8862289284578464  0.820090575724123  0.13108836340713026  1.0000
  O   O12       1.0  0.8391506570727572  0.6794317787079436  0.368756312694508  1.0000
  O   O13       1.0  0.5915300752283269  0.29605447609429814  0.8690004516587779  1.0000
  O   O14       1.0  0.7565043093409756  0.2039818850504105  0.6307304745459066  1.0000
  O   O15       1.0  0.4084704927463533  0.7039456867204877  0.13100119889330844  1.0000
  O   O16       1.0  0.24350123754806635  0.7960154643435261  0.36927189379549225  1.0000
  O   O17       1.0  0.4456617925337409  0.46251230871828863  0.3343774572755153  1.0000
  O   O18       1.0  0.24381879708808182  0.0376777944746891  0.16561450204910247  1.0000
  O   O19       1.0  0.5543372494794099  0.5374888081966348  0.6656189820612541  1.0000
  O   O20       1.0  0.7561864609289868  0.9623223620677309  0.834388661980711  1.0000
