data_image0
_chemical_formula_structural       Hf12H32C32O64
_chemical_formula_sum              "Hf12 H32 C32 O64"
_cell_length_a       11.642165920967079
_cell_length_b       13.43302931265823
_cell_length_c       19.186573249378746
_cell_angle_alpha    89.34991624898461
_cell_angle_beta     89.9950130989486
_cell_angle_gamma    89.9860323520528

_space_group_name_H-M_alt    "P 1"
_space_group_IT_number       1

loop_
  _space_group_symop_operation_xyz
  'x, y, z'

loop_
  _atom_site_type_symbol
  _atom_site_label
  _atom_site_symmetry_multiplicity
  _atom_site_fract_x
  _atom_site_fract_y
  _atom_site_fract_z
  _atom_site_occupancy
  Hf  Hf1       1.0  0.1404184068732803  0.1341167619514891  0.9913586504056651  1.0000
  Hf  Hf2       1.0  0.8402390867281254  0.12390666286756866  0.9966355759623154  1.0000
  Hf  Hf3       1.0  0.1633312169939316  0.8736987116638841  0.9931037862897936  1.0000
  Hf  Hf4       1.0  0.8585241291313823  0.8646149149016297  0.0022103273051853984  1.0000
  Hf  Hf5       1.0  0.008443629587617399  0.9977606413184786  0.1247276167302189  1.0000
  Hf  Hf6       1.0  0.9935360457487687  0.9935369824738057  0.8655934596809086  1.0000
  Hf  Hf7       1.0  0.6405285923855644  0.35581379982496497  0.498731433220712  1.0000
  Hf  Hf8       1.0  0.3403234245778677  0.36598656662913237  0.4935650329824881  1.0000
  Hf  Hf9       1.0  0.6631766143616531  0.6161555781468446  0.49648058729561473  1.0000
  Hf  Hf10      1.0  0.35847950688861374  0.6252615159471305  0.4873262328779829  1.0000
  Hf  Hf11      1.0  0.5084301029459084  0.4915709623501953  0.3650714546886249  1.0000
  Hf  Hf12      1.0  0.4936339694986883  0.49672371350265376  0.624303021150446  1.0000
  H   H1        1.0  0.994293217469  0.20691565589213923  0.8929914206827618  1.0000
  H   H2        1.0  0.7635514321983123  0.9926340617818641  0.10301667649393659  1.0000
  H   H3        1.0  0.9847940670603705  0.783048742748619  0.9013879110583856  1.0000
  H   H4        1.0  0.25809458438973815  0.0031525421589221995  0.08441432147995438  1.0000
  H   H5        1.0  0.6252252345298005  0.11791577821568919  0.0427017793612237  1.0000
  H   H6        1.0  0.6582602578069298  0.9749942396412054  0.9885396947920526  1.0000
  H   H7        1.0  0.7602795244577363  0.6899147407331512  0.9698208980764419  1.0000
  H   H8        1.0  0.20961855721548514  0.6794671377596584  0.9567310994325807  1.0000
  H   H9        1.0  0.389776718730971  0.873806553729686  0.967153775277765  1.0000
  H   H10       1.0  0.3569190912841123  0.20288094054936315  0.03085773551158159  1.0000
  H   H11       1.0  0.13197411258492048  0.32587305454536875  0.024417763800357796  1.0000
  H   H12       1.0  0.972967028824641  0.2955285564279605  0.9935831112709436  1.0000
  H   H13       1.0  0.19870132614006758  0.6852232078289475  0.03945739700546368  1.0000
  H   H14       1.0  0.36205435933140967  0.181460241254193  0.9489934072204207  1.0000
  H   H15       1.0  0.8465369138027085  0.3259959329742799  0.9595844760471834  1.0000
  H   H16       1.0  0.6694743018645467  0.8957457100138271  0.9283583458556564  1.0000
  H   H17       1.0  0.4944197652491624  0.2833450732847779  0.597304489204376  1.0000
  H   H18       1.0  0.2634850841280993  0.4967708731840829  0.38690010535502484  1.0000
  H   H19       1.0  0.4848216775207633  0.7071632984406689  0.5879937564612021  1.0000
  H   H20       1.0  0.7580369756230779  0.4865684514462814  0.4053871060124691  1.0000
  H   H21       1.0  0.12522636429013548  0.37182154914977156  0.44763788521756703  1.0000
  H   H22       1.0  0.1582975004658422  0.5149689130440152  0.5013856551262632  1.0000
  H   H23       1.0  0.2600968395864101  0.8000945360111088  0.5194840733910198  1.0000
  H   H24       1.0  0.7092861746160323  0.810398516593622  0.5325467321549054  1.0000
  H   H25       1.0  0.8896424800117017  0.6162973308484252  0.5224405687667755  1.0000
  H   H26       1.0  0.8568732305448917  0.28701941024390004  0.4593461755268534  1.0000
  H   H27       1.0  0.632117518163227  0.16403296583996507  0.46589807022029106  1.0000
  H   H28       1.0  0.47332092745945425  0.19444126574197174  0.4968869056674095  1.0000
  H   H29       1.0  0.6983945232562333  0.8045101039167903  0.4498231404725885  1.0000
  H   H30       1.0  0.8617964781868253  0.3084751890190276  0.5412169094518049  1.0000
  H   H31       1.0  0.34684622270242466  0.163928232288434  0.5308774752150639  1.0000
  H   H32       1.0  0.1696041585963002  0.5943114996350117  0.5614667446583466  1.0000
  C   C1        1.0  0.18098145067539662  0.17658060747160678  0.1597124137239234  1.0000
  C   C2        1.0  0.8040927727696288  0.15914961916319464  0.8294209462374909  1.0000
  C   C3        1.0  0.8226520259193677  0.16042160154211868  0.16700052120192768  1.0000
  C   C4        1.0  0.1805805274136674  0.15739756731772298  0.8217141331367586  1.0000
  C   C5        1.0  0.18662425736338406  0.8322972038203742  0.8278598913870708  1.0000
  C   C6        1.0  0.8357552244371504  0.8197099165707726  0.16497072397447  1.0000
  C   C7        1.0  0.7805721712560468  0.8649454259343088  0.8065476805279059  1.0000
  C   C8        1.0  0.18648268480380642  0.829523420576024  0.16504578014778554  1.0000
  C   C9        1.0  0.6812046209888081  0.312735826298173  0.33045874895696403  1.0000
  C   C10       1.0  0.3041960631821468  0.3314487346364032  0.661035363547441  1.0000
  C   C11       1.0  0.32271940603209964  0.3285645740759263  0.3232579588301832  1.0000
  C   C12       1.0  0.6808410992668144  0.332882559128187  0.6684550568895347  1.0000
  C   C13       1.0  0.6863678814500814  0.6582364903170159  0.6617326841254609  1.0000
  C   C14       1.0  0.33573134244678465  0.6692556041346763  0.3242560739688329  1.0000
  C   C15       1.0  0.2807483751844373  0.6253874575441855  0.6831365054875888  1.0000
  C   C16       1.0  0.6863566235871374  0.6597510870521502  0.324279067520628  1.0000
  C   C17       1.0  0.7556329549170043  0.7891551212567691  0.7551886204228566  1.0000
  C   C18       1.0  0.7278344301049772  0.7257603592593751  0.7136605193878081  1.0000
  C   C19       1.0  0.2557784005411605  0.7015742580996686  0.7341934415252567  1.0000
  C   C20       1.0  0.2281653992573922  0.7650275909947409  0.775754326230718  1.0000
  C   C21       1.0  0.7275823318664436  0.27344402734520656  0.7251195186118196  1.0000
  C   C22       1.0  0.7584108573857051  0.22100606171040477  0.7736005282713093  1.0000
  C   C23       1.0  0.7830737998660097  0.7621201541158911  0.2203434973670468  1.0000
  C   C24       1.0  0.7384388059487321  0.7162123865001532  0.2679551478805635  1.0000
  C   C25       1.0  0.23269200986977273  0.2326311604069886  0.2155206749882268  1.0000
  C   C26       1.0  0.2723174131876931  0.2745206283028878  0.26585880082554775  1.0000
  C   C27       1.0  0.23855559399908088  0.7727821030086088  0.22121658838690908  1.0000
  C   C28       1.0  0.28318670800015877  0.7265983721910275  0.268697655935128  1.0000
  C   C29       1.0  0.258441336355041  0.2697774877974837  0.7169246321256109  1.0000
  C   C30       1.0  0.22739915004949293  0.2170453953916294  0.7651928780438408  1.0000
  C   C31       1.0  0.73284946576252  0.25641490670909656  0.2747704440434545  1.0000
  C   C32       1.0  0.7722755770597375  0.21422882767250678  0.2245035396150712  1.0000
  O   O1        1.0  0.20471167157911913  0.2020925627118331  0.0969586669953273  1.0000
  O   O2        1.0  0.11639226637471009  0.105585909148509  0.1793363653417828  1.0000
  O   O3        1.0  0.7773028566701824  0.1822494476047538  0.8915455459320539  1.0000
  O   O4        1.0  0.8704831771370537  0.0893554685967075  0.8101899025217987  1.0000
  O   O5        1.0  0.7907487825739709  0.18375472909953317  0.10573566688239569  1.0000
  O   O6        1.0  0.8941612897235416  0.092745955332461  0.18508650995735107  1.0000
  O   O7        1.0  0.2176480150813518  0.17421638372803017  0.8830799965132455  1.0000
  O   O8        1.0  0.1028762219977182  0.0958484894005665  0.8044740921325866  1.0000
  O   O9        1.0  0.0977335501953647  0.28690144186099786  0.9874375224494256  1.0000
  O   O10       1.0  0.33517801816869763  0.1566227449604298  0.994292289353389  1.0000
  O   O11       1.0  0.8819018735686655  0.28689783383553186  0.9967822599563689  1.0000
  O   O12       1.0  0.6662797441455127  0.0997102577534932  0.0007240449567192002  1.0000
  O   O13       1.0  0.9971549737437114  0.10779839746140137  0.0498127538907553  1.0000
  O   O14       1.0  0.9940621494759156  0.1462463218784222  0.9209157965434399  1.0000
  O   O15       1.0  0.2204226202474757  0.8145921038946399  0.8903646383720699  1.0000
  O   O16       1.0  0.11808074905433587  0.900817954627051  0.8086413367885257  1.0000
  O   O17       1.0  0.8090027357711094  0.7964721057722031  0.1026849201664675  1.0000
  O   O18       1.0  0.9027301281819149  0.8891623465812656  0.18402072469847744  1.0000
  O   O19       1.0  0.6987565200922319  0.8967419546127218  0.8419382451732602  1.0000
  O   O20       1.0  0.887312002017886  0.8911899494064243  0.8094553628740966  1.0000
  O   O21       1.0  0.20336374840820778  0.7996846843563646  0.1034833038031167  1.0000
  O   O22       1.0  0.12931741439860642  0.9060803876073038  0.1832892458684796  1.0000
  O   O23       1.0  0.16070821400607121  0.7010429547851018  0.9950577557303362  1.0000
  O   O24       1.0  0.3325528426880097  0.886885221828436  0.002538906884098  1.0000
  O   O25       1.0  0.8235660941901628  0.734460251551198  0.9595770155589419  1.0000
  O   O26       1.0  0.6726524225105948  0.901558930486445  0.9804051724630296  1.0000
  O   O27       1.0  0.0004778905649657999  0.8433770700906676  0.9274560591599653  1.0000
  O   O28       1.0  0.011408678015911299  0.8872533818251752  0.0534136372937084  1.0000
  O   O29       1.0  0.1248012841960175  0.000362041515686  0.938069425584402  1.0000
  O   O30       1.0  0.8292769993453035  0.9925304610914907  0.07202828089487669  1.0000
  O   O31       1.0  0.1826915289215805  0.006668036777149698  0.06270198863471417  1.0000
  O   O32       1.0  0.8728648286921652  0.9952764327678025  0.9435668297302583  1.0000
  O   O33       1.0  0.7049809445951283  0.2875369585195955  0.3932772153548996  1.0000
  O   O34       1.0  0.61656100784478  0.3836277498351208  0.31069340082081  1.0000
  O   O35       1.0  0.27740750734311354  0.3081602683177351  0.5989422816634047  1.0000
  O   O36       1.0  0.370663238021848  0.4012652248981042  0.6800992028250973  1.0000
  O   O37       1.0  0.2906662241200308  0.3056765910660815  0.3845847347629387  1.0000
  O   O38       1.0  0.39435366549787426  0.3960292968974955  0.30505565071641166  1.0000
  O   O39       1.0  0.7179737781156774  0.3158394633436358  0.6071141990788007  1.0000
  O   O40       1.0  0.6030820486734854  0.3945066435890965  0.6855378479249267  1.0000
  O   O41       1.0  0.5980162354678669  0.2030384444101614  0.5029216114616374  1.0000
  O   O42       1.0  0.8352068060715824  0.33338388157547166  0.49587088090055415  1.0000
  O   O43       1.0  0.38222668082075734  0.20306120828644222  0.49371115374323427  1.0000
  O   O44       1.0  0.16637299514919587  0.3902709078409501  0.48951931479882654  1.0000
  O   O45       1.0  0.49723209572259447  0.38190504651696944  0.4402909537113047  1.0000
  O   O46       1.0  0.49419647823705043  0.34391244137081856  0.5692725264075733  1.0000
  O   O47       1.0  0.7201180072825935  0.6757018393189966  0.5991777900052355  1.0000
  O   O48       1.0  0.6179351478669233  0.5897470969238724  0.6811093459178463  1.0000
  O   O49       1.0  0.3091362562642103  0.6929495058794898  0.386489614790797  1.0000
  O   O50       1.0  0.4025254297674082  0.5995164723350044  0.30541287184446014  1.0000
  O   O51       1.0  0.19894769844754726  0.593029518400634  0.6480157109736381  1.0000
  O   O52       1.0  0.3875821438556032  0.599391978451287  0.6802334111104216  1.0000
  O   O53       1.0  0.7033772845737901  0.6897662544502196  0.3857786932351885  1.0000
  O   O54       1.0  0.6290251553477476  0.5831855052649997  0.30623679232508744  1.0000
  O   O55       1.0  0.6603968638038893  0.7887512018169787  0.49423598423314974  1.0000
  O   O56       1.0  0.8323934288104056  0.6031449862984672  0.487099899123038  1.0000
  O   O57       1.0  0.3233520215978061  0.7555208441093199  0.5297964931480763  1.0000
  O   O58       1.0  0.1726766110314699  0.5884259219721456  0.5094285448855514  1.0000
  O   O59       1.0  0.5004203638707737  0.6467295244380225  0.5620195440366729  1.0000
  O   O60       1.0  0.5113496151662105  0.602433249890268  0.4361196940142023  1.0000
  O   O61       1.0  0.624931564208353  0.4896958192079595  0.5518235277634531  1.0000
  O   O62       1.0  0.32924274362574113  0.49703678523471234  0.41785368439897025  1.0000
  O   O63       1.0  0.6826493746980589  0.4829953120831973  0.4271139745426353  1.0000
  O   O64       1.0  0.372985006400512  0.49483784156384986  0.546310911274844  1.0000
