data_image0
_chemical_formula_structural       Zn4H16C24N16O12
_chemical_formula_sum              "Zn4 H16 C24 N16 O12"
_cell_length_a       5.987031081008892
_cell_length_b       8.241455083631275
_cell_length_c       16.011880780062835
_cell_angle_alpha    101.00214184684934
_cell_angle_beta     89.99993927520359
_cell_angle_gamma    89.99979308589414

_space_group_name_H-M_alt    "P 1"
_space_group_IT_number       1

loop_
  _space_group_symop_operation_xyz
  'x, y, z'

loop_
  _atom_site_type_symbol
  _atom_site_label
  _atom_site_symmetry_multiplicity
  _atom_site_fract_x
  _atom_site_fract_y
  _atom_site_fract_z
  _atom_site_occupancy
  Zn  Zn1       1.0  0.9251324852514811  0.08138136934451978  0.2265206682640439  1.0000
  Zn  Zn2       1.0  0.4251292090843818  0.918619984738669  0.2734798210124366  1.0000
  Zn  Zn3       1.0  0.0748681967179081  0.9186203178873812  0.7734790793866181  1.0000
  Zn  Zn4       1.0  0.5748664620640865  0.0813779910108536  0.726520808707434  1.0000
  H   H1        1.0  0.9335073744195482  0.8793754802963675  0.9487290907909267  1.0000
  H   H2        1.0  0.4335026653901153  0.12063062326235752  0.5512726529632201  1.0000
  H   H3        1.0  0.06648829672268872  0.12062621493983981  0.05126753496850969  1.0000
  H   H4        1.0  0.5664863246353634  0.8793722968804828  0.4487284656785917  1.0000
  H   H5        1.0  0.5884377275441822  0.5390532956104437  0.7700318995781286  1.0000
  H   H6        1.0  0.08842723969330989  0.46094621065285685  0.7299705988531  1.0000
  H   H7        1.0  0.4115679652749548  0.4609434552284598  0.22996423725820847  1.0000
  H   H8        1.0  0.9115734422799804  0.5390529963880297  0.2700320262307159  1.0000
  H   H9        1.0  0.2847161960192465  0.5109751487926671  0.8746177384535938  1.0000
  H   H10       1.0  0.7847089514186081  0.48902389443515665  0.6253827507264303  1.0000
  H   H11       1.0  0.7152995184669492  0.489019125042624  0.1253800270552361  1.0000
  H   H12       1.0  0.21529507108883905  0.5109814914837756  0.37462110988435166  1.0000
  H   H13       1.0  0.3157270917289878  0.6732284007008433  0.024090944842647795  1.0000
  H   H14       1.0  0.8157249819064559  0.3267707435561888  0.4759087514649778  1.0000
  H   H15       1.0  0.6842769308330431  0.3267609271633559  0.9759069561292077  1.0000
  H   H16       1.0  0.18426901893086267  0.6732383570623668  0.5240929783246243  1.0000
  C   C1        1.0  0.7849949418728386  0.8021809218857285  0.9369551545306718  1.0000
  C   C2        1.0  0.2849997699851983  0.1978243011450047  0.5630459456013951  1.0000
  C   C3        1.0  0.21500072928534308  0.19781583056478524  0.06304035793054649  1.0000
  C   C4        1.0  0.7149925605850952  0.8021810879871935  0.43695666625625756  1.0000
  C   C5        1.0  0.5877192243670918  0.60899275070161  0.8349029180314956  1.0000
  C   C6        1.0  0.08770930469987799  0.3910055227769007  0.6650988342893027  1.0000
  C   C7        1.0  0.41229314956974855  0.3910002886409814  0.16509410087000015  1.0000
  C   C8        1.0  0.9122863664228332  0.6089998631519864  0.3349050263243711  1.0000
  C   C9        1.0  0.42366292358186536  0.5950044393436756  0.8936894846225201  1.0000
  C   C10       1.0  0.9236562213174153  0.40499303500735107  0.6063114103498676  1.0000
  C   C11       1.0  0.5763444395144218  0.4049898233039002  0.106312651539362  1.0000
  C   C12       1.0  0.07634613094412399  0.5950037078372076  0.3936878483806011  1.0000
  C   C13       1.0  0.624624937479517  0.7888403967707662  0.998189008175572  1.0000
  C   C14       1.0  0.12462148128543052  0.21116150502245296  0.5018099633465312  1.0000
  C   C15       1.0  0.3753757445149973  0.2111526345874353  0.0018111326229401973  1.0000
  C   C16       1.0  0.8753758601331256  0.7888389445174155  0.4981902864539761  1.0000
  C   C17       1.0  0.44053235574245514  0.6851644169620527  0.9762983079126426  1.0000
  C   C18       1.0  0.9405297240452839  0.31483672866409773  0.5237016932923239  1.0000
  C   C19       1.0  0.5594816885054357  0.31481874160617457  0.023694611256061603  1.0000
  C   C20       1.0  0.0594742984424244  0.6851748361368593  0.4763034028465824  1.0000
  C   C21       1.0  0.6561054660446854  0.8784324223281816  0.0887518114017851  1.0000
  C   C22       1.0  0.1561182664753602  0.1215769895409835  0.4112495978121941  1.0000
  C   C23       1.0  0.34388185373044416  0.12156184514228131  0.911248451631266  1.0000
  C   C24       1.0  0.8438824154598237  0.8784358225579537  0.5887512499076237  1.0000
  N   N1        1.0  0.07541392653697439  0.7488560438583248  0.17132194274908127  1.0000
  N   N2        1.0  0.5754159553107813  0.251164667623037  0.3286874906599095  1.0000
  N   N3        1.0  0.9245867553658015  0.25116416402298114  0.8286877552718791  1.0000
  N   N4        1.0  0.42458138605403656  0.7488505974765688  0.6713210940639981  1.0000
  N   N5        1.0  0.7639598342392871  0.7125805371196706  0.8569566468068428  1.0000
  N   N6        1.0  0.26394890938156124  0.2874197916817637  0.643043978998399  1.0000
  N   N7        1.0  0.2360441882892772  0.2874199172112455  0.1430417298555753  1.0000
  N   N8        1.0  0.7360501023245974  0.7125769479674419  0.35695652849041437  1.0000
  N   N9        1.0  0.10850669813198979  0.8708540077323477  0.22576037783516506  1.0000
  N   N10       1.0  0.6085145889712537  0.1291394515414837  0.2742382266431349  1.0000
  N   N11       1.0  0.8914889730270374  0.12914150222316317  0.7742375099105272  1.0000
  N   N12       1.0  0.3914894335983803  0.8708474041300392  0.7257594298689154  1.0000
  N   N13       1.0  0.03998775997634849  0.6314204776362474  0.12072713918209388  1.0000
  N   N14       1.0  0.5399956549633415  0.3685694430624268  0.37926864860830983  1.0000
  N   N15       1.0  0.9600029003746327  0.36856761574721014  0.8792700151858951  1.0000
  N   N16       1.0  0.4600083676130425  0.6314161829114228  0.6207263881594541  1.0000
  O   O1        1.0  0.8100879580743124  0.987733419783801  0.10270441702061109  1.0000
  O   O2        1.0  0.3100930867101396  0.012268210098177702  0.3972955276549256  1.0000
  O   O3        1.0  0.18990938335786464  0.0122633262660585  0.8972935929544048  1.0000
  O   O4        1.0  0.6899042546947954  0.9877359429317137  0.602706961971087  1.0000
  O   O5        1.0  0.5291494507364192  0.8343667657181515  0.1433526059019599  1.0000
  O   O6        1.0  0.029163791022398293  0.1656429583474122  0.3566451450808046  1.0000
  O   O7        1.0  0.47085123124890765  0.16562997872805604  0.8566460284504911  1.0000
  O   O8        1.0  0.9708469125911561  0.8343649125535678  0.6433539649587274  1.0000
  O   O9        1.0  0.9197499661870123  0.7159937097813867  0.7977414145185762  1.0000
  O   O10       1.0  0.4197422609343846  0.28400377229771584  0.7022601075462872  1.0000
  O   O11       1.0  0.08024904550384801  0.2840092183478404  0.20225658222679493  1.0000
  O   O12       1.0  0.5802567507573215  0.7159979133365088  0.2977402644835506  1.0000
