data_image0
_chemical_formula_structural       Zn2H18C32N12O8
_chemical_formula_sum              "Zn2 H18 C32 N12 O8"
_cell_length_a       7.161592379471928
_cell_length_b       7.61791146638762
_cell_length_c       15.326384500828484
_cell_angle_alpha    83.37019933594199
_cell_angle_beta     86.96831268393284
_cell_angle_gamma    67.09000911547334

_space_group_name_H-M_alt    "P 1"
_space_group_IT_number       1

loop_
  _space_group_symop_operation_xyz
  'x, y, z'

loop_
  _atom_site_type_symbol
  _atom_site_label
  _atom_site_symmetry_multiplicity
  _atom_site_fract_x
  _atom_site_fract_y
  _atom_site_fract_z
  _atom_site_occupancy
  Zn  Zn1       1.0  0.2759738725591775  0.8642170675414744  0.3100811600596103  1.0000
  Zn  Zn2       1.0  0.7240292810669473  0.13578245162585026  0.6899180888246266  1.0000
  H   H1        1.0  0.45571849886687227  0.6743260361366195  0.7226396443357646  1.0000
  H   H2        1.0  0.5442802275313383  0.3256706235030861  0.277359865152512  1.0000
  H   H3        1.0  0.8739019209753138  0.9443288368684933  0.4416436383723693  1.0000
  H   H4        1.0  0.1261027524196479  0.0556806748418524  0.5583563518338296  1.0000
  H   H5        1.0  0.5329706602746568  0.921897354843665  0.4302981532477831  1.0000
  H   H6        1.0  0.4670326275822346  0.07811212797985688  0.5697031779514887  1.0000
  H   H7        1.0  0.6541516632833931  0.8073822814144124  0.16999663259880296  1.0000
  H   H8        1.0  0.34584989426506496  0.1926142994666407  0.830006073150628  1.0000
  H   H9        1.0  0.15415341860023093  0.6328897171747342  0.77129885014584  1.0000
  H   H10       1.0  0.8458470736331164  0.36710261411090533  0.22870214823031892  1.0000
  H   H11       1.0  0.03794872176053585  0.6729109534589243  0.9280408990720661  1.0000
  H   H12       1.0  0.9620549218460184  0.32707707835947997  0.07196024719890201  1.0000
  H   H13       1.0  0.574441120720934  0.7765366511314225  0.9751587619938961  1.0000
  H   H14       1.0  0.42555491543268426  0.2234700357528823  0.02484028668685311  1.0000
  H   H15       1.0  0.6729411728577402  0.7284711253734598  0.814973870702467  1.0000
  H   H16       1.0  0.32705777742987857  0.27152841332517846  0.18502482919085855  1.0000
  H   H17       1.0  0.7965079654118269  0.3139775362577097  0.4705127930808502  1.0000
  H   H18       1.0  0.2034870187764852  0.6860248706906801  0.529485854503797  1.0000
  C   C1        1.0  0.8286269641200193  0.9074186137695717  0.3818549903564162  1.0000
  C   C2        1.0  0.17137385285899137  0.09258663608248699  0.6181440150468803  1.0000
  C   C3        1.0  0.6394384812867029  0.8979919210782299  0.37546342002929833  1.0000
  C   C4        1.0  0.36056398516919325  0.10201614569805167  0.6245373536175124  1.0000
  C   C5        1.0  0.7080206616188536  0.8322941640677753  0.23088811919161864  1.0000
  C   C6        1.0  0.29197832871817303  0.16770528360932244  0.769114499533238  1.0000
  C   C7        1.0  0.9013157993269234  0.8342399218251086  0.2384280012962989  1.0000
  C   C8        1.0  0.09868421627579947  0.16576386646893576  0.7615724059703055  1.0000
  C   C9        1.0  0.05407099466283683  0.8047554547817057  0.16895982877731802  1.0000
  C   C10       1.0  0.9459315814764153  0.1952454818865448  0.8310400123752688  1.0000
  C   C11       1.0  0.22902390232509626  0.7633817719599846  0.05333466754022003  1.0000
  C   C12       1.0  0.7709750613123205  0.23661773639814493  0.9466653386302897  1.0000
  C   C13       1.0  0.2431788951231582  0.6604471285662185  0.8196612837424768  1.0000
  C   C14       1.0  0.756822995998064  0.33954520126573584  0.18033967991779326  1.0000
  C   C15       1.0  0.17949142056111372  0.6851264204841029  0.9056564073204074  1.0000
  C   C16       1.0  0.8205104572103038  0.31486593968836735  0.09434325006267841  1.0000
  C   C17       1.0  0.29662151270078857  0.7296962132295518  0.9636391276706038  1.0000
  C   C18       1.0  0.7033772203723243  0.270300431239896  0.036361034956264915  1.0000
  C   C19       1.0  0.4798067542766445  0.7427576965824726  0.9320409101441671  1.0000
  C   C20       1.0  0.520191625198997  0.2572432444468403  0.06795903515610043  1.0000
  C   C21       1.0  0.5362534776729929  0.7169906244573594  0.845410722021548  1.0000
  C   C22       1.0  0.4637426815137858  0.28300890197839823  0.15458870044216166  1.0000
  C   C23       1.0  0.1784830413326688  0.4786350670597486  0.4521562077440323  1.0000
  C   C24       1.0  0.8215119495305457  0.5213673247183762  0.5478430929792071  1.0000
  C   C25       1.0  0.06471110389661308  0.37204734580413396  0.43495910800928084  1.0000
  C   C26       1.0  0.935281673352648  0.6279536162101848  0.5650403230159783  1.0000
  C   C27       1.0  0.8868740727032289  0.3951717032789189  0.48291873102598976  1.0000
  C   C28       1.0  0.11312290120963547  0.6048292543743371  0.5170805958515887  1.0000
  C   C29       1.0  0.3666595231812409  0.46184324965599177  0.40017277677058166  1.0000
  C   C30       1.0  0.6333374574065329  0.5381576928270063  0.5998272032455888  1.0000
  C   C31       1.0  0.1302701036373506  0.2304929450837534  0.3674353375566568  1.0000
  C   C32       1.0  0.8697290905643769  0.7695094271630579  0.6325645121574868  1.0000
  N   N1        1.0  0.9577567599467186  0.8737955607461741  0.31429180499913667  1.0000
  N   N2        1.0  0.04224545592015971  0.1262096876521994  0.6857071656882641  1.0000
  N   N3        1.0  0.5795318865050946  0.8642653989143766  0.29993888497149623  1.0000
  N   N4        1.0  0.4204740849214801  0.1357340718348041  0.7000622538967181  1.0000
  N   N5        1.0  0.22971625831532785  0.824741739757549  0.18567896238931786  1.0000
  N   N6        1.0  0.770282929211504  0.1752606476595132  0.8143202341862408  1.0000
  N   N7        1.0  0.34262899866077134  0.7984383427705878  0.1119409607386501  1.0000
  N   N8        1.0  0.6573693741399608  0.20156261342898318  0.8880583314230324  1.0000
  N   N9        1.0  0.047422561820134476  0.7657918958278599  0.08642957252440912  1.0000
  N   N10       1.0  0.9525744254425349  0.23420903148488034  0.9135710606303393  1.0000
  N   N11       1.0  0.4169239681781959  0.6784949409924365  0.7914206368085532  1.0000
  N   N12       1.0  0.5830761637827848  0.3215017020233262  0.20857949110242666  1.0000
  O   O1        1.0  0.4082352078980732  0.6109045319271758  0.38275386966931535  1.0000
  O   O2        1.0  0.5917629410132504  0.38909354521346273  0.617246232087318  1.0000
  O   O3        1.0  0.4769289572443752  0.3001242071358731  0.37538893016297703  1.0000
  O   O4        1.0  0.5230700264177487  0.6998752557114897  0.6246130354232946  1.0000
  O   O5        1.0  0.11822431129232304  0.2867306703016439  0.28702650665400853  1.0000
  O   O6        1.0  0.8817770898484693  0.7132731468792314  0.712972559619523  1.0000
  O   O7        1.0  0.18835778428393718  0.05362256822134269  0.4002045268456485  1.0000
  O   O8        1.0  0.8116420007544748  0.9463783561840273  0.5997960368773152  1.0000
