data_image0
_chemical_formula_structural       Zn2H84C48N8O8
_chemical_formula_sum              "Zn2 H84 C48 N8 O8"
_cell_length_a       9.532362557275206
_cell_length_b       9.519318774897949
_cell_length_c       15.080743432589003
_cell_angle_alpha    81.39934389688632
_cell_angle_beta     84.65735070257999
_cell_angle_gamma    83.54833532762531

_space_group_name_H-M_alt    "P 1"
_space_group_IT_number       1

loop_
  _space_group_symop_operation_xyz
  'x, y, z'

loop_
  _atom_site_type_symbol
  _atom_site_label
  _atom_site_symmetry_multiplicity
  _atom_site_fract_x
  _atom_site_fract_y
  _atom_site_fract_z
  _atom_site_occupancy
  Zn  Zn1       1.0  0.2572347292264254  0.49406741711663926  0.7524224784909989  1.0000
  Zn  Zn2       1.0  0.742757647447057  0.5059404620238368  0.2475777016139915  1.0000
  H   H1        1.0  0.10779656642386469  0.5767772256848573  0.8823795026651738  1.0000
  H   H2        1.0  0.8921985076905941  0.4232252798542148  0.11762630804531679  1.0000
  H   H3        1.0  0.1643312258149408  0.7533567015008629  0.6913235035857143  1.0000
  H   H4        1.0  0.8356655821646296  0.246649055052913  0.30867659665872793  1.0000
  H   H5        1.0  0.3992020621774444  0.4175721839762189  0.6189585610189924  1.0000
  H   H6        1.0  0.6007983419332775  0.5824293111942539  0.381041707251832  1.0000
  H   H7        1.0  0.33874124761560853  0.2318999613598294  0.8174781178293458  1.0000
  H   H8        1.0  0.6612623539751326  0.768111187673476  0.1825170883293268  1.0000
  H   H9        1.0  0.40115981702689396  0.6175231393783135  0.9082785231627497  1.0000
  H   H10       1.0  0.598841103921174  0.38247304265487253  0.09171888478861936  1.0000
  H   H11       1.0  0.14685627316749358  0.8167273397706225  0.841359683200281  1.0000
  H   H12       1.0  0.8531460364938681  0.1832762819888814  0.1586422613319343  1.0000
  H   H13       1.0  0.29858881530262943  0.876171126175464  0.8762848155419647  1.0000
  H   H14       1.0  0.7014171824710118  0.12382718187298992  0.12371539848752629  1.0000
  H   H15       1.0  0.34341960547975253  0.9040863556110919  0.7208717043813024  1.0000
  H   H16       1.0  0.6565765683666528  0.09591514204101512  0.2791268363896862  1.0000
  H   H17       1.0  0.44689215070556554  0.7416482930881045  0.7565866926797682  1.0000
  H   H18       1.0  0.5531049616832392  0.25835428073314387  0.2434110281403861  1.0000
  H   H19       1.0  0.24965830087753466  0.5873031640237515  0.058456941467220185  1.0000
  H   H20       1.0  0.7503473754073653  0.41269834220677387  0.9415436622887228  1.0000
  H   H21       1.0  0.12690410977065622  0.7268662472207481  0.011736927786891695  1.0000
  H   H22       1.0  0.8731037015724965  0.27313523974448367  0.9882668610331109  1.0000
  H   H23       1.0  0.3012234502909692  0.7615561012623006  0.028271518925478703  1.0000
  H   H24       1.0  0.6987845450144405  0.2384432810474237  0.9717284728362969  1.0000
  H   H25       1.0  0.4505563110739814  0.6709610488044007  0.6145510709104158  1.0000
  H   H26       1.0  0.5494409445344886  0.3290404263404342  0.3854507204741324  1.0000
  H   H27       1.0  0.3749989342081506  0.9317456264521911  0.5737663380729856  1.0000
  H   H28       1.0  0.6249942001966389  0.0682547833969593  0.4262338169804424  1.0000
  H   H29       1.0  0.3958872256910268  0.838710539632345  0.4797776242262586  1.0000
  H   H30       1.0  0.6041091833561792  0.1612888070155947  0.5202230885800034  1.0000
  H   H31       1.0  0.10950169354124031  0.9208837705363139  0.5803994143700848  1.0000
  H   H32       1.0  0.890492264652124  0.07911878840914711  0.4195991663311744  1.0000
  H   H33       1.0  0.17432456682008277  0.003786508700514399  0.4746617880533535  1.0000
  H   H34       1.0  0.8256722386174787  0.996208602887137  0.5253346467995073  1.0000
  H   H35       1.0  0.18283245739227988  0.7786642273313191  0.4101075433197963  1.0000
  H   H36       1.0  0.817156802395978  0.22133295591827823  0.5898944739030085  1.0000
  H   H37       1.0  0.009437114847607115  0.8230803156899212  0.45812053023536237  1.0000
  H   H38       1.0  0.9905553048292504  0.1769168772856204  0.5418812903389423  1.0000
  H   H39       1.0  0.09053081546299778  0.5645956307442503  0.49598338723315283  1.0000
  H   H40       1.0  0.9094594227198413  0.435402592625529  0.5040224526671011  1.0000
  H   H41       1.0  0.05508582427260222  0.6446339161871747  0.5945405601898202  1.0000
  H   H42       1.0  0.9449115631691926  0.3553664705809396  0.4054639752938911  1.0000
  H   H43       1.0  0.3452460881123898  0.5880291262508804  0.4940707600684391  1.0000
  H   H44       1.0  0.6547500914271964  0.4119723662513763  0.5059284439351543  1.0000
  H   H45       1.0  0.10579806109429059  0.37287121981805876  0.5954426327305384  1.0000
  H   H46       1.0  0.8942014272467346  0.6271291785838714  0.40456110842156073  1.0000
  H   H47       1.0  0.3599447568322987  0.17518817314520158  0.6642051099482416  1.0000
  H   H48       1.0  0.6400608103919653  0.8248144008626354  0.3357954026389791  1.0000
  H   H49       1.0  0.20922873669511688  0.1149488485530057  0.6285684948691994  1.0000
  H   H50       1.0  0.7907753555278987  0.885047332906417  0.37143004289890064  1.0000
  H   H51       1.0  0.05915223280220519  0.2521418127453074  0.7470394434155239  1.0000
  H   H52       1.0  0.9408511503860383  0.7478511466906497  0.25296142310606473  1.0000
  H   H53       1.0  0.15936833803592523  0.08787183484503912  0.7832216508881303  1.0000
  H   H54       1.0  0.8406397720232944  0.9121264745375229  0.21677909527497263  1.0000
  H   H55       1.0  0.25907081952774996  0.40321321889587125  0.44590160470475126  1.0000
  H   H56       1.0  0.7409177141462209  0.5967807577798184  0.5541007515737135  1.0000
  H   H57       1.0  0.2093301351911379  0.2280636585132285  0.4758785151689722  1.0000
  H   H58       1.0  0.7906550204729539  0.7719324439911331  0.5241238554205553  1.0000
  H   H59       1.0  0.3822912176488842  0.2648919305772566  0.49367643465622985  1.0000
  H   H60       1.0  0.617697184191762  0.7351031344751462  0.506323177523072  1.0000
  H   H61       1.0  0.051484361463352  0.3260426213503109  0.8866743320568277  1.0000
  H   H62       1.0  0.9485148085400895  0.6739503251177227  0.11332679666276137  1.0000
  H   H63       1.0  0.1182816253986516  0.06403592201716178  0.9315328484811829  1.0000
  H   H64       1.0  0.8817238359161407  0.9359570696520123  0.06846457077835305  1.0000
  H   H65       1.0  0.09381207437237998  0.1605201104392293  0.024083350387314805  1.0000
  H   H66       1.0  0.9061966672779959  0.8394718128788767  0.9759152898576672  1.0000
  H   H67       1.0  0.3101773287604388  0.9896005881677323  0.03731285875996089  1.0000
  H   H68       1.0  0.6898393403920905  0.0103956888438219  0.9626775968554214  1.0000
  H   H69       1.0  0.3830716219691155  0.0652021823649065  0.9317643081985238  1.0000
  H   H70       1.0  0.6169379696749006  0.9348015444860845  0.06822656576542133  1.0000
  H   H71       1.0  0.4813644045642533  0.16524091341299402  0.0532394646189971  1.0000
  H   H72       1.0  0.5186432407865524  0.8347616928280673  0.9467576007061638  1.0000
  H   H73       1.0  0.3075133135799675  0.21765950309824691  0.09759990756227668  1.0000
  H   H74       1.0  0.6924909682984719  0.782334568555818  0.9023954963802012  1.0000
  H   H75       1.0  0.445382058474479  0.33929998752564927  0.9130225448177284  1.0000
  H   H76       1.0  0.554616626589862  0.6607079213664094  0.086975915525052  1.0000
  H   H77       1.0  0.4110213188786814  0.4247012560836367  0.009349376789302288  1.0000
  H   H78       1.0  0.5889739278116862  0.5752991550996287  0.9906513103977374  1.0000
  H   H79       1.0  0.1540750895997931  0.407276313310156  0.009640317723175003  1.0000
  H   H80       1.0  0.8459227113118714  0.5927198229481263  0.9903619295049708  1.0000
  H   H81       1.0  0.8226692338293945  0.3894588305210149  0.6898614220189501  1.0000
  H   H82       1.0  0.17734994791147327  0.6105351474747777  0.3101509715110567  1.0000
  H   H83       1.0  0.685640689334761  0.607745748980271  0.8109103069240717  1.0000
  H   H84       1.0  0.3143633373934236  0.3922814643954666  0.1890780947439055  1.0000
  C   C1        1.0  0.28703189376805943  0.652363735000101  0.9128790400524454  1.0000
  C   C2        1.0  0.7129709555033302  0.3476345530227007  0.08712269709076283  1.0000
  C   C3        1.0  0.2619159299696676  0.7899206504041558  0.8461209002905221  1.0000
  C   C4        1.0  0.7380879555184023  0.21007765631019026  0.1538787816053571  1.0000
  C   C5        1.0  0.337649628526698  0.7920841903202601  0.7520911160944195  1.0000
  C   C6        1.0  0.6623518231870591  0.20791731324205634  0.2479084233942928  1.0000
  C   C7        1.0  0.23865103078274072  0.6830561455517811  0.008334612792637608  1.0000
  C   C8        1.0  0.7613547602559693  0.31694428775158906  0.9916667453646326  1.0000
  C   C9        1.0  0.3388899176179195  0.7071279695978416  0.6035734732765903  1.0000
  C   C10       1.0  0.6611073322973765  0.29287351069683604  0.3964276548753389  1.0000
  C   C11       1.0  0.3297306515943603  0.851611310983692  0.5424904763355514  1.0000
  C   C12       1.0  0.6702634270459881  0.14839016988475606  0.45750952199965417  1.0000
  C   C13       1.0  0.17762557042282623  0.901039895391136  0.5191629478067769  1.0000
  C   C14       1.0  0.8223697739418369  0.09895945831451772  0.48083650408376133  1.0000
  C   C15       1.0  0.11927598475029552  0.7887811885042169  0.4741181692828889  1.0000
  C   C16       1.0  0.8807144430879673  0.21121492506019732  0.5258845367917502  1.0000
  C   C17       1.0  0.1269906144418158  0.6429008915518536  0.533048809953776  1.0000
  C   C18       1.0  0.8730039289069538  0.3570962924580883  0.46695486921937146  1.0000
  C   C19       1.0  0.2790040199907722  0.5942571553637775  0.5576720741094263  1.0000
  C   C20       1.0  0.720993333291993  0.4057432623034458  0.44232848197862046  1.0000
  C   C21       1.0  0.22003392258075388  0.3386432358687657  0.591432413171475  1.0000
  C   C22       1.0  0.7799655372944087  0.6613571882824161  0.4085680118175645  1.0000
  C   C23       1.0  0.24495380177280882  0.20163860060349487  0.6587515054235098  1.0000
  C   C24       1.0  0.755049139479702  0.7983586350915601  0.3412483331905847  1.0000
  C   C25       1.0  0.1675062718348244  0.1997544095122805  0.752385728231232  1.0000
  C   C26       1.0  0.832497602266912  0.800243907501759  0.24761262719942323  1.0000
  C   C27       1.0  0.2702180716964975  0.3076011305331718  0.4962072421391425  1.0000
  C   C28       1.0  0.7297712857660557  0.6923949952388212  0.5037935397871607  1.0000
  C   C29       1.0  0.16141660128163687  0.2867485754034221  0.9006110688102354  1.0000
  C   C30       1.0  0.8385851662276949  0.7132497351266593  0.0993874177194201  1.0000
  C   C31       1.0  0.16339665557277527  0.1437821601840952  0.9632496730338856  1.0000
  C   C32       1.0  0.8366109009480737  0.8562108482687449  0.03674628866143338  1.0000
  C   C33       1.0  0.312597327872318  0.0903219040247691  0.9909928215736556  1.0000
  C   C34       1.0  0.6874116581044091  0.9096775381753018  0.008999809079888583  1.0000
  C   C35       1.0  0.3730849603535589  0.2025514035982283  0.03497254531134789  1.0000
  C   C36       1.0  0.6269176081716595  0.7974490766275649  0.9650217139356912  1.0000
  C   C37       1.0  0.37216439601952084  0.3461204756294762  0.9736052012496614  1.0000
  C   C38       1.0  0.6278337696654788  0.6538821014337585  0.026392454020992797  1.0000
  C   C39       1.0  0.2220164010337271  0.39866168468267205  0.9469247626746338  1.0000
  C   C40       1.0  0.7779809465558644  0.6013387381344091  0.053075130180793864  1.0000
  C   C41       1.0  0.5895335591769708  0.42118657769336204  0.7153338534400788  1.0000
  C   C42       1.0  0.4104802991511818  0.5788074355910453  0.2846722355113087  1.0000
  C   C43       1.0  0.7377682058210625  0.44956295048029216  0.7263474249270914  1.0000
  C   C44       1.0  0.2622408305038206  0.5504374153012392  0.2736636850708649  1.0000
  C   C45       1.0  0.9190159404118033  0.574339979261765  0.7856737383561737  1.0000
  C   C46       1.0  0.08097454463939607  0.42567640795610373  0.21432975734422402  1.0000
  C   C47       1.0  0.7703176436901985  0.5473183743798202  0.7744671678146275  1.0000
  C   C48       1.0  0.2296897664598063  0.45268638286541574  0.22552772547525993  1.0000
  N   N1        1.0  0.21377322491765935  0.5372565587625928  0.8866817953829412  1.0000
  N   N2        1.0  0.7862229887809491  0.46274490284055514  0.11332138801632398  1.0000
  N   N3        1.0  0.26797301594619677  0.7124627887223483  0.6949295630567177  1.0000
  N   N4        1.0  0.7320228477978077  0.28754189681213665  0.3050706939059467  1.0000
  N   N5        1.0  0.2922804085569624  0.45482351630625567  0.6171019195703806  1.0000
  N   N6        1.0  0.7077210374636209  0.5451779924059109  0.3828969566857197  1.0000
  N   N7        1.0  0.23705668461716553  0.2773418007794817  0.8108298054656728  1.0000
  N   N8        1.0  0.7629437024140486  0.7226597098405491  0.1891684731073155  1.0000
  O   O1        1.0  0.4896343670622373  0.47562550808077475  0.7665235159356101  1.0000
  O   O2        1.0  0.5103636121185104  0.5243685286718431  0.23347427100168966  1.0000
  O   O3        1.0  0.5736700995508527  0.3472427098262187  0.6539876383231232  1.0000
  O   O4        1.0  0.4263489310163919  0.6527620521816926  0.34601051331794963  1.0000
  O   O5        1.0  0.018842570966349115  0.5134396282845869  0.7377512841816128  1.0000
  O   O6        1.0  0.9811633405193446  0.48655972694177047  0.2622514916096037  1.0000
  O   O7        1.0  0.9351821220326354  0.6533317458296038  0.8443281049214448  1.0000
  O   O8        1.0  0.06480369966286051  0.3466782648631579  0.1556702964452654  1.0000
