data_image0
_chemical_formula_structural       Cu6H42C40N16
_chemical_formula_sum              "Cu6 H42 C40 N16"
_cell_length_a       11.273567112951982
_cell_length_b       11.662290482222888
_cell_length_c       12.918
_cell_angle_alpha    63.90719600395919
_cell_angle_beta     89.78001160725495
_cell_angle_gamma    71.32437033591455

_space_group_name_H-M_alt    "P 1"
_space_group_IT_number       1

loop_
  _space_group_symop_operation_xyz
  'x, y, z'

loop_
  _atom_site_type_symbol
  _atom_site_label
  _atom_site_symmetry_multiplicity
  _atom_site_fract_x
  _atom_site_fract_y
  _atom_site_fract_z
  _atom_site_occupancy
  Cu  Cu1       1.0  0.3745900944333017  0.1729808063652811  0.07684634310776063  1.0000
  Cu  Cu2       1.0  0.6254060446988774  0.8270201558702581  0.9231526684608299  1.0000
  Cu  Cu3       1.0  0.5379342250641345  0.8745560007619062  0.4933056846425147  1.0000
  Cu  Cu4       1.0  0.4620522176006218  0.12545823650496862  0.5066919588343879  1.0000
  Cu  Cu5       1.0  0.3117109261977902  0.6422541851498664  0.7929253672064505  1.0000
  Cu  Cu6       1.0  0.688274874237159  0.3577539251794661  0.2070592289882214  1.0000
  H   H1        1.0  0.8801309978302498  0.5370955138658644  0.9466004746523566  1.0000
  H   H2        1.0  0.1198691483348568  0.4629013637446562  0.05339782304115914  1.0000
  H   H3        1.0  0.9795482734973291  0.43545676819766044  0.8881185716793354  1.0000
  H   H4        1.0  0.020447437481642784  0.5645401094128532  0.11187354796626182  1.0000
  H   H5        1.0  0.8197666628842128  0.4437495781558809  0.8982888107715681  1.0000
  H   H6        1.0  0.18022926217135898  0.5562493417671419  0.10170946423326654  1.0000
  H   H7        1.0  0.6481049075962277  0.6417313531465895  0.7204033817678877  1.0000
  H   H8        1.0  0.35189025282582526  0.3582645033076659  0.2795945639910685  1.0000
  H   H9        1.0  0.4121580029261551  0.886876250995364  0.22320264560179498  1.0000
  H   H10       1.0  0.5878596391760738  0.1131267535526916  0.7767923865149343  1.0000
  H   H11       1.0  0.7678465470508158  0.9523619805619958  0.4072336591786583  1.0000
  H   H12       1.0  0.23214234264901995  0.0476502143923625  0.5927694317268859  1.0000
  H   H13       1.0  0.929451269906366  0.9018821421831477  0.46845872222203877  1.0000
  H   H14       1.0  0.0705375281205747  0.09812494698992681  0.5315456222425468  1.0000
  H   H15       1.0  0.8044831751505299  0.0142492144017936  0.5006330908536684  1.0000
  H   H16       1.0  0.19550672399024194  0.9857599170837973  0.4993735354297116  1.0000
  H   H17       1.0  0.09719558667755018  0.592092947523021  0.7760931560292763  1.0000
  H   H18       1.0  0.9027963313450942  0.4079100570250347  0.22390583285063315  1.0000
  H   H19       1.0  0.0773506610293566  0.740653823172771  0.6457427424655506  1.0000
  H   H20       1.0  0.9226403699560635  0.2593491813752848  0.3542585717275202  1.0000
  H   H21       1.0  0.8413835339496175  0.8506589020496449  0.7990467102307549  1.0000
  H   H22       1.0  0.15861168741452047  0.1493502294359459  0.20095525353734447  1.0000
  H   H23       1.0  0.8712140900133605  0.9649222025157087  0.9161305121696159  1.0000
  H   H24       1.0  0.1287910418947931  0.035075696251063  0.0838743303675642  1.0000
  H   H25       1.0  0.09266761192050411  0.9487113469453661  0.9720657243760159  1.0000
  H   H26       1.0  0.9073373366418593  0.0512763402588376  0.027947044074743105  1.0000
  H   H27       1.0  0.34848613965231573  0.8551897723592888  0.8340091265932444  1.0000
  H   H28       1.0  0.6515142820510178  0.1447928090636381  0.1659925244595257  1.0000
  H   H29       1.0  0.3707715216733831  0.7012361705194934  0.9584751712832117  1.0000
  H   H30       1.0  0.6292268811480852  0.2987525378409686  0.04153411717302901  1.0000
  H   H31       1.0  0.45804059936661196  0.6297511479465143  0.2813917696353201  1.0000
  H   H32       1.0  0.5419732497792894  0.3702579835390765  0.7186078093748023  1.0000
  H   H33       1.0  0.44761559229012693  0.5893674814746888  0.16583321093502693  1.0000
  H   H34       1.0  0.5524050781349034  0.4106263326670572  0.8341739755425125  1.0000
  H   H35       1.0  0.30884705955485  0.6417119511777187  0.2246280524662723  1.0000
  H   H36       1.0  0.6911678297628043  0.3582859475890531  0.7753775314899017  1.0000
  H   H37       1.0  0.2899312113948227  0.217678858020399  0.8397865067135442  1.0000
  H   H38       1.0  0.7100867979185354  0.782314956121347  0.1602028840669973  1.0000
  H   H39       1.0  0.1852423133280041  0.14967597828173504  0.8029351577613326  1.0000
  H   H40       1.0  0.8147740443146034  0.8503147723912363  0.19705777731377344  1.0000
  H   H41       1.0  0.3436679840696542  0.104566400655294  0.7766684636489459  1.0000
  H   H42       1.0  0.6563475172665392  0.895416180767633  0.22333004042117477  1.0000
  C   C1        1.0  0.8822884656698876  0.5034126747485317  0.8791534082616367  1.0000
  C   C2        1.0  0.11770336067986166  0.49658522401824007  0.12084296360912113  1.0000
  C   C3        1.0  0.8408531463507318  0.6222967072747991  0.7601900851764115  1.0000
  C   C4        1.0  0.1591407598229679  0.3777083395857659  0.23980576375457474  1.0000
  C   C5        1.0  0.9040068353861203  0.7075489584965595  0.6912695823463652  1.0000
  C   C6        1.0  0.09598385911898077  0.2924550672077544  0.3087328757283458  1.0000
  C   C7        1.0  0.8170439700442744  0.8051296292018222  0.587673480332285  1.0000
  C   C8        1.0  0.18294305390821117  0.1948774599712522  0.4123285477358607  1.0000
  C   C9        1.0  0.8312312055217249  0.9241025023223983  0.48555383895332255  1.0000
  C   C10       1.0  0.1687593665796712  0.075904586850676  0.5144512736804217  1.0000
  C   C11       1.0  0.033889800958640116  0.6995134799149483  0.7243265619924841  1.0000
  C   C12       1.0  0.9661031265049402  0.3004864611643328  0.27567751049254957  1.0000
  C   C13       1.0  0.04146169205020562  0.77340026200298  0.7939633979366718  1.0000
  C   C14       1.0  0.9585303483761437  0.2265996790763012  0.2060391292933161  1.0000
  C   C15       1.0  0.9355243628269179  0.8456450248307236  0.8250285348779799  1.0000
  C   C16       1.0  0.06447333630310939  0.15435389509229944  0.1749743788642135  1.0000
  C   C17       1.0  0.9528221807010269  0.9095377506373766  0.8899883585640751  1.0000
  C   C18       1.0  0.04717973953853521  0.090459126973137  0.11001767432134811  1.0000
  C   C19       1.0  0.07483809275322534  0.9004494599554249  0.9214197616427173  1.0000
  C   C20       1.0  0.9251660604448021  0.0995433330300699  0.0785909821075919  1.0000
  C   C21       1.0  0.17717512692199477  0.8267628244936418  0.8879639106395347  1.0000
  C   C22       1.0  0.8228272522015844  0.1732299684918459  0.11204296848706011  1.0000
  C   C23       1.0  0.31293657071734765  0.8111534299583241  0.9171069768165835  1.0000
  C   C24       1.0  0.6870671543274798  0.1888352784021379  0.08289842323802081  1.0000
  C   C25       1.0  0.3978713461819225  0.6587458586907218  0.20092493651431914  1.0000
  C   C26       1.0  0.6021455312867872  0.3412540823885664  0.7990813780611319  1.0000
  C   C27       1.0  0.37299038654955313  0.8030893590015395  0.11387383539052832  1.0000
  C   C28       1.0  0.6270234016542702  0.1969064974527228  0.886124822065014  1.0000
  C   C29       1.0  0.33500215310899517  0.8715252089929137  0.9926291098252806  1.0000
  C   C30       1.0  0.6650090963868536  0.12846758399258112  0.007370772556143396  1.0000
  C   C31       1.0  0.323724542124701  0.0087022936170342  0.9569887123590277  1.0000
  C   C32       1.0  0.6762860344105235  0.9912925416809629  0.043007264876557504  1.0000
  C   C33       1.0  0.2836268280295471  0.1267734857632092  0.8376345757875969  1.0000
  C   C34       1.0  0.7163899884970777  0.8732131802847363  0.1623623019832366  1.0000
  C   C35       1.0  0.47912968046068727  0.9967220294962403  0.33967501455006754  1.0000
  C   C36       1.0  0.5208727288741598  0.0032922077706345  0.6603218013128612  1.0000
  C   C37       1.0  0.4002121173448002  0.7109197952989278  0.6756360819113567  1.0000
  C   C38       1.0  0.5997757936449163  0.2890872938741467  0.3243504609117522  1.0000
  C   C39       1.0  0.3425889718122832  0.3508447819486662  0.972026921829148  1.0000
  C   C40       1.0  0.6573964004694588  0.6491592437556406  0.027971683510806176  1.0000
  N   N1        1.0  0.7080770871056074  0.7800204180132226  0.5925930803123336  1.0000
  N   N2        1.0  0.29191516739734885  0.21998156537857483  0.4074086352541357  1.0000
  N   N3        1.0  0.7249562859539438  0.6694904648205552  0.6970209984711103  1.0000
  N   N4        1.0  0.27503220632350184  0.3305094762587331  0.3029784441932861  1.0000
  N   N5        1.0  0.1597952532074274  0.7640209417879548  0.8257948004345721  1.0000
  N   N6        1.0  0.8402033329598311  0.2359779781350753  0.17420811033537834  1.0000
  N   N7        1.0  0.3834280260281346  0.8975330376871469  0.14367414556762284  1.0000
  N   N8        1.0  0.6165919714362786  0.10246281876711551  0.8563221687413147  1.0000
  N   N9        1.0  0.3543548523235458  0.022813651924217002  0.0504305458948124  1.0000
  N   N10       1.0  0.6456591499568775  0.9771842468425548  0.949563429329011  1.0000
  N   N11       1.0  0.4381654541858708  0.0686778640241386  0.2393899164045408  1.0000
  N   N12       1.0  0.5618432868132786  0.9313333097739617  0.7606057723209433  1.0000
  N   N13       1.0  0.4552734636748141  0.7609523672374721  0.6009689852769142  1.0000
  N   N14       1.0  0.5447080849197903  0.2390659546544214  0.3990146668881493  1.0000
  N   N15       1.0  0.3298788329413682  0.4639725566576161  0.9044494697422252  1.0000
  N   N16       1.0  0.6701027771148632  0.5360294267341814  0.09554299212746299  1.0000
