data_image0
_chemical_formula_structural       Cd2H32C38N8O10
_chemical_formula_sum              "Cd2 H32 C38 N8 O10"
_cell_length_a       9.917594139787502
_cell_length_b       11.61747717284126
_cell_length_c       11.442629445257936
_cell_angle_alpha    94.11938956824999
_cell_angle_beta     97.69202530493284
_cell_angle_gamma    109.595029707565

_space_group_name_H-M_alt    "P 1"
_space_group_IT_number       1

loop_
  _space_group_symop_operation_xyz
  'x, y, z'

loop_
  _atom_site_type_symbol
  _atom_site_label
  _atom_site_symmetry_multiplicity
  _atom_site_fract_x
  _atom_site_fract_y
  _atom_site_fract_z
  _atom_site_occupancy
  Cd  Cd1       1.0  0.599675128785279  0.7682999361511805  0.9056329745498175  1.0000
  Cd  Cd2       1.0  0.4003251098194268  0.23170009505901845  0.09436719536709148  1.0000
  H   H1        1.0  0.0513403171419213  0.19872461850390266  0.09674078723342208  1.0000
  H   H2        1.0  0.9486619694964485  0.8012754453606306  0.9032596166356369  1.0000
  H   H3        1.0  0.45588836113234504  0.5387289957771911  0.7493100694897308  1.0000
  H   H4        1.0  0.5441105374898925  0.46127283639386024  0.250687455696756  1.0000
  H   H5        1.0  0.38461263064236556  0.5177721371025825  0.8668094384723801  1.0000
  H   H6        1.0  0.6153892860840955  0.48222700072260244  0.13318910956220253  1.0000
  H   H7        1.0  0.6376869693673014  0.8562267173472762  0.5014124987430931  1.0000
  H   H8        1.0  0.36230779285818215  0.1437723141006728  0.4985878543649278  1.0000
  H   H9        1.0  0.3976387733916055  0.03965595904261931  0.6794808807078354  1.0000
  H   H10       1.0  0.6023529349391765  0.960343033974411  0.3205226200132287  1.0000
  H   H11       1.0  0.9689195396509616  0.6159385135394474  0.8307130874619874  1.0000
  H   H12       1.0  0.031087600513245738  0.38406618993867175  0.16928382697789598  1.0000
  H   H13       1.0  0.8368819448536157  0.4752717072683268  0.15123456628812448  1.0000
  H   H14       1.0  0.16312555160565984  0.5247339143362026  0.8487615800802857  1.0000
  H   H15       1.0  0.712591772975891  0.7487942313108532  0.17727255419070073  1.0000
  H   H16       1.0  0.28740641759515734  0.2512057672450042  0.8227273817740581  1.0000
  H   H17       1.0  0.8678487225488497  0.7715988609202145  0.3742720311208672  1.0000
  H   H18       1.0  0.1321484394664196  0.2284011186708383  0.625726913232505  1.0000
  H   H19       1.0  0.08119835101740591  0.9601442861051697  0.4454892152049439  1.0000
  H   H20       1.0  0.9187991360414002  0.039853881473156605  0.5545140061734131  1.0000
  H   H21       1.0  0.1444421844448769  0.13623798094220524  0.3257166103292946  1.0000
  H   H22       1.0  0.8555583701254719  0.8637602329799777  0.6742860873419614  1.0000
  H   H23       1.0  0.9322103260550986  0.17313335333266627  0.8760906143494722  1.0000
  H   H24       1.0  0.06778991254960692  0.8268666778775328  0.1239095555674368  1.0000
  H   H25       1.0  0.7828846959095727  0.0359112039777827  0.8204882037859702  1.0000
  H   H26       1.0  0.2171154932878068  0.9640860865426931  0.17951351268613544  1.0000
  H   H27       1.0  0.6337193190206917  0.106459732696969  0.05663417289229499  1.0000
  H   H28       1.0  0.3662791199528854  0.893535697330563  0.9433663388407395  1.0000
  H   H29       1.0  0.7663564844029479  0.2842838877094565  0.7588453993761206  1.0000
  H   H30       1.0  0.23364340698459077  0.7157152306496216  0.2411572878828991  1.0000
  H   H31       1.0  0.552974641412561  0.36121694245680663  0.8390439777804559  1.0000
  H   H32       1.0  0.4470242304970923  0.6387821622127491  0.1609594671378076  1.0000
  C   C1        1.0  0.54253971331498  0.881927739429919  0.709813660314019  1.0000
  C   C2        1.0  0.45745365952070927  0.118070352289152  0.2901855946187695  1.0000
  C   C3        1.0  0.5776286687275415  0.9194828324660307  0.49978437082369703  1.0000
  C   C4        1.0  0.42236501553483646  0.0805134393273761  0.5002165372281198  1.0000
  C   C5        1.0  0.5196541392402735  0.9418080039341701  0.6008154317057189  1.0000
  C   C6        1.0  0.48034129070696696  0.0581901257145248  0.39918580644985  1.0000
  C   C7        1.0  0.4417527183628707  0.022826755424745205  0.6003343751580488  1.0000
  C   C8        1.0  0.5582413267335298  0.9771704371327277  0.3996666394576138  1.0000
  C   C9        1.0  0.7750934161733125  0.6093724558643601  0.9783762468707736  1.0000
  C   C10       1.0  0.22491307896387272  0.39063316260124054  0.021624155698148705  1.0000
  C   C11       1.0  0.9836038458691547  0.5656746304566909  0.9053338281790599  1.0000
  C   C12       1.0  0.016401539532296314  0.43432820989084325  0.0946610068864402  1.0000
  C   C13       1.0  0.8913081332321795  0.552957525279858  0.990297668213202  1.0000
  C   C14       1.0  0.10869870458323312  0.44704900339921494  0.009699342378283404  1.0000
  C   C15       1.0  0.9086794175684716  0.48660970148525007  0.08535627455759709  1.0000
  C   C16       1.0  0.0913277135178419  0.5133949967175725  0.9146388906116555  1.0000
  C   C17       1.0  0.8389742390348046  0.9317692298164532  0.1426209630908915  1.0000
  C   C18       1.0  0.16102803852567146  0.06823082877279062  0.8573776915075368  1.0000
  C   C19       1.0  0.803284052725267  0.8334784633634555  0.21061167777656917  1.0000
  C   C20       1.0  0.19671513916787117  0.16652153833133812  0.7893840019876777  1.0000
  C   C21       1.0  0.8917641607905508  0.8468480651998573  0.31965109580501405  1.0000
  C   C22       1.0  0.1082295638012596  0.15315094200798282  0.6803465164209754  1.0000
  C   C23       1.0  0.012903028902506697  0.954842534369355  0.3609718002207174  1.0000
  C   C24       1.0  0.9870957709050856  0.045153816422235614  0.6390288180761559  1.0000
  C   C25       1.0  0.04802546447105979  0.0546139360418749  0.296056116443161  1.0000
  C   C26       1.0  0.9519758072283794  0.9453861167707845  0.7039459197204607  1.0000
  C   C27       1.0  0.9587957132002316  0.0409934062643558  0.18673913266877656  1.0000
  C   C28       1.0  0.041207904342712716  0.9590048513640355  0.8132621666600668  1.0000
  C   C29       1.0  0.8570955503482834  0.05449170683018419  0.006065783528114809  1.0000
  C   C30       1.0  0.14290709712410185  0.9455092777984151  0.9939347269047829  1.0000
  C   C31       1.0  0.8297559481575474  0.1094332119295487  0.8953261364353864  1.0000
  C   C32       1.0  0.170243573318075  0.8905649803901741  0.10467469498916418  1.0000
  C   C33       1.0  0.6403887266366013  0.1656358889590024  0.9869406303502472  1.0000
  C   C34       1.0  0.35961146256078536  0.8343614015614733  0.01306108612185143  1.0000
  C   C35       1.0  0.7063195628459551  0.25929786590872084  0.8311170812982311  1.0000
  C   C36       1.0  0.29367930452475116  0.7407012361231935  0.1688854889847136  1.0000
  C   C37       1.0  0.6003951199257996  0.2955468661788458  0.8711901360119683  1.0000
  C   C38       1.0  0.3996061653904732  0.7044531945467514  0.1288145240576029  1.0000
  N   N1        1.0  0.778154395654589  0.9431260159239516  0.02914545478631679  1.0000
  N   N2        1.0  0.2218468624280092  0.05687402897576992  0.9708539574713484  1.0000
  N   N3        1.0  0.965490815882603  0.11672373271991181  0.09837113482960547  1.0000
  N   N4        1.0  0.03451177764351608  0.8832745085813088  0.9016300475231632  1.0000
  N   N5        1.0  0.7306927944536097  0.1776452006229334  0.9061178613622332  1.0000
  N   N6        1.0  0.2693067270220126  0.8223529916967892  0.09388297006231028  1.0000
  N   N7        1.0  0.560649309478201  0.23670941723101185  0.9682043034168757  1.0000
  N   N8        1.0  0.43935052342411035  0.7632869551630463  0.0317981811267032  1.0000
  O   O1        1.0  0.49184488423151856  0.9069644559454277  0.8008116373700886  1.0000
  O   O2        1.0  0.5081429446618343  0.09302988477107735  0.19918584876772627  1.0000
  O   O3        1.0  0.6164628681350095  0.8098879943220969  0.7089287566757746  1.0000
  O   O4        1.0  0.3835343614433737  0.1901147365092655  0.291072139663676  1.0000
  O   O5        1.0  0.7867329601567121  0.6905551767441909  0.9051940668083205  1.0000
  O   O6        1.0  0.21326558217045027  0.30944573730044317  0.09480422644964649  1.0000
  O   O7        1.0  0.6722138053794282  0.5789989080157271  0.0368670703416001  1.0000
  O   O8        1.0  0.32779160725570483  0.4210039481576829  0.9631330125358061  1.0000
  O   O9        1.0  0.4169274294128441  0.5773346304163026  0.8079333988293484  1.0000
  O   O10       1.0  0.5830731609479827  0.42266631628266554  0.19206512838076148  1.0000
