data_image0
_chemical_formula_structural       Er4H28C56N8O32
_chemical_formula_sum              "Er4 H28 C56 N8 O32"
_cell_length_a       8.344762316008483
_cell_length_b       12.153207309286117
_cell_length_c       13.381234928853665
_cell_angle_alpha    102.07758651112944
_cell_angle_beta     90.00008980658023
_cell_angle_gamma    90.00011570732136

_space_group_name_H-M_alt    "P 1"
_space_group_IT_number       1

loop_
  _space_group_symop_operation_xyz
  'x, y, z'

loop_
  _atom_site_type_symbol
  _atom_site_label
  _atom_site_symmetry_multiplicity
  _atom_site_fract_x
  _atom_site_fract_y
  _atom_site_fract_z
  _atom_site_occupancy
  Er  Er1       1.0  0.272430415882937  0.8020785318337647  0.6828558421198991  1.0000
  Er  Er2       1.0  0.7724354410302965  0.1979252625570496  0.8171434449711796  1.0000
  Er  Er3       1.0  0.7275660282142978  0.1979119481475422  0.3171403288827435  1.0000
  Er  Er4       1.0  0.2275717882960464  0.8020761553139762  0.1828555635420983  1.0000
  H   H1        1.0  0.8094601018200437  0.47714876290724834  0.6243563918597275  1.0000
  H   H2        1.0  0.3094773675302278  0.5228567545393972  0.8756567168694572  1.0000
  H   H3        1.0  0.19052915216708752  0.5228475850977928  0.3756573414416522  1.0000
  H   H4        1.0  0.6905418453632706  0.477145503787547  0.12434319957403521  1.0000
  H   H5        1.0  0.9870178720926648  0.3071195946345854  0.5895785252389629  1.0000
  H   H6        1.0  0.48703576326960973  0.6928845252818263  0.9104300275903939  1.0000
  H   H7        1.0  0.012972580251556598  0.6928784392964006  0.41043328828994424  1.0000
  H   H8        1.0  0.5129786561969355  0.3071194209791557  0.08956647482964541  1.0000
  H   H9        1.0  0.28808489323759556  0.33596061846982644  0.5926391027237372  1.0000
  H   H10       1.0  0.7881012086318151  0.6640347910608001  0.9073548626774581  1.0000
  H   H11       1.0  0.7119055590781612  0.6640290170346645  0.4073591488464601  1.0000
  H   H12       1.0  0.2119108141149155  0.3359649469274117  0.09264158287210478  1.0000
  H   H13       1.0  0.5928071119152846  0.8448716997876103  0.3342651067465211  1.0000
  H   H14       1.0  0.09280115842970102  0.15512376473593292  0.16573204430279992  1.0000
  H   H15       1.0  0.40719891905550304  0.1551288736103658  0.6657359823376652  1.0000
  H   H16       1.0  0.9072084676175792  0.8448860767235615  0.8342618480859798  1.0000
  H   H17       1.0  0.8495911524378884  0.9185632627813476  0.4206180852179031  1.0000
  H   H18       1.0  0.34959076299464437  0.0814309177854042  0.0793828391449622  1.0000
  H   H19       1.0  0.1504052916975311  0.08144319373452902  0.5793893593124153  1.0000
  H   H20       1.0  0.6504188630390217  0.9185696636666307  0.9206122729545712  1.0000
  H   H21       1.0  0.8568031620998795  0.9738968632822209  0.612650847225737  1.0000
  H   H22       1.0  0.3568056675569339  0.026110431667511605  0.8873477068640057  1.0000
  H   H23       1.0  0.1431848935462128  0.026113802504340807  0.3873559070441104  1.0000
  H   H24       1.0  0.6431943716108678  0.9738842636323285  0.11264329114617772  1.0000
  H   H25       1.0  0.5994316876304993  0.6604909283165626  0.6607591052774922  1.0000
  H   H26       1.0  0.0994422894866958  0.3395067138081274  0.8392313429364435  1.0000
  H   H27       1.0  0.4005575663376817  0.33950628630146434  0.3392361107374385  1.0000
  H   H28       1.0  0.9005601464119761  0.660495549537643  0.16076483787833237  1.0000
  C   C1        1.0  0.009461491004216798  0.5922995932213126  0.6448781624190474  1.0000
  C   C2        1.0  0.5094708720843643  0.40770547137832114  0.8551203312051712  1.0000
  C   C3        1.0  0.9905337547473894  0.4076959334636142  0.35512046762017485  1.0000
  C   C4        1.0  0.4905399523195086  0.5922967798971968  0.14488481509621917  1.0000
  C   C5        1.0  0.9397142754632172  0.48537825244077487  0.6253207724665089  1.0000
  C   C6        1.0  0.4397303141184423  0.5146274769676182  0.8746872886483318  1.0000
  C   C7        1.0  0.060279771947378394  0.514618098587242  0.3746907194680347  1.0000
  C   C8        1.0  0.5602877004277858  0.48537983007575747  0.125313592584952  1.0000
  C   C9        1.0  0.039491937087255694  0.39100985107097586  0.6063594177168881  1.0000
  C   C10       1.0  0.5395140363722746  0.6089935728452219  0.8936425319546188  1.0000
  C   C11       1.0  0.9604949201757478  0.6089839806247213  0.39364785620033865  1.0000
  C   C12       1.0  0.460501581456178  0.3910128967689843  0.10635519998496788  1.0000
  C   C13       1.0  0.2049250750286831  0.4063734361894902  0.607266468920777  1.0000
  C   C14       1.0  0.7049423292712191  0.5936252042995207  0.8927310118120602  1.0000
  C   C15       1.0  0.7950677740163102  0.5936237693737283  0.3927354712072244  1.0000
  C   C16       1.0  0.2950708918376251  0.40637537011051705  0.10726933015376258  1.0000
  C   C17       1.0  0.26457826160120135  0.5159414630538282  0.6276731921324767  1.0000
  C   C18       1.0  0.7645879270471525  0.48405643183645003  0.8723227170159404  1.0000
  C   C19       1.0  0.7354133890826021  0.4840540616154668  0.37232693215101875  1.0000
  C   C20       1.0  0.23541331050579828  0.5159449749594245  0.12768450985049642  1.0000
  C   C21       1.0  0.9145144299157478  0.7007422824250681  0.6664229437004748  1.0000
  C   C22       1.0  0.41452369101259023  0.29926089203215867  0.8335778756443871  1.0000
  C   C23       1.0  0.08547482405612071  0.2992515543045329  0.3335805946014432  1.0000
  C   C24       1.0  0.5854883317419207  0.7007422097548358  0.16642070734572204  1.0000
  C   C25       1.0  0.4406204601779535  0.537137077970513  0.6297604915911919  1.0000
  C   C26       1.0  0.9406324492982492  0.4628568886222482  0.8702333656362811  1.0000
  C   C27       1.0  0.5593663970890361  0.4628643388780915  0.3702392640312269  1.0000
  C   C28       1.0  0.059374780019084  0.537137793600003  0.1297673449830725  1.0000
  C   C29       1.0  0.47565473530197266  0.8411969050705679  0.4773314004561016  1.0000
  C   C30       1.0  0.9756494000822827  0.1588042094662541  0.0226679981840832  1.0000
  C   C31       1.0  0.5243477005970121  0.15880282787809108  0.5226687807037393  1.0000
  C   C32       1.0  0.0243578292477409  0.8412005772355611  0.9773294121527627  1.0000
  C   C33       1.0  0.6039004167424551  0.8620849677579515  0.4171623092506493  1.0000
  C   C34       1.0  0.1039002172650996  0.1379096717629835  0.0828354436492873  1.0000
  C   C35       1.0  0.3961032175053347  0.137910557927178  0.5828370679178363  1.0000
  C   C36       1.0  0.8961106071343609  0.862095114941667  0.9171619666900738  1.0000
  C   C37       1.0  0.7455690456336371  0.9058545493170487  0.46580167296058056  1.0000
  C   C38       1.0  0.24556739956867799  0.0941411525181195  0.0341979332048439  1.0000
  C   C39       1.0  0.25442739848396917  0.09414349568908881  0.5342019222151677  1.0000
  C   C40       1.0  0.754439829761246  0.905864477649402  0.9657981436836421  1.0000
  C   C41       1.0  0.7513740485869462  0.9352853108918565  0.5719487139007313  1.0000
  C   C42       1.0  0.2513779665271727  0.064717610931794  0.9280488886824897  1.0000
  C   C43       1.0  0.2486223955351647  0.0647161019386644  0.4280540302219791  1.0000
  C   C44       1.0  0.7486292627896419  0.935281288618974  0.07194515469510072  1.0000
  C   C45       1.0  0.6164043809136643  0.9135283351776663  0.6260957895033383  1.0000
  C   C46       1.0  0.1164082501164998  0.0864802634734332  0.8739034969441591  1.0000
  C   C47       1.0  0.3835920632091642  0.0864739201121623  0.3739063682944134  1.0000
  C   C48       1.0  0.8836013759170669  0.9135211614443011  0.12609028170702896  1.0000
  C   C49       1.0  0.3156608411480236  0.7921573134453795  0.4382893578626934  1.0000
  C   C50       1.0  0.8156605435193214  0.20784522827070617  0.06171312700968199  1.0000
  C   C51       1.0  0.6843368013179755  0.20783989816003162  0.5617080995282961  1.0000
  C   C52       1.0  0.1843454874582093  0.7921603968638565  0.938286685494944  1.0000
  C   C53       1.0  0.6019128295678088  0.9433911167650492  0.7401729389976168  1.0000
  C   C54       1.0  0.10191994668883811  0.05661324780017911  0.7598285116771138  1.0000
  C   C55       1.0  0.39807402770470907  0.0566119799701283  0.2598293795918636  1.0000
  C   C56       1.0  0.8980741007052658  0.9433839668216208  0.24016670434117057  1.0000
  N   N1        1.0  0.1692395840691603  0.6068821909742113  0.6463459167402732  1.0000
  N   N2        1.0  0.6692405263334892  0.39311807324758535  0.8536540770174456  1.0000
  N   N3        1.0  0.8307544633284252  0.39311333269056087  0.35365495466829344  1.0000
  N   N4        1.0  0.3307583145041447  0.606882493099917  0.1463522419254772  1.0000
  N   N5        1.0  0.4850044621182689  0.8640372086801448  0.5798694713605813  1.0000
  N   N6        1.0  0.985005918478123  0.13597112538432304  0.9201324113983702  1.0000
  N   N7        1.0  0.5149919819992377  0.13596167979169144  0.4201327903668144  1.0000
  N   N8        1.0  0.015000112499315299  0.8640353432159389  0.07986606765790334  1.0000
  O   O1        1.0  0.9961969603907903  0.7909118800848134  0.6759462403846116  1.0000
  O   O2        1.0  0.49620351268142554  0.20909141985529084  0.824056934617893  1.0000
  O   O3        1.0  0.0037958886560503  0.2090836365341957  0.3240598608868908  1.0000
  O   O4        1.0  0.5038025182857666  0.7909116879654119  0.17593716562765133  1.0000
  O   O5        1.0  0.7647042984872456  0.6980969534749305  0.6769290462080163  1.0000
  O   O6        1.0  0.26470875161186314  0.3019059822756702  0.823073804890896  1.0000
  O   O7        1.0  0.2352909472734765  0.3018977186738567  0.3230791356369096  1.0000
  O   O8        1.0  0.7353008744466792  0.6981055320255792  0.17692788032871218  1.0000
  O   O9        1.0  0.4757157351849415  0.6480001618244415  0.6553536913261269  1.0000
  O   O10       1.0  0.9757249133566076  0.3519972338413451  0.8446348812109079  1.0000
  O   O11       1.0  0.5242723204273717  0.3519987387176399  0.3446396049146543  1.0000
  O   O12       1.0  0.024278720888517596  0.647999981794392  0.15535958769068256  1.0000
  O   O13       1.0  0.5415926382620312  0.4626634341697057  0.6112243793279504  1.0000
  O   O14       1.0  0.04160039272078111  0.5373341139402328  0.8887682293263878  1.0000
  O   O15       1.0  0.45840140913831817  0.5373363027979678  0.3887728133324373  1.0000
  O   O16       1.0  0.9583984481001621  0.4626622562132283  0.1112290672669971  1.0000
  O   O17       1.0  0.2234389557966168  0.7672669570419757  0.5060927271195155  1.0000
  O   O18       1.0  0.723436093347985  0.23273760071499788  0.993907399339534  1.0000
  O   O19       1.0  0.7765634800844553  0.23272520786264292  0.4939022712374026  1.0000
  O   O20       1.0  0.27656873927245573  0.767266338493613  0.006094332937564709  1.0000
  O   O21       1.0  0.28153152591760033  0.7800584556683248  0.3444400862179505  1.0000
  O   O22       1.0  0.7815326719613508  0.219941518061475  0.1555543972727804  1.0000
  O   O23       1.0  0.718470909989776  0.21994632700410216  0.6555603126091185  1.0000
  O   O24       1.0  0.21847575571379  0.7800556925460214  0.8444438072491423  1.0000
  O   O25       1.0  0.4944238096981195  0.8923642132586874  0.7799868008713418  1.0000
  O   O26       1.0  0.9944211397020339  0.107645823559011  0.7200116810440775  1.0000
  O   O27       1.0  0.5055654442803003  0.10763636213890491  0.2200127939543179  1.0000
  O   O28       1.0  0.005570510980639701  0.8923522325137938  0.27998369577096577  1.0000
  O   O29       1.0  0.694360998025715  0.018756203328898404  0.7892391264216271  1.0000
  O   O30       1.0  0.19435900948333537  0.981255044331647  0.7107592572463801  1.0000
  O   O31       1.0  0.3056162724062191  0.9812553129597106  0.2107610645285547  1.0000
  O   O32       1.0  0.8056206576174391  0.018735442681290192  0.2892316838807574  1.0000
