data_image0
_chemical_formula_structural       Zn4H28C76I10Br10N16
_chemical_formula_sum              "Zn4 H28 C76 I10 Br10 N16"
_cell_length_a       19.589726666038043
_cell_length_b       19.918708817053158
_cell_length_c       20.878392315382605
_cell_angle_alpha    108.51923968290902
_cell_angle_beta     106.19174527801555
_cell_angle_gamma    111.73598779082735

_space_group_name_H-M_alt    "P 1"
_space_group_IT_number       1

loop_
  _space_group_symop_operation_xyz
  'x, y, z'

loop_
  _atom_site_type_symbol
  _atom_site_label
  _atom_site_symmetry_multiplicity
  _atom_site_fract_x
  _atom_site_fract_y
  _atom_site_fract_z
  _atom_site_occupancy
  Zn  Zn1       1.0  0.6191558623816035  0.6189768039063707  0.5139360352559449  1.0000
  Zn  Zn2       1.0  0.3876991283854849  0.4020884662029473  0.48925308660147937  1.0000
  Zn  Zn3       1.0  0.5044565710960072  0.6000074245309505  0.6034815417918293  1.0000
  Zn  Zn4       1.0  0.512020841292042  0.41760321481631013  0.4065832223012221  1.0000
  H   H1        1.0  0.7650100401502656  0.6087621294597625  0.621772524440338  1.0000
  H   H2        1.0  0.9408757663283467  0.43766403708909957  0.39572369994157686  1.0000
  H   H3        1.0  0.4733559759918436  0.0250073901183967  0.5060614647372501  1.0000
  H   H4        1.0  0.5143281714527533  0.028585906385323788  0.6496425010212902  1.0000
  H   H5        1.0  0.6295621411045218  0.1996071014949479  0.7203811374333353  1.0000
  H   H6        1.0  0.4957624566863358  0.6522959237898006  0.2630602040585685  1.0000
  H   H7        1.0  0.46445558680771615  0.6082409932168245  0.7513163720949263  1.0000
  H   H8        1.0  0.34609778205135916  0.4177368213642794  0.9742823979056963  1.0000
  H   H9        1.0  0.24838555314341437  0.5001640946608176  0.8593367655563849  1.0000
  H   H10       1.0  0.2796255458706582  0.4203171491290262  0.17960804391737634  1.0000
  H   H11       1.0  0.3134610460317759  0.5609958060068791  0.9942380369026221  1.0000
  H   H12       1.0  0.24313709711964995  0.4032032687871378  0.3665676073338559  1.0000
  H   H13       1.0  0.41443311534753485  0.406629393460534  0.8951508839883429  1.0000
  H   H14       1.0  0.6483700000271071  0.39378894278517146  0.34248330502477836  1.0000
  H   H15       1.0  0.287223522362595  0.05009994346133338  0.2645163310025466  1.0000
  H   H16       1.0  0.8693892699074723  0.6885394391519881  0.7315784990032624  1.0000
  H   H17       1.0  0.05958704132574146  0.8555787530937449  0.9813995661621102  1.0000
  H   H18       1.0  0.8642373281168148  0.6964197478081431  0.9684236116328149  1.0000
  H   H19       1.0  0.3026620443227657  0.3491370410259193  0.5968750582750599  1.0000
  H   H20       1.0  0.6350012849456022  0.37209565100075537  0.4958659366417917  1.0000
  H   H21       1.0  0.6078313699879772  0.5804599522460875  0.7336851932467778  1.0000
  H   H22       1.0  0.5426299170888527  0.7925473243019211  0.6777018740273346  1.0000
  H   H23       1.0  0.3910558969835094  0.22337875418175193  0.25222651334617296  1.0000
  H   H24       1.0  0.7091923802524676  0.8194111353612287  0.5758122033498763  1.0000
  H   H25       1.0  0.3848368737810545  0.40207807992042177  0.2664136686247928  1.0000
  H   H26       1.0  0.39638785933088627  0.6647011941665608  0.5193076982565044  1.0000
  H   H27       1.0  0.10011518978458867  0.5767581640009921  0.4982595187966225  1.0000
  H   H28       1.0  0.08579750897906264  0.6619505534154937  0.3475339363524838  1.0000
  C   C1        1.0  0.716379944619071  0.5991591147752259  0.6392299466097311  1.0000
  C   C2        1.0  0.6664946819301532  0.7992799937891985  0.5985040697808939  1.0000
  C   C3        1.0  0.4217326728822357  0.4661139516656973  0.3090860861651448  1.0000
  C   C4        1.0  0.48560918105035  0.32468024645465476  0.5447946097308287  1.0000
  C   C5        1.0  0.36970475416865156  0.5988418222743518  0.4882434183367007  1.0000
  C   C6        1.0  0.42778979324562966  0.5355880588268674  0.30200943027947597  1.0000
  C   C7        1.0  0.29110681794150384  0.5393215134921688  0.4274637478686498  1.0000
  C   C8        1.0  0.6340456171586766  0.8420289464311209  0.6354589944276225  1.0000
  C   C9        1.0  0.28329885535618615  0.18703372640775479  0.27856976687191787  1.0000
  C   C10       1.0  0.06113388440229515  0.5643924649149878  0.4422336982891507  1.0000
  C   C11       1.0  0.02988998038791386  0.6209565983908548  0.42471296326321806  1.0000
  C   C12       1.0  0.5510061096002019  0.312256186724987  0.5401477881505128  1.0000
  C   C13       1.0  0.807942409149021  0.5336163218504522  0.3829274891377991  1.0000
  C   C14       1.0  0.22337736914400352  0.5496261018374825  0.4002875111523848  1.0000
  C   C15       1.0  0.9743018296186605  0.487887551226997  0.38588139860534176  1.0000
  C   C16       1.0  0.42853083476610704  0.5467921957891658  0.7037767623025031  1.0000
  C   C17       1.0  0.9400215238663278  0.5441491778278619  0.3690239532379279  1.0000
  C   C18       1.0  0.998258602147942  0.4782968772106101  0.31968695759732657  1.0000
  C   C19       1.0  0.08783951986820424  0.5556327611430729  0.3762451071020293  1.0000
  C   C20       1.0  0.9667614483828332  0.5358895473971969  0.30301086937065225  1.0000
  C   C21       1.0  0.05434718043747457  0.6122227821665404  0.3587811818637049  1.0000
  C   C22       1.0  0.8668311697837723  0.5383999128884936  0.37128123781806  1.0000
  C   C23       1.0  0.3735520305323589  0.47375235891932005  0.6986700784031894  1.0000
  C   C24       1.0  0.1624656587237893  0.5568084585464347  0.3838325777898105  1.0000
  C   C25       1.0  0.6902207514006875  0.13209962671356829  0.6639083201845961  1.0000
  C   C26       1.0  0.6682261384899562  0.12946990237281134  0.584555439124962  1.0000
  C   C27       1.0  0.5722438874594857  0.2584689694497939  0.5583798269892312  1.0000
  C   C28       1.0  0.6688966262448445  0.45741897264040415  0.37826943825889686  1.0000
  C   C29       1.0  0.6407367609782921  0.9169367065151729  0.6423685525548135  1.0000
  C   C30       1.0  0.6217146810467328  0.151781810243051  0.6703781514500874  1.0000
  C   C31       1.0  0.5988550566267179  0.1503499878363215  0.5907511058175883  1.0000
  C   C32       1.0  0.5580021363710159  0.058196405622552995  0.6308882190622993  1.0000
  C   C33       1.0  0.6270045054913427  0.03686932839847399  0.6252481536835645  1.0000
  C   C34       1.0  0.7420819683017754  0.5281810081575243  0.39955694583737494  1.0000
  C   C35       1.0  0.5352662988621617  0.05516639764885409  0.5517102212693243  1.0000
  C   C36       1.0  0.6039081609505035  0.035645855597707096  0.5452626797562913  1.0000
  C   C37       1.0  0.5847874017552925  0.20842335078616966  0.5732769093888519  1.0000
  C   C38       1.0  0.6385429572296032  0.9764263519910016  0.6396740859816814  1.0000
  C   C39       1.0  0.3922659036553781  0.5361132257696964  0.23063727904881387  1.0000
  C   C40       1.0  0.3458943617836425  0.41447740774373903  0.6250168764495425  1.0000
  C   C41       1.0  0.43719563254290245  0.5997006342600741  0.21776018968259325  1.0000
  C   C42       1.0  0.40974497586872616  0.5931837281921302  0.14593529156468316  1.0000
  C   C43       1.0  0.33849988363969163  0.5233401229617625  0.08278779093791398  1.0000
  C   C44       1.0  0.2920028649753234  0.46274196444340265  0.09830085910024876  1.0000
  C   C45       1.0  0.4854665847246054  0.600856912230256  0.37549932003416575  1.0000
  C   C46       1.0  0.31741288298074005  0.46877823079394426  0.17033095009804808  1.0000
  C   C47       1.0  0.29009550940321555  0.48224615024457035  0.8440761897254914  1.0000
  C   C48       1.0  0.30168320105123303  0.4855610655603326  0.7820350214649278  1.0000
  C   C49       1.0  0.39343365340057795  0.4336519558883437  0.8019887331598664  1.0000
  C   C50       1.0  0.38176670572180876  0.42822986518877565  0.8632103926414415  1.0000
  C   C51       1.0  0.3318367060403347  0.4551487138883487  0.8866419394236825  1.0000
  C   C52       1.0  0.7349019511406993  0.5922455014289055  0.44565714444314597  1.0000
  C   C53       1.0  0.32237949607715416  0.5145504829588673  0.006438683985834318  1.0000
  C   C54       1.0  0.3307925625527588  0.4589741343608366  0.9573643376274742  1.0000
  C   C55       1.0  0.3551101930499171  0.4633690913256387  0.7596055998248087  1.0000
  C   C56       1.0  0.2914871548807909  0.4649369822891102  0.40973870338350327  1.0000
  C   C57       1.0  0.7909329473649507  0.640925488623786  0.7796042743804318  1.0000
  C   C58       1.0  0.7941244431247867  0.6417812576536901  0.8484362032733583  1.0000
  C   C59       1.0  0.8658984049477638  0.6948549478709295  0.9163815806762938  1.0000
  C   C60       1.0  0.9402676533523644  0.7491198837918132  0.9208966206569679  1.0000
  C   C61       1.0  0.9396392833789804  0.7395839295363159  0.8504260642248195  1.0000
  C   C62       1.0  0.8676386010575713  0.6885873616309012  0.7832242114782771  1.0000
  C   C63       1.0  0.082722911329256  0.0037882732091531995  0.11579998686370627  1.0000
  C   C64       1.0  0.5839290714634373  0.36265993692509824  0.5097961328692476  1.0000
  C   C65       1.0  0.1457602993973026  0.0852334732741085  0.16586059032015746  1.0000
  C   C66       1.0  0.23016064202459321  0.03694114993425049  0.22207611042857417  1.0000
  C   C67       1.0  0.5804495986155943  0.7850380520518385  0.6497435938530173  1.0000
  C   C68       1.0  0.16806346167111721  0.9560637537944102  0.17104600815834184  1.0000
  C   C69       1.0  0.09274794365821024  0.9374651458316449  0.11755209012430601  1.0000
  C   C70       1.0  0.01012128619690585  0.8177501695875689  0.9906899150786752  1.0000
  C   C71       1.0  0.02439685864705145  0.8525496794085966  0.06342134574808252  1.0000
  C   C72       1.0  0.21963220574347989  0.10245831120779056  0.22088276584364752  1.0000
  C   C73       1.0  0.6361452370831914  0.5842220837980463  0.6962114052101994  1.0000
  C   C74       1.0  0.7173349975441567  0.6042330868041715  0.7086617613929744  1.0000
  C   C75       1.0  0.3614400021469848  0.23719453857381007  0.28742763759137796  1.0000
  C   C76       1.0  0.2786269814033134  0.23795217359221968  0.339586469225061  1.0000
  I   I1        1.0  0.9744693598785404  0.36705321637096927  0.23819939374515525  1.0000
  I   I2        1.0  0.5190070137387365  0.7240152881509301  0.41667364741439156  1.0000
  I   I3        1.0  0.5903357665861789  0.9444598512327146  0.4485434883748807  1.0000
  I   I4        1.0  0.23565289332532996  0.5252903703035015  0.7198524398916673  1.0000
  I   I5        1.0  0.1786385998792284  0.35831778172897083  0.012127223801691407  1.0000
  I   I6        1.0  0.484732234858285  0.6894534522421197  0.13121455297542886  1.0000
  I   I7        1.0  0.6918088201250542  0.5642432883948699  0.8563153515978992  1.0000
  I   I8        1.0  0.04672470315677658  0.8058292989639141  0.8419859979327595  1.0000
  I   I9        1.0  0.18943458271686336  0.8614654878592842  0.17585627567341067  1.0000
  I   I10       1.0  0.8159066424241601  0.7173686878390129  0.5034727012251777  1.0000
  Br  Br1       1.0  0.19418394351863094  0.21538134684732307  0.3692239559535294  1.0000
  Br  Br2       1.0  0.9816721799346342  0.9813788766965176  0.04511105085811801  1.0000
  Br  Br3       1.0  0.05139927978763117  0.7220147861039407  0.49900119458253994  1.0000
  Br  Br4       1.0  0.40942739497207  0.270007677159512  0.5735365876692382  1.0000
  Br  Br5       1.0  0.9008396315183306  0.5168963338432062  0.20552786770233653  1.0000
  Br  Br6       1.0  0.7454719100124337  0.1798117013767637  0.5527666011307842  1.0000
  Br  Br7       1.0  0.7991138824740958  0.18592608852546985  0.742442549912354  1.0000
  Br  Br8       1.0  0.4677313971274869  0.40220524962150944  0.7779825552812266  1.0000
  Br  Br9       1.0  0.13389060103664718  0.1735802100075715  0.15957190819280234  1.0000
  Br  Br10      1.0  0.9557372025754773  0.8082341006761666  0.10591562351741841  1.0000
  N   N1        1.0  0.6419018914615364  0.580014424691434  0.5914094050895923  1.0000
  N   N2        1.0  0.43311922775751527  0.5319469094795293  0.6380478226477703  1.0000
  N   N3        1.0  0.623268865247809  0.47806867344655757  0.4090695660556988  1.0000
  N   N4        1.0  0.38184275749356533  0.4494900628791213  0.5889899577862321  1.0000
  N   N5        1.0  0.6643198007226659  0.5620367691364123  0.4509624310473938  1.0000
  N   N6        1.0  0.5412477065095375  0.40090026549067653  0.4978423037849921  1.0000
  N   N7        1.0  0.5925534911875089  0.5709014824223145  0.6264579010968416  1.0000
  N   N8        1.0  0.5126588154319407  0.5717938790171362  0.4213478717052509  1.0000
  N   N9        1.0  0.3639906857583313  0.47988555029328944  0.4575127643866778  1.0000
  N   N10       1.0  0.580291244001124  0.7142198407429844  0.6224257193359717  1.0000
  N   N11       1.0  0.3991831791487925  0.3114907817673966  0.3483929458193628  1.0000
  N   N12       1.0  0.34714436934029885  0.3115999440919451  0.3808873844476464  1.0000
  N   N13       1.0  0.6335989550704539  0.72301473763563  0.5902238505443049  1.0000
  N   N14       1.0  0.4726954878541108  0.4885112312472231  0.3798352540141606  1.0000
  N   N15       1.0  0.4117734911096136  0.5618598623170498  0.5054880981451715  1.0000
  N   N16       1.0  0.48111788307073056  0.3783411919790679  0.5205467000067256  1.0000
