data_image0
_chemical_formula_structural       Zn2H44C40N8O8
_chemical_formula_sum              "Zn2 H44 C40 N8 O8"
_cell_length_a       9.610654643760139
_cell_length_b       9.896702653400737
_cell_length_c       11.65407017384142
_cell_angle_alpha    79.08045473420617
_cell_angle_beta     73.60348417463283
_cell_angle_gamma    69.37725643793208

_space_group_name_H-M_alt    "P 1"
_space_group_IT_number       1

loop_
  _space_group_symop_operation_xyz
  'x, y, z'

loop_
  _atom_site_type_symbol
  _atom_site_label
  _atom_site_symmetry_multiplicity
  _atom_site_fract_x
  _atom_site_fract_y
  _atom_site_fract_z
  _atom_site_occupancy
  Zn  Zn1       1.0  0.19226035550425277  0.29990769050832006  0.6224227095112767  1.0000
  Zn  Zn2       1.0  0.807740636278638  0.7000918775888393  0.3775780932778899  1.0000
  H   H1        1.0  0.8376334080785386  0.36761247411570247  0.5297218137473506  1.0000
  H   H2        1.0  0.1623679474137135  0.6323860142897145  0.470279940370574  1.0000
  H   H3        1.0  0.7532584052928045  0.4124904245657035  0.4052572081429204  1.0000
  H   H4        1.0  0.24673965244308269  0.5875145676078971  0.5947442389589099  1.0000
  H   H5        1.0  0.4117166390227923  0.46199668690400125  0.9273589755921491  1.0000
  H   H6        1.0  0.5882854406828955  0.538002882380347  0.0726407186172082  1.0000
  H   H7        1.0  0.579010721535255  0.5133222794519127  0.8665184224296709  1.0000
  H   H8        1.0  0.420990250495919  0.4866805449906125  0.1334809932194005  1.0000
  H   H9        1.0  0.6175665708954696  0.994240562876186  0.7380352652822425  1.0000
  H   H10       1.0  0.38243625277538484  0.005756830941727699  0.26196375615864304  1.0000
  H   H11       1.0  0.8122498697744477  0.14231245984399976  0.39452747008405714  1.0000
  H   H12       1.0  0.18774750787184055  0.8576914085628217  0.6054691691237295  1.0000
  H   H13       1.0  0.9704766451853644  0.20630798460200592  0.3576082886855191  1.0000
  H   H14       1.0  0.02951855892553117  0.7936991163318794  0.6423857466404924  1.0000
  H   H15       1.0  0.4065987352273339  0.9743926259476511  0.6624015190033674  1.0000
  H   H16       1.0  0.5934005138103657  0.025602555489200495  0.3375961131363426  1.0000
  H   H17       1.0  0.03117560973447552  0.8830400732619027  0.919923568984892  1.0000
  H   H18       1.0  0.9688249907616469  0.11696060133190399  0.08008057485214688  1.0000
  H   H19       1.0  0.27218369106275025  0.7025975196215696  0.007860554510351461  1.0000
  H   H20       1.0  0.727816937010779  0.29740312816733183  0.9921392969500572  1.0000
  H   H21       1.0  0.43983817890332944  0.754732770126992  0.9507533776746299  1.0000
  H   H22       1.0  0.5601606393441613  0.24527003049723817  0.049244821232754594  1.0000
  H   H23       1.0  0.6374513329241438  0.0093956541836988  0.9436047543388497  1.0000
  H   H24       1.0  0.36255112703735665  0.9906028193259644  0.05639331577328477  1.0000
  H   H25       1.0  0.9417066602850286  0.1749917972088966  0.8259494432231734  1.0000
  H   H26       1.0  0.05829465890905548  0.825009963624822  0.17405349918062296  1.0000
  H   H27       1.0  0.44668712461716364  0.723347526002925  0.7435268665893277  1.0000
  H   H28       1.0  0.5533106672728892  0.2766487392994605  0.25647178127675835  1.0000
  H   H29       1.0  0.2804844049927057  0.6684881283377918  0.7949775823909562  1.0000
  H   H30       1.0  0.7195126208702548  0.3315103338749452  0.2050251721449002  1.0000
  H   H31       1.0  0.9070644024168929  0.5569388467103024  0.9611378637849839  1.0000
  H   H32       1.0  0.09293549041223065  0.4430607309216369  0.03886576453464131  1.0000
  H   H33       1.0  0.8569031638187139  0.049156862105917284  0.6014279833382049  1.0000
  H   H34       1.0  0.14310257094215476  0.950841604243344  0.39856504408384563  1.0000
  H   H35       1.0  0.014423213832145612  0.11426142661192529  0.564688326097027  1.0000
  H   H36       1.0  0.985581793510008  0.8857391991208344  0.4353027986675143  1.0000
  H   H37       1.0  0.5268721153518997  0.2725063194792198  0.44228304358200177  1.0000
  H   H38       1.0  0.47312852695786506  0.7274910773253039  0.557719053493834  1.0000
  H   H39       1.0  0.7836465448222112  0.7881910832595196  0.05593551395653419  1.0000
  H   H40       1.0  0.21635046128903213  0.21181063529859048  0.944065853439227  1.0000
  H   H41       1.0  0.6590685296779243  0.3715428701884278  0.7245059528075473  1.0000
  H   H42       1.0  0.34092916986408295  0.6284631963159413  0.2754936844902005  1.0000
  H   H43       1.0  0.3610610938213057  0.3515909528388192  0.8061815827337285  1.0000
  H   H44       1.0  0.6389380518373856  0.6484140405219703  0.19381875578828567  1.0000
  C   C1        1.0  0.7521020007503337  0.7693562370731327  0.7329744152839409  1.0000
  C   C2        1.0  0.24790009319158918  0.23064008122683077  0.2670275245408362  1.0000
  C   C3        1.0  0.8355170482190744  0.645111270208069  0.7957476485339116  1.0000
  C   C4        1.0  0.164484301757689  0.3548872235583218  0.2042549640593307  1.0000
  C   C5        1.0  0.9176107148742504  0.5005394058125815  0.7447671714279949  1.0000
  C   C6        1.0  0.08238918347035452  0.49946016645836977  0.2552355984163057  1.0000
  C   C7        1.0  0.7793463527434028  0.3297970157676672  0.479911290720537  1.0000
  C   C8        1.0  0.22065319843828493  0.6702036201120903  0.5200879523690318  1.0000
  C   C9        1.0  0.4761044475195463  0.5280096573890489  0.9408600678565618  1.0000
  C   C10       1.0  0.5238968882209819  0.47199208736173387  0.059140299121260356  1.0000
  C   C11       1.0  0.7385234477529397  0.772659450937496  0.6066333632778651  1.0000
  C   C12       1.0  0.26147538473078674  0.22734009870234928  0.3933670812449392  1.0000
  C   C13       1.0  0.6803350400841381  0.8988659642355614  0.7884714436709643  1.0000
  C   C14       1.0  0.31966670669487485  0.10113141767320852  0.2115269693990811  1.0000
  C   C15       1.0  0.8792315290728611  0.1847442367345025  0.432647637091371  1.0000
  C   C16       1.0  0.12076802441903571  0.815259634046697  0.5673467849567971  1.0000
  C   C17       1.0  0.2920255622968072  0.9928790448294578  0.7208125384989329  1.0000
  C   C18       1.0  0.7079711416704414  0.007117219285746  0.27918721794696216  1.0000
  C   C19       1.0  0.0942959772814834  0.9470610357456262  0.8549950493947305  1.0000
  C   C20       1.0  0.9057042958034388  0.0529374461116205  0.1450069548276716  1.0000
  C   C21       1.0  0.3777346475862658  0.6872563382613208  0.9359831817081954  1.0000
  C   C22       1.0  0.6222648980799477  0.3127443029794179  0.06401691985669802  1.0000
  C   C23       1.0  0.6915811549023659  0.9070298314408304  0.9033506814424116  1.0000
  C   C24       1.0  0.30841840179480334  0.09297079907794628  0.09664770317183267  1.0000
  C   C25       1.0  0.051166639301335706  0.089948911157542  0.8089002255060649  1.0000
  C   C26       1.0  0.9488339722257495  0.9100517527143096  0.19110220138031747  1.0000
  C   C27       1.0  0.3400276384152009  0.7360476663263993  0.8132080939663311  1.0000
  C   C28       1.0  0.659970850110888  0.26394970665982936  0.1867927863678176  1.0000
  C   C29       1.0  0.843629901673843  0.6537861959212563  0.912382101771044  1.0000
  C   C30       1.0  0.15636857582128277  0.34621118778693466  0.08762049551375385  1.0000
  C   C31       1.0  0.9484827306153818  0.07088879929488459  0.5262540940024891  1.0000
  C   C32       1.0  0.05152407231657463  0.9291129245869314  0.4737364376996496  1.0000
  C   C33       1.0  0.5202482479668692  0.29832455091464977  0.530105125287541  1.0000
  C   C34       1.0  0.4797520361490228  0.7016739202206353  0.469895161984212  1.0000
  C   C35       1.0  0.7732877959029382  0.7833481964529766  0.9660119220214439  1.0000
  C   C36       1.0  0.22671070365411344  0.2166491658112903  0.0339872413620554  1.0000
  C   C37       1.0  0.5852457924672835  0.3480402236451638  0.6809802265230829  1.0000
  C   C38       1.0  0.4147515631170864  0.6519636662055815  0.3190198465860092  1.0000
  C   C39       1.0  0.43962136203442265  0.33822773936535816  0.7187737443659898  1.0000
  C   C40       1.0  0.5603777891397427  0.6617772486344508  0.2812257356807066  1.0000
  N   N1        1.0  0.6336575793163349  0.3231854161045433  0.5613469980877712  1.0000
  N   N2        1.0  0.36634196083439013  0.6768152304971693  0.4386539619524541  1.0000
  N   N3        1.0  0.17551810056070138  0.1167284923490044  0.7255463778546271  1.0000
  N   N4        1.0  0.8244825582955075  0.8832688883725766  0.2744531437952276  1.0000
  N   N5        1.0  0.4004376662805101  0.30711571699113444  0.6236896649888806  1.0000
  N   N6        1.0  0.5995618738702149  0.6928849296105851  0.3763112950513374  1.0000
  N   N7        1.0  0.24644521418436963  0.8877975330344725  0.7986666232916093  1.0000
  N   N8        1.0  0.753552910632358  0.1122009196434988  0.2013333057137814  1.0000
  O   O1        1.0  0.06451625729511798  0.47050916117747477  0.7126701386386216  1.0000
  O   O2        1.0  0.9354854508755182  0.529488258258155  0.2873342837587103  1.0000
  O   O3        1.0  0.8445119728644171  0.41856998118894484  0.7440109805329558  1.0000
  O   O4        1.0  0.15548939365879022  0.5814284964945102  0.2559890566343128  1.0000
  O   O5        1.0  0.8424747135532445  0.674552425146338  0.5416380500216177  1.0000
  O   O6        1.0  0.1575270111638432  0.32544497820635604  0.4583637969497332  1.0000
  O   O7        1.0  0.6301116376265983  0.869311128938797  0.5700373462829303  1.0000
  O   O8        1.0  0.36988974313284473  0.13068409776027318  0.4299649364997578  1.0000
