data_image0
_chemical_formula_structural       Na2H24C22O10F6
_chemical_formula_sum              "Na2 H24 C22 O10 F6"
_cell_length_a       7.101231265131502
_cell_length_b       8.890501121885007
_cell_length_c       11.471650842161784
_cell_angle_alpha    91.95853466434164
_cell_angle_beta     103.95062723023564
_cell_angle_gamma    110.01221985899059

_space_group_name_H-M_alt    "P 1"
_space_group_IT_number       1

loop_
  _space_group_symop_operation_xyz
  'x, y, z'

loop_
  _atom_site_type_symbol
  _atom_site_label
  _atom_site_symmetry_multiplicity
  _atom_site_fract_x
  _atom_site_fract_y
  _atom_site_fract_z
  _atom_site_occupancy
  Na  Na1       1.0  0.22819944761479855  0.48710834877283554  0.9652134536988299  1.0000
  Na  Na2       1.0  0.7717985441345333  0.512891483607021  0.03478982098553017  1.0000
  H   H1        1.0  0.32927465583963306  0.06428539102092401  0.6950961457948496  1.0000
  H   H2        1.0  0.6707378565573379  0.9357141492437009  0.3049125392880399  1.0000
  H   H3        1.0  0.32703133377239607  0.1350825431186422  0.9599395964143298  1.0000
  H   H4        1.0  0.6729739349947508  0.8649146553046948  0.04006195323415083  1.0000
  H   H5        1.0  0.9155205240801861  0.5992043546264014  0.5667987623909028  1.0000
  H   H6        1.0  0.08447867499629783  0.40080396327677903  0.4332023028292227  1.0000
  H   H7        1.0  0.05027645618282851  0.6889612743414942  0.3878664879113956  1.0000
  H   H8        1.0  0.9497339394732972  0.3110431475551607  0.6121376970774577  1.0000
  H   H9        1.0  0.2615544450129476  0.8482393083535484  0.24087945297821994  1.0000
  H   H10       1.0  0.7384497025503689  0.1517701267523037  0.7591231746550663  1.0000
  H   H11       1.0  0.47045797330495276  0.1402570404339372  0.3064873988704377  1.0000
  H   H12       1.0  0.5295306900651225  0.8597539005547077  0.6935071092989631  1.0000
  H   H13       1.0  0.18303429974289293  0.6239478050804551  0.5983974482405969  1.0000
  H   H14       1.0  0.8169665183059323  0.3760519536654598  0.4016053280341438  1.0000
  H   H15       1.0  0.2503328459307354  0.8603647810716667  0.4809802784496569  1.0000
  H   H16       1.0  0.7496719570593127  0.13963730864448112  0.5190213511728956  1.0000
  H   H17       1.0  0.02786508009657502  0.8899374232503521  0.19785089528578234  1.0000
  H   H18       1.0  0.9721297173014916  0.11005883058970768  0.8021527229176257  1.0000
  H   H19       1.0  0.24703545499804852  0.19124639672857313  0.24814942583638813  1.0000
  H   H20       1.0  0.7529446055578362  0.808750106974216  0.7518443917203756  1.0000
  H   H21       1.0  0.984784966156674  0.8430173006333491  0.4517734496642092  1.0000
  H   H22       1.0  0.015215213159414986  0.15698731560336648  0.5482258943861211  1.0000
  H   H23       1.0  0.26193060225249803  0.08603199917278913  0.3761922380968202  1.0000
  H   H24       1.0  0.7380669890991454  0.9139763175201169  0.6238051251048162  1.0000
  C   C1        1.0  0.5072186078490475  0.38068635690257935  0.686977687764994  1.0000
  C   C2        1.0  0.4927722267482864  0.6193111505369873  0.3130202075841879  1.0000
  C   C3        1.0  0.43222117339065846  0.3006517266592966  0.7931546604576597  1.0000
  C   C4        1.0  0.5677844743212717  0.6993612688750803  0.20684216553883067  1.0000
  C   C5        1.0  0.348605186843173  0.13149998388375647  0.7804706712549249  1.0000
  C   C6        1.0  0.6513963200203889  0.8684874536746394  0.21952224653878724  1.0000
  C   C7        1.0  0.29445139599263104  0.0536382823014065  0.8780738050727025  1.0000
  C   C8        1.0  0.7055553940215376  0.9463589004312071  0.12192969049502271  1.0000
  C   C9        1.0  0.21234524244763953  0.8901470162295978  0.8896515951064999  1.0000
  C   C10       1.0  0.7876661821334919  0.10985978491974181  0.11034930749090678  1.0000
  C   C11       1.0  0.16400066482773926  0.7598999828884703  0.792100020454356  1.0000
  C   C12       1.0  0.8360173646504804  0.24011401759296552  0.2079045853530488  1.0000
  C   C13       1.0  0.07306812220827655  0.68708560319012  0.5776593824151348  1.0000
  C   C14       1.0  0.9269352460125829  0.31291651911774926  0.42234205738741093  1.0000
  C   C15       1.0  0.09058907375572291  0.77576171206875  0.4685045659032527  1.0000
  C   C16       1.0  0.9094154963457795  0.22424282329379963  0.5314971037063358  1.0000
  C   C17       1.0  0.17275373251849402  0.8427910541679468  0.005073594995664622  1.0000
  C   C18       1.0  0.8272471887021451  0.15720623358006242  0.994926507143177  1.0000
  C   C19       1.0  0.19628787277664367  0.9391756759716331  0.20811398168864775  1.0000
  C   C20       1.0  0.8037085112478478  0.06082415519794181  0.7918855909772163  1.0000
  C   C21       1.0  0.30073790062064637  0.09852905576445893  0.2892653614730136  1.0000
  C   C22       1.0  0.6992515046539863  0.9014745567354794  0.7107299047848913  1.0000
  O   O1        1.0  0.4577732304917247  0.39964107958080325  0.8830879876561326  1.0000
  O   O2        1.0  0.5422338744844024  0.6003547626267502  0.11690504623261691  1.0000
  O   O3        1.0  0.16397953002086044  0.6227868979775694  0.8054052483547451  1.0000
  O   O4        1.0  0.836033145480833  0.3772076918407522  0.19459721040671954  1.0000
  O   O5        1.0  0.11928879125051133  0.8064762935280213  0.680605499336977  1.0000
  O   O6        1.0  0.8807141224407431  0.19352215970510395  0.31939402947577383  1.0000
  O   O7        1.0  0.09037576436856645  0.7018610041332138  0.0261099247704308  1.0000
  O   O8        1.0  0.9096287570475282  0.2981374503101933  0.973893306060809  1.0000
  O   O9        1.0  0.23074733254033214  0.9705681132477224  0.09011464433744722  1.0000
  O   O10       1.0  0.7692342925014797  0.029428383214842316  0.9098819971881867  1.0000
  F   F1        1.0  0.7108317427279545  0.481386732857523  0.7265421644833694  1.0000
  F   F2        1.0  0.2891853474507541  0.5185771107356771  0.2734469084258109  1.0000
  F   F3        1.0  0.3963641487550902  0.4728304488110169  0.6378189372770606  1.0000
  F   F4        1.0  0.603660307218071  0.527184644731861  0.3621882988131304  1.0000
  F   F5        1.0  0.4941956142236776  0.2739045570067305  0.5937384170826762  1.0000
  F   F6        1.0  0.505755247733205  0.7260828485366274  0.40625125430584313  1.0000
