data_image0
_chemical_formula_structural       Na4H44C24N8O24
_chemical_formula_sum              "Na4 H44 C24 N8 O24"
_cell_length_a       6.181608027954352
_cell_length_b       10.684922197186186
_cell_length_c       13.978523415088665
_cell_angle_alpha    89.99939768149581
_cell_angle_beta     94.66088060705968
_cell_angle_gamma    89.99970815259512

_space_group_name_H-M_alt    "P 1"
_space_group_IT_number       1

loop_
  _space_group_symop_operation_xyz
  'x, y, z'

loop_
  _atom_site_type_symbol
  _atom_site_label
  _atom_site_symmetry_multiplicity
  _atom_site_fract_x
  _atom_site_fract_y
  _atom_site_fract_z
  _atom_site_occupancy
  Na  Na1       1.0  0.9592870287608192  0.7318987967427617  0.015513489355733198  1.0000
  Na  Na2       1.0  0.5407156269824185  0.23190326485889298  0.984485561120465  1.0000
  Na  Na3       1.0  0.0407191161952483  0.2681027747998641  0.9844875953951658  1.0000
  Na  Na4       1.0  0.4592840084127302  0.7681011144006789  0.015513874264449598  1.0000
  H   H1        1.0  0.22823466765015607  0.7585344694148972  0.19320394711330377  1.0000
  H   H2        1.0  0.2717668519372296  0.2585387236714638  0.8067918229518795  1.0000
  H   H3        1.0  0.7717763377541259  0.24146897391987923  0.8067965854331832  1.0000
  H   H4        1.0  0.7282359861716331  0.7414591043187287  0.1932041430283959  1.0000
  H   H5        1.0  0.17173623996259832  0.897061776092677  0.15924458545819678  1.0000
  H   H6        1.0  0.3282591522569049  0.3970700558469956  0.8407505726971821  1.0000
  H   H7        1.0  0.8282650184915495  0.10293979546904815  0.8407549044346255  1.0000
  H   H8        1.0  0.671745291526136  0.6029296439464318  0.1592440164015798  1.0000
  H   H9        1.0  0.28601806026987475  0.5724924683560887  0.9218085441116627  1.0000
  H   H10       1.0  0.2139868185606915  0.07248910561636988  0.0781917065918165  1.0000
  H   H11       1.0  0.7139929277923827  0.4275062954972455  0.0781905570847314  1.0000
  H   H12       1.0  0.7860144398934564  0.9275124659453552  0.9218077833010057  1.0000
  H   H13       1.0  0.2568376271083963  0.5058805152168944  0.019938452549979495  1.0000
  H   H14       1.0  0.24316947526186536  0.005881558062149802  0.9800616967078427  1.0000
  H   H15       1.0  0.7431701408895537  0.4941219922208973  0.9800626866930956  1.0000
  H   H16       1.0  0.7568301775138266  0.9941190775945898  0.01993917006255691  1.0000
  H   H17       1.0  0.023362466750796798  0.7890443153943493  0.5807477827268599  1.0000
  H   H18       1.0  0.47663236851197144  0.2890335333753242  0.419254669881802  1.0000
  H   H19       1.0  0.9766112433442515  0.21095351260235873  0.4192543591722285  1.0000
  H   H20       1.0  0.5233818916706383  0.710968974050104  0.5807466873457088  1.0000
  H   H21       1.0  0.9062771776584313  0.22099418798045176  0.6575525136690815  1.0000
  H   H22       1.0  0.5937222970615892  0.7209836623229721  0.3424436567733196  1.0000
  H   H23       1.0  0.09371597425089108  0.7790064476935684  0.3424474194320055  1.0000
  H   H24       1.0  0.40628540149121056  0.2790169733576064  0.6575517569986005  1.0000
  H   H25       1.0  0.26754910420137185  0.7777549706335166  0.7366740472479378  1.0000
  H   H26       1.0  0.2324620300286711  0.277747140504971  0.2633261824378863  1.0000
  H   H27       1.0  0.7324391785694572  0.22224566504977622  0.2633257223648187  1.0000
  H   H28       1.0  0.7675474391679842  0.7222516232925146  0.7366814524809228  1.0000
  H   H29       1.0  0.4107393519944793  0.9138097501809739  0.7736511242620807  1.0000
  H   H30       1.0  0.08926401104773159  0.4138010339868999  0.22634488139152611  1.0000
  H   H31       1.0  0.5892521074278037  0.0861880778406814  0.2263430288756823  1.0000
  H   H32       1.0  0.9107486608455204  0.5861949221342115  0.7736592841069055  1.0000
  H   H33       1.0  0.30742324139053784  0.9404645002732578  0.6084058328956987  1.0000
  H   H34       1.0  0.19256367346493158  0.4404559842079721  0.39159155086218794  1.0000
  H   H35       1.0  0.6925552249850002  0.0595323918797845  0.39158716859224546  1.0000
  H   H36       1.0  0.8074457610005865  0.5595437155074167  0.6084132213131781  1.0000
  H   H37       1.0  0.6475602079647017  0.09834399510528165  0.5535815413874161  1.0000
  H   H38       1.0  0.8524242795505472  0.5983283721843479  0.4464251343725466  1.0000
  H   H39       1.0  0.3524070793993985  0.9016538328644969  0.446426108006257  1.0000
  H   H40       1.0  0.1476012204240575  0.4016713275934549  0.5535665847512377  1.0000
  H   H41       1.0  0.6361503048372227  0.05379630184141599  0.6744957109251501  1.0000
  H   H42       1.0  0.8638508205403781  0.5537822954783849  0.3255118841376757  1.0000
  H   H43       1.0  0.3638429512783432  0.9461987183841457  0.3255128104180542  1.0000
  H   H44       1.0  0.1361519654653662  0.4462183402360296  0.6744797877215305  1.0000
  C   C1        1.0  0.10319929625154597  0.8956263041360232  0.8312266606281187  1.0000
  C   C2        1.0  0.3968026273831953  0.395622025264025  0.1687708746818259  1.0000
  C   C3        1.0  0.8967905748300281  0.1043762033603315  0.1687703007333781  1.0000
  C   C4        1.0  0.6032002801836569  0.6043748667886177  0.8312308167813995  1.0000
  C   C5        1.0  0.2485253770244711  0.8787748391884165  0.7490457486473475  1.0000
  C   C6        1.0  0.2514799641957879  0.37876711467197305  0.2509534686473174  1.0000
  C   C7        1.0  0.751464511433376  0.12122486060335548  0.25095264409569756  1.0000
  C   C8        1.0  0.7485310846470199  0.6212297773504787  0.7490506423510794  1.0000
  C   C9        1.0  0.17041032143058743  0.9435472642422412  0.6543422335148534  1.0000
  C   C10       1.0  0.3295830834521212  0.44354078968851246  0.3456574893680653  1.0000
  C   C11       1.0  0.8295746892198892  0.05644962786896459  0.3456552800667866  1.0000
  C   C12       1.0  0.6704247105952492  0.5564607818362859  0.6543457969335762  1.0000
  C   C13       1.0  0.1281767614296783  0.08095600761795647  0.6710364254237433  1.0000
  C   C14       1.0  0.3718410852012753  0.5809391194944382  0.3289691999777347  1.0000
  C   C15       1.0  0.8718261287437841  0.9190474357322743  0.3289638346422024  1.0000
  C   C16       1.0  0.6281829914108528  0.4190596442752295  0.6710389254060517  1.0000
  C   C17       1.0  0.7425590574060338  0.05503472532319621  0.6148270429248299  1.0000
  C   C18       1.0  0.7574355384179511  0.5550202587968797  0.385178176693998  1.0000
  C   C19       1.0  0.2574260400444643  0.944965910331895  0.3851776274898527  1.0000
  C   C20       1.0  0.24258028405166948  0.44497944096508496  0.6148182252472765  1.0000
  C   C21       1.0  0.7864077916837572  0.9217440005839919  0.5880442188573056  1.0000
  C   C22       1.0  0.7135655795012709  0.42174075085380036  0.41195588831165963  1.0000
  C   C23       1.0  0.21358054316879554  0.07825850686633369  0.4119598448568595  1.0000
  C   C24       1.0  0.2864486199178984  0.578259884809505  0.588040459129573  1.0000
  N   N1        1.0  0.988655217437916  0.8786295323874711  0.6033490380619285  1.0000
  N   N2        1.0  0.5113413054596377  0.3786178105117202  0.3966550571323779  1.0000
  N   N3        1.0  0.011328222248117498  0.12136923149385842  0.3966527151250077  1.0000
  N   N4        1.0  0.48866809426619545  0.6213846969180709  0.6033468522916791  1.0000
  N   N5        1.0  0.93545047104017  0.12860424676364351  0.6412993119065861  1.0000
  N   N6        1.0  0.5645303807545262  0.6285935964113847  0.3586976966502533  1.0000
  N   N7        1.0  0.0645264243794941  0.8713926453630166  0.35869792919451265  1.0000
  N   N8        1.0  0.4354692546620171  0.3714061033569322  0.641301738754322  1.0000
  O   O1        1.0  0.1805068168927946  0.8590039137620095  0.9134028791973209  1.0000
  O   O2        1.0  0.3195068464164876  0.3589963389471436  0.0865989237733231  1.0000
  O   O3        1.0  0.8194961079604539  0.14100982444933408  0.08660024356487381  1.0000
  O   O4        1.0  0.6804976928611239  0.6410042966905038  0.91340353785516  1.0000
  O   O5        1.0  0.9157049496699372  0.9446024909922315  0.8136401814941506  1.0000
  O   O6        1.0  0.5842990416777524  0.44459527458241876  0.1863600533454246  1.0000
  O   O7        1.0  0.0842897818769757  0.0553981447032541  0.18635622767865806  1.0000
  O   O8        1.0  0.41570874371358013  0.555400681557785  0.8136425172949302  1.0000
  O   O9        1.0  0.2811863873114788  0.1459049512319908  0.7100511340092481  1.0000
  O   O10       1.0  0.21878200890945726  0.6459068918325672  0.2899387126303594  1.0000
  O   O11       1.0  0.7187888242985778  0.8540900691356442  0.2899410428094669  1.0000
  O   O12       1.0  0.781211195073027  0.35409748740499236  0.7100655145642564  1.0000
  O   O13       1.0  0.6322461041554064  0.8566331376149636  0.5506204949119464  1.0000
  O   O14       1.0  0.8677636911639082  0.35660639763371893  0.4493913780058634  1.0000
  O   O15       1.0  0.3677341588877354  0.1433665621315043  0.44938687475784894  1.0000
  O   O16       1.0  0.1322504648680933  0.6433895585628876  0.5506013910306464  1.0000
  O   O17       1.0  0.2171751497133698  0.8143808584028706  0.13680849575195  1.0000
  O   O18       1.0  0.28282422739311386  0.3143880474013656  0.8631860348247713  1.0000
  O   O19       1.0  0.7828277404772165  0.18561884135435489  0.86319176432972  1.0000
  O   O20       1.0  0.7171818567866808  0.6856144600739  0.1368100401280543  1.0000
  O   O21       1.0  0.2252793415173358  0.5846606870681513  0.98495074172412  1.0000
  O   O22       1.0  0.2747254260222576  0.08465892093159512  0.015049406719200003  1.0000
  O   O23       1.0  0.7747251456742748  0.41533901270071266  0.015047425799025413  1.0000
  O   O24       1.0  0.7252807102649328  0.9153398429211916  0.9849509623586244  1.0000
