data_image0
_chemical_formula_structural       K2H16C12N10O4
_chemical_formula_sum              "K2 H16 C12 N10 O4"
_cell_length_a       7.194476629550923
_cell_length_b       8.65007517330236
_cell_length_c       8.649974435954956
_cell_angle_alpha    91.11736232657036
_cell_angle_beta     71.92139241394015
_cell_angle_gamma    71.92134662072715

_space_group_name_H-M_alt    "P 1"
_space_group_IT_number       1

loop_
  _space_group_symop_operation_xyz
  'x, y, z'

loop_
  _atom_site_type_symbol
  _atom_site_label
  _atom_site_symmetry_multiplicity
  _atom_site_fract_x
  _atom_site_fract_y
  _atom_site_fract_z
  _atom_site_occupancy
  K   K1        1.0  0.499997904432945  0.5000208980039389  0.4999969350908842  1.0000
  K   K2        1.0  1.0045972167906376e-05  0.49998292400989197  0.5000163606162288  1.0000
  H   H1        1.0  0.8044891696920261  0.7072649230303651  0.9113142167271772  1.0000
  H   H2        1.0  0.6955071769144894  0.08868522638559277  0.29274116126367034  1.0000
  H   H3        1.0  0.19550989882368697  0.2927315542656713  0.0886865845499258  1.0000
  H   H4        1.0  0.3044907219773521  0.9113173473570696  0.7072565221807421  1.0000
  H   H5        1.0  0.8038569078509283  0.5141750292996434  0.11979954330750074  1.0000
  H   H6        1.0  0.6961468514748289  0.8801990841825925  0.4858292417757538  1.0000
  H   H7        1.0  0.19614698875158607  0.4858239527189312  0.8802034591979222  1.0000
  H   H8        1.0  0.3038598286910387  0.1198035366803936  0.5141684196171212  1.0000
  H   H9        1.0  0.016438294962796387  0.8319762858266841  0.654147942187123  1.0000
  H   H10       1.0  0.48355212225671834  0.34585390424876994  0.16802847576587954  1.0000
  H   H11       1.0  0.9835576046921517  0.1680274851573458  0.3458479682369529  1.0000
  H   H12       1.0  0.5164414493993023  0.6541487343010173  0.8319772957530488  1.0000
  H   H13       1.0  0.1498820905184531  0.8053138971831827  0.4648356218095699  1.0000
  H   H14       1.0  0.3501048234538117  0.5351626907266082  0.19468717128241048  1.0000
  H   H15       1.0  0.8501089901070101  0.19468738170220226  0.5351592412502909  1.0000
  H   H16       1.0  0.6498835098375508  0.46483499980995185  0.8053176483464313  1.0000
  C   C1        1.0  0.7499984886352636  0.0335960756854305  0.9664061289929081  1.0000
  C   C2        1.0  0.25000298033788226  0.9664016350360286  0.033594042102201585  1.0000
  C   C3        1.0  0.7499991761925744  0.9154539878397612  0.08454926778459532  1.0000
  C   C4        1.0  0.2500012334745492  0.08454614990306199  0.9154488884047965  1.0000
  C   C5        1.0  0.7831272263732387  0.7504054282743907  0.036857426945708434  1.0000
  C   C6        1.0  0.716874773321251  0.9631425176629448  0.24959685967548495  1.0000
  C   C7        1.0  0.21687623277948376  0.2495910725818007  0.9631433633056261  1.0000
  C   C8        1.0  0.2831305475785797  0.0368564175054615  0.7504011390768852  1.0000
  C   C9        1.0  0.7811239156479886  0.6427247856960179  0.15412891495046202  1.0000
  C   C10       1.0  0.718887893963917  0.8458707527469328  0.3572769201034589  1.0000
  C   C11       1.0  0.21888436253421872  0.35727420725881837  0.8458729226650874  1.0000
  C   C12       1.0  0.2811207763815275  0.1541306582507929  0.6427213604456483  1.0000
  N   N1        1.0  0.8186699951324955  0.9940955672231129  0.8018993124422876  1.0000
  N   N2        1.0  0.6813243720206117  0.1981004136260793  0.005907414228040804  1.0000
  N   N3        1.0  0.18132946554644755  0.005903328115806499  0.1980979317683804  1.0000
  N   N4        1.0  0.3186726882008983  0.8018972482874175  0.994090460164621  1.0000
  N   N5        1.0  0.7911042392625942  0.1371641033459952  0.7409474299682728  1.0000
  N   N6        1.0  0.7088918915674259  0.2590532007104115  0.8628376961489009  1.0000
  N   N7        1.0  0.208891788824829  0.8628360234605593  0.25905189111099963  1.0000
  N   N8        1.0  0.2911061176422648  0.7409457036069824  0.13716109022249873  1.0000
  N   N9        1.0  0.750006730058452  0.6872622661206406  0.3127361200493154  1.0000
  N   N10       1.0  0.25000937135229145  0.31273551892672197  0.687263629671854  1.0000
  O   O1        1.0  0.13156963511291056  0.7498097713785156  0.5658115020178085  1.0000
  O   O2        1.0  0.368414850838697  0.43418804911714654  0.25019335359288414  1.0000
  O   O3        1.0  0.8684209430314738  0.25019275888924847  0.43418581518152166  1.0000
  O   O4        1.0  0.6315778730896753  0.5658096649795752  0.7498114550101888  1.0000
