data_image0
_chemical_formula_structural       Zn4H48C64N16
_chemical_formula_sum              "Zn4 H48 C64 N16"
_cell_length_a       14.37542887117925
_cell_length_b       14.775150964664162
_cell_length_c       17.46056854538781
_cell_angle_alpha    108.74269094411054
_cell_angle_beta     107.71280525049285
_cell_angle_gamma    107.1904484531455

_space_group_name_H-M_alt    "P 1"
_space_group_IT_number       1

loop_
  _space_group_symop_operation_xyz
  'x, y, z'

loop_
  _atom_site_type_symbol
  _atom_site_label
  _atom_site_symmetry_multiplicity
  _atom_site_fract_x
  _atom_site_fract_y
  _atom_site_fract_z
  _atom_site_occupancy
  Zn  Zn1       1.0  0.4056303477416137  0.0072182937737537  0.8724648340024996  1.0000
  Zn  Zn2       1.0  0.6370854954687959  0.9989121156351358  0.11736532644788147  1.0000
  Zn  Zn3       1.0  0.3628121700594988  0.9045274425655662  0.035934888051031004  1.0000
  Zn  Zn4       1.0  0.671635319790326  0.12014628852078597  0.9937552472388942  1.0000
  H   H1        1.0  0.20996326910711355  0.13741842084435518  0.005745161227615367  1.0000
  H   H2        1.0  0.6718045174260541  0.708495544332976  0.11853628736780293  1.0000
  H   H3        1.0  0.7853763407687568  0.5746290530249424  0.05414346590028165  1.0000
  H   H4        1.0  0.7019395340872522  0.5479593484645661  0.10949622526145202  1.0000
  H   H5        1.0  0.9869771481197206  0.7557826117187146  0.5758071503929185  1.0000
  H   H6        1.0  0.029609012464604113  0.5571194724576641  0.7057367496757078  1.0000
  H   H7        1.0  0.8578814386643007  0.6719275046812145  0.4133023663884784  1.0000
  H   H8        1.0  0.889094693190927  0.3981399681245889  0.5662794934751573  1.0000
  H   H9        1.0  0.7352480461855465  0.5105564359456237  0.2692033621728597  1.0000
  H   H10       1.0  0.7746239877617711  0.31534787929616204  0.40302944549811304  1.0000
  H   H11       1.0  0.6669215416571959  0.9176097719308417  0.4248385695859296  1.0000
  H   H12       1.0  0.6485391061842378  0.817522510047439  0.9774251272920436  1.0000
  H   H13       1.0  0.35061800764801637  0.8997480355642935  0.20863455357866195  1.0000
  H   H14       1.0  0.3204470078588315  0.7992792299628633  0.2864162938329569  1.0000
  H   H15       1.0  0.3003918717791905  0.7636146574625897  0.4104771176428127  1.0000
  H   H16       1.0  0.7298023706760189  0.9107583214910162  0.7075399736946363  1.0000
  H   H17       1.0  0.9773435244959787  0.8997641683306767  0.06326260485220567  1.0000
  H   H18       1.0  0.7667132986958549  0.7848460582962742  0.9587588551021677  1.0000
  H   H19       1.0  0.9247260225834141  0.7725545193197192  0.7342432452370528  1.0000
  H   H20       1.0  0.8452643281277192  0.829313163558318  0.6854926161553933  1.0000
  H   H21       1.0  0.08017915633397614  0.9513362305024201  0.83305640411163  1.0000
  H   H22       1.0  0.716067563964721  0.3444969299887858  0.9545058955157442  1.0000
  H   H23       1.0  0.11685435571000372  0.7074294094987721  0.8430501174208869  1.0000
  H   H24       1.0  0.9970854345044772  0.011849875714602802  0.7944742429499525  1.0000
  H   H25       1.0  0.36799526052733006  0.19953958221254448  0.8598876484213561  1.0000
  H   H26       1.0  0.7156773398850833  0.3495319974416731  0.1335743568752718  1.0000
  H   H27       1.0  0.3714618850797394  0.820350699288973  0.7029862453742123  1.0000
  H   H28       1.0  0.17335885310529872  0.8387436400911169  0.6153557409033821  1.0000
  H   H29       1.0  0.12894177090645081  0.93160487839976  0.665416843924646  1.0000
  H   H30       1.0  0.26946689746586827  0.9653459810610909  0.7063457119161779  1.0000
  H   H31       1.0  0.38135021141920333  0.3263054807440753  0.779214813287531  1.0000
  H   H32       1.0  0.25685920660754397  0.47366652985707  0.7882838968419319  1.0000
  H   H33       1.0  0.33877154453266195  0.545763307772347  0.7506539113051429  1.0000
  H   H34       1.0  0.8901699358580546  0.09662493885425498  0.9830384212224244  1.0000
  H   H35       1.0  0.29087705956582255  0.40530489678632625  0.7053569850111783  1.0000
  H   H36       1.0  0.844709512217655  0.948699641743758  0.6411100899143204  1.0000
  H   H37       1.0  0.7876859258459775  0.8676946433597691  0.5229156315359372  1.0000
  H   H38       1.0  0.8027395544770858  0.9999322930102749  0.5647424162621275  1.0000
  H   H39       1.0  0.3833744736236896  0.7939650370012785  0.5668724017641009  1.0000
  H   H40       1.0  0.6771450763984889  0.9242283038813  0.29169766349807685  1.0000
  H   H41       1.0  0.10060759707163677  0.8389474843175507  0.10809984753273483  1.0000
  H   H42       1.0  0.03665901850425253  0.7730791357818204  0.9885798345568227  1.0000
  H   H43       1.0  0.1676134866482001  0.785446199292046  0.04935548535190984  1.0000
  H   H44       1.0  0.8230312924066183  0.9234165254307667  0.13247507355235638  1.0000
  H   H45       1.0  0.7225499059377398  0.9828777886665916  0.8411906375770211  1.0000
  H   H46       1.0  0.3104075437768117  0.6555810806814931  0.9136353636221696  1.0000
  H   H47       1.0  0.7555794878688645  0.7343715009380387  0.06327071220925246  1.0000
  H   H48       1.0  0.6215433115747261  0.16970452548836326  0.2725262574556878  1.0000
  C   C1        1.0  0.20970947736002907  0.0713054230592363  0.02059901069529249  1.0000
  C   C2        1.0  0.18360327720004943  0.8556632408229989  0.7450643953716634  1.0000
  C   C3        1.0  0.6358324164644672  0.9517768910268528  0.8206189480682721  1.0000
  C   C4        1.0  0.6393715608667492  0.19866771859074112  0.22644132477280712  1.0000
  C   C5        1.0  0.39314957040137  0.7113106523006324  0.9358155262171122  1.0000
  C   C6        1.0  0.5494220297462675  0.8822841806862272  0.7341933129049988  1.0000
  C   C7        1.0  0.4818768734095117  0.6919792530117944  0.9306991806209195  1.0000
  C   C8        1.0  0.11068746006642256  0.7590297647094599  0.7335700403073413  1.0000
  C   C9        1.0  0.8829670711431916  0.9854755943737387  0.04594726602723395  1.0000
  C   C10       1.0  0.6077945134911715  0.5096874006784518  0.9669517916344855  1.0000
  C   C11       1.0  0.5320445613338122  0.4076767244925818  0.9004185213756342  1.0000
  C   C12       1.0  0.6884077784133282  0.3032910319522557  0.2393026792785377  1.0000
  C   C13       1.0  0.4412854946585583  0.40356638691125096  0.835598423326338  1.0000
  C   C14       1.0  0.422801814493127  0.49277006874514484  0.8394936801585117  1.0000
  C   C15       1.0  0.4977402263700129  0.5950334642575327  0.9115942102077949  1.0000
  C   C16       1.0  0.4313352086588509  0.9083147485164246  0.21720675746084314  1.0000
  C   C17       1.0  0.5907051553170178  0.5989163182144422  0.9718560638313246  1.0000
  C   C18       1.0  0.6897504276446966  0.6722604010762437  0.06243659225443563  1.0000
  C   C19       1.0  0.7088504812041309  0.5707519457282542  0.05662745952247397  1.0000
  C   C20       1.0  0.021021647504489975  0.6689784965361764  0.6507449102158273  1.0000
  C   C21       1.0  0.7470362535174646  0.40017169033797023  0.32529642054778657  1.0000
  C   C22       1.0  0.8393801713343408  0.5936260574557366  0.4111139205263397  1.0000
  C   C23       1.0  0.5083908192053599  0.8949297904870119  0.27929896017717215  1.0000
  C   C24       1.0  0.7711171262541399  0.5033000182060973  0.3304551697578331  1.0000
  C   C25       1.0  0.7901761476620238  0.3931435917263784  0.4049191773525606  1.0000
  C   C26       1.0  0.8609469788674958  0.4839946644489998  0.48829128295321295  1.0000
  C   C27       1.0  0.8891187938472884  0.587370148361984  0.4920001038333765  1.0000
  C   C28       1.0  0.6315845780189026  0.2933748877354105  0.932443993842689  1.0000
  C   C29       1.0  0.9678009044921795  0.6778404544822152  0.5741555528038516  1.0000
  C   C30       1.0  0.9889525052686852  0.5655016748289725  0.6463305895660623  1.0000
  C   C31       1.0  0.9111426839609393  0.4765352329371878  0.5683683907380369  1.0000
  C   C32       1.0  0.4967722364575379  0.8639760037365176  0.3485138774894947  1.0000
  C   C33       1.0  0.555342820015355  0.8560237127011946  0.6480628316885627  1.0000
  C   C34       1.0  0.5395754481875273  0.3121781318004153  0.9027790632924064  1.0000
  C   C35       1.0  0.6713227226689256  0.890688066200873  0.5725054056154517  1.0000
  C   C36       1.0  0.658257541813157  0.8865343477641972  0.6465796207335043  1.0000
  C   C37       1.0  0.46382186143111437  0.8186717958531203  0.5686905132769337  1.0000
  C   C38       1.0  0.4728316108137919  0.8228205132932443  0.4914257578094164  1.0000
  C   C39       1.0  0.5780780395310006  0.8634659461168113  0.49377354881624297  1.0000
  C   C40       1.0  0.5981910007753584  0.9220313331479487  0.2600810856809018  1.0000
  C   C41       1.0  0.5866591466503622  0.8823036164538111  0.4212960640458759  1.0000
  C   C42       1.0  0.3922706100611181  0.8177008122260717  0.34462633574282336  1.0000
  C   C43       1.0  0.3808626731772975  0.7972579683360049  0.4135763764427123  1.0000
  C   C44       1.0  0.9576152571046636  0.9487381852063164  0.8858158338493493  1.0000
  C   C45       1.0  0.45692814050264013  0.8684411637126884  0.7495806774926731  1.0000
  C   C46       1.0  0.00580109112566871  0.961609515009023  0.9728930154069741  1.0000
  C   C47       1.0  0.9325205830218624  0.9148531630952945  0.009118404941560184  1.0000
  C   C48       1.0  0.8228519192178326  0.8138808823198217  0.9325293602849454  1.0000
  C   C49       1.0  0.7964396285391827  0.7886734465224875  0.8460514040051235  1.0000
  C   C50       1.0  0.8615011403860252  0.8499604950000756  0.8217775943551754  1.0000
  C   C51       1.0  0.9007821376488963  0.8378476513519713  0.7493991800454862  1.0000
  C   C52       1.0  0.45386039117117605  0.21929188920618264  0.8827918471841512  1.0000
  C   C53       1.0  0.9993482949729044  0.9496215505639328  0.8155873857683102  1.0000
  C   C54       1.0  0.6858854816060784  0.2901297017472046  0.15501635104155292  1.0000
  C   C55       1.0  0.16683552875026206  0.9286310842972296  0.0448822296684311  1.0000
  C   C56       1.0  0.5660688846502709  0.7941388628417271  0.9697145795323079  1.0000
  C   C57       1.0  0.12088260968872783  0.9906722983850925  0.015448499183015729  1.0000
  C   C58       1.0  0.18902147359067822  0.8998543054115518  0.679913121024178  1.0000
  C   C59       1.0  0.3222435303270573  0.47866468177664967  0.7670997673647404  1.0000
  C   C60       1.0  0.7823351054970191  0.9286068221073333  0.5755728246383921  1.0000
  C   C61       1.0  0.11521903939337352  0.8267608088957984  0.047925366130755175  1.0000
  C   C62       1.0  0.15041846894814626  0.7644776580309623  0.8206788819031414  1.0000
  C   C63       1.0  0.8615955585232768  0.06192985803646419  0.02241623836917478  1.0000
  C   C64       1.0  0.828431116681209  0.9740872808606864  0.0990147921018901  1.0000
  N   N1        1.0  0.30137484356257727  0.06105952207740728  0.05135503382762607  1.0000
  N   N2        1.0  0.47156256993777385  0.9395621592762423  0.165052450694233  1.0000
  N   N3        1.0  0.602737817225389  0.19631572325941696  0.9290892372718598  1.0000
  N   N4        1.0  0.5746023546887643  0.947537855155538  0.19132047364529822  1.0000
  N   N5        1.0  0.4923272403436698  0.15106072544183038  0.8992335017399637  1.0000
  N   N6        1.0  0.6418070917525897  0.18563233944167476  0.09817749159288516  1.0000
  N   N7        1.0  0.2737149747987786  0.9724336803734772  0.06549271636464477  1.0000
  N   N8        1.0  0.4868262273351148  0.9280323745766808  0.8377278932599236  1.0000
  N   N9        1.0  0.5319958358046077  0.8683897393459075  0.9986168430603468  1.0000
  N   N10       1.0  0.23948993669303317  0.8549657543402843  0.8794800979682261  1.0000
  N   N11       1.0  0.7969050276675632  0.09171774679689551  0.056621914628983895  1.0000
  N   N12       1.0  0.7758266870316107  0.03642374584972429  0.10441330017606987  1.0000
  N   N13       1.0  0.25921936322190925  0.9111929622659287  0.8330117702395509  1.0000
  N   N14       1.0  0.5973129978568252  0.979915001299794  0.8813599225316576  1.0000
  N   N15       1.0  0.42515542115888383  0.8170480820219196  0.9777967023661699  1.0000
  N   N16       1.0  0.6128630056521162  0.12925612108762857  0.14222123581222224  1.0000
