data_image0
_chemical_formula_structural       Cu2H32C26N4O10
_chemical_formula_sum              "Cu2 H32 C26 N4 O10"
_cell_length_a       7.965043367092447
_cell_length_b       8.688243288639546
_cell_length_c       10.748582041836926
_cell_angle_alpha    98.91270757936474
_cell_angle_beta     96.2749423753382
_cell_angle_gamma    94.49977278140089

_space_group_name_H-M_alt    "P 1"
_space_group_IT_number       1

loop_
  _space_group_symop_operation_xyz
  'x, y, z'

loop_
  _atom_site_type_symbol
  _atom_site_label
  _atom_site_symmetry_multiplicity
  _atom_site_fract_x
  _atom_site_fract_y
  _atom_site_fract_z
  _atom_site_occupancy
  Cu  Cu1       1.0  0.46093293173261424  0.4757225443209378  0.11084992953522736  1.0000
  Cu  Cu2       1.0  0.5390686037131472  0.5242561397049598  0.8891593611747979  1.0000
  H   H1        1.0  0.5312210564014632  0.2143108309204393  0.6917320058576164  1.0000
  H   H2        1.0  0.46877093003773496  0.7856852920765007  0.30827378974185377  1.0000
  H   H3        1.0  0.635012852808117  0.31589744242909035  0.3133806403373923  1.0000
  H   H4        1.0  0.3649771932160136  0.6841031301254363  0.6866124669229094  1.0000
  H   H5        1.0  0.29743227799140465  0.2303076503438035  0.588053438366785  1.0000
  H   H6        1.0  0.7025688656632454  0.7697036501556411  0.41195115540226357  1.0000
  H   H7        1.0  0.08623902840773917  0.37393014127536617  0.47459197305846595  1.0000
  H   H8        1.0  0.9137478803869569  0.6260660127616403  0.5254161777100562  1.0000
  H   H9        1.0  0.1662310832568252  0.4913225277924055  0.2873734025352376  1.0000
  H   H10       1.0  0.8337502093678139  0.5086676930277534  0.7126298648439046  1.0000
  H   H11       1.0  0.8066010214501915  0.007780490774919701  0.6426245292656247  1.0000
  H   H12       1.0  0.1933792139123014  0.9922107204012465  0.3573685240709636  1.0000
  H   H13       1.0  0.6922037221678182  0.025982336173143494  0.777928328244293  1.0000
  H   H14       1.0  0.3077945739130001  0.9740124136696336  0.22206483101780342  1.0000
  H   H15       1.0  0.8468695931268542  0.17890808199714306  0.7614349784148685  1.0000
  H   H16       1.0  0.15312803734840938  0.8210809594127824  0.23856584789671587  1.0000
  H   H17       1.0  0.02705843804812249  0.7590717815666396  0.03587380351266488  1.0000
  H   H18       1.0  0.9729468052355089  0.24091581097584222  0.9641098383671787  1.0000
  H   H19       1.0  0.960205478011808  0.6125134749638619  0.9049275760405988  1.0000
  H   H20       1.0  0.03979785227537748  0.3874928803188808  0.0950608264522828  1.0000
  H   H21       1.0  0.11425469730370709  0.7727584479873286  0.7648535552148202  1.0000
  H   H22       1.0  0.8857371430706138  0.2272466987430235  0.23513371463410238  1.0000
  H   H23       1.0  0.9539539830871036  0.8699660578339135  0.8356485395745705  1.0000
  H   H24       1.0  0.04606202473331679  0.13005603127267312  0.16437066522902907  1.0000
  H   H25       1.0  0.16780363687642824  0.023938115261472603  0.004299365871105503  1.0000
  H   H26       1.0  0.8321937643833408  0.9760716663069144  0.9956851910922351  1.0000
  H   H27       1.0  0.3308188410961749  0.9197622663056464  0.9445853360197416  1.0000
  H   H28       1.0  0.669198343123881  0.08025859260988709  0.055430108818995856  1.0000
  H   H29       1.0  0.2947987217053694  0.029817069213379503  0.7448929943009333  1.0000
  H   H30       1.0  0.7052310579704297  0.9702010913608492  0.25509997266454576  1.0000
  H   H31       1.0  0.1159065448494019  0.1180774976578221  0.7893317728969862  1.0000
  H   H32       1.0  0.8841054906910556  0.8819162082122888  0.21066710988578308  1.0000
  C   C1        1.0  0.5155638410315576  0.3288719719305035  0.3527498675753478  1.0000
  C   C2        1.0  0.48443246666632683  0.6711287337057285  0.6472503104289586  1.0000
  C   C3        1.0  0.4860093458661936  0.2647036918925422  0.4608407406034587  1.0000
  C   C4        1.0  0.5139839596247455  0.7352923234131055  0.5391586437006594  1.0000
  C   C5        1.0  0.3287659678127639  0.28067972064722113  0.505871966106227  1.0000
  C   C6        1.0  0.6712291041623573  0.7193338836381075  0.4941314334637709  1.0000
  C   C7        1.0  0.21072080317338043  0.3615342250438617  0.4430733103518776  1.0000
  C   C8        1.0  0.7892657533643401  0.6384699581388206  0.5569264188005362  1.0000
  C   C9        1.0  0.2533428711951444  0.42467467102787987  0.337979156480273  1.0000
  C   C10       1.0  0.7466534444452436  0.5753260186193431  0.6620200899235371  1.0000
  C   C11       1.0  0.6260778341705873  0.18220364682175472  0.5189421354663537  1.0000
  C   C12       1.0  0.3739223866186521  0.8178111928243013  0.48106464200854754  1.0000
  C   C13       1.0  0.7480383709143228  0.0892532031901823  0.7091818241092724  1.0000
  C   C14       1.0  0.25195414642082165  0.9107474897508397  0.29081802417071145  1.0000
  C   C15       1.0  0.2225522128381741  0.6268190099818939  0.9683444406562173  1.0000
  C   C16       1.0  0.7774539175023633  0.373178074206848  0.031647801795522  1.0000
  C   C17       1.0  0.061991709981995775  0.7060277522873691  0.9439689224170705  1.0000
  C   C18       1.0  0.938020761457288  0.29396930509303587  0.05602107477373145  1.0000
  C   C19       1.0  0.07884028770457259  0.8272259393562679  0.8563588678186134  1.0000
  C   C20       1.0  0.9211726510906573  0.1727758158802501  0.14363263485665806  1.0000
  C   C21       1.0  0.20894968633490404  0.9642549172349032  0.9166276405033712  1.0000
  C   C22       1.0  0.7910624484195381  0.03575154761499991  0.08336618934874448  1.0000
  C   C23       1.0  0.23819515598643193  0.08218155152670902  0.8283632610181257  1.0000
  C   C24       1.0  0.7618167093487785  0.9178226363456546  0.171634008293978  1.0000
  C   C25       1.0  0.342790954622707  0.23277097269805583  0.8919402418476563  1.0000
  C   C26       1.0  0.657203079388033  0.7672334437320882  0.10807225755983295  1.0000
  N   N1        1.0  0.40289487867806173  0.40778165256432425  0.2925384722625565  1.0000
  N   N2        1.0  0.5970985694649898  0.5922154852410914  0.7074582607110713  1.0000
  N   N3        1.0  0.6171799188523649  0.16024720325700062  0.6398954938532383  1.0000
  N   N4        1.0  0.38280922391699324  0.8397453199311117  0.36010499351456093  1.0000
  O   O1        1.0  0.2511366483980311  0.5813259999505291  0.07550584212794577  1.0000
  O   O2        1.0  0.7488644239086427  0.4186595267652605  0.9244939518944902  1.0000
  O   O3        1.0  0.3157116897879603  0.6105791181749538  0.8791845398649158  1.0000
  O   O4        1.0  0.6842938699441349  0.38941347601471676  0.12081830790879168  1.0000
  O   O5        1.0  0.3462363514174669  0.2724017529131117  0.010896720745314807  1.0000
  O   O6        1.0  0.6537570448537267  0.7275839402803115  0.9891135930344035  1.0000
  O   O7        1.0  0.4166120730185269  0.311887556383546  0.8186734356444276  1.0000
  O   O8        1.0  0.5833874306061729  0.6881087199158316  0.18134047220765123  1.0000
  O   O9        1.0  0.7425453251330011  0.13868570492224563  0.4571173789779621  1.0000
  O   O10       1.0  0.25746545879969307  0.8613209315749729  0.5428865885714913  1.0000
