data_image0
_chemical_formula_structural       Zn3H34C44O10
_chemical_formula_sum              "Zn3 H34 C44 O10"
_cell_length_a       6.002445004977849
_cell_length_b       19.22455933163769
_cell_length_c       19.340519997321266
_cell_angle_alpha    76.70332866232401
_cell_angle_beta     81.53999749236048
_cell_angle_gamma    81.68794889348057

_space_group_name_H-M_alt    "P 1"
_space_group_IT_number       1

loop_
  _space_group_symop_operation_xyz
  'x, y, z'

loop_
  _atom_site_type_symbol
  _atom_site_label
  _atom_site_symmetry_multiplicity
  _atom_site_fract_x
  _atom_site_fract_y
  _atom_site_fract_z
  _atom_site_occupancy
  Zn  Zn1       1.0  0.5000050298211673  0.9999976570873839  4.3619333211395394e-07  1.0000
  Zn  Zn2       1.0  0.0074987176753041306  0.9381123404989395  0.06551374415179373  1.0000
  Zn  Zn3       1.0  0.9925020406193212  0.06188613243222109  0.9344872043904714  1.0000
  H   H1        1.0  0.22548930237306308  0.7143412221446823  0.07245937734477789  1.0000
  H   H2        1.0  0.4378855517864508  0.5941053003082643  0.06417037337906355  1.0000
  H   H3        1.0  0.02662332878011845  0.6965373494710647  0.9607512878636941  1.0000
  H   H4        1.0  0.8103346880783133  0.8163249203046234  0.9659481530477907  1.0000
  H   H5        1.0  0.9338462513573375  0.4358528994571457  0.9093411700711584  1.0000
  H   H6        1.0  0.6754565425318688  0.5341300540475726  0.8586469826494395  1.0000
  H   H7        1.0  0.4806011172325954  0.5546874009711614  0.9316063437090492  1.0000
  H   H8        1.0  0.6590825447288967  0.6188973172744452  0.8826403590591881  1.0000
  H   H9        1.0  0.7793544807933587  0.9289996961948078  0.28660592466167145  1.0000
  H   H10       1.0  0.5773196413179278  0.9474171302725765  0.4045376102942201  1.0000
  H   H11       1.0  0.9624873744010003  0.022977497701695902  0.3074753463890119  1.0000
  H   H12       1.0  0.1628972027865601  0.00237199969024  0.1906050897035598  1.0000
  H   H13       1.0  0.06310747250970652  0.09163347533181818  0.5634107404195277  1.0000
  H   H14       1.0  0.3199742515833535  0.14315231520435384  0.4665898065985417  1.0000
  H   H15       1.0  0.5196809861997309  0.0706914409995463  0.44725477708885114  1.0000
  H   H16       1.0  0.3435652306417012  0.11848555710447072  0.3822758066347518  1.0000
  H   H17       1.0  0.774524569908884  0.2856534437972371  0.9275438722115439  1.0000
  H   H18       1.0  0.5621187895786194  0.4058877571789807  0.9358336373002345  1.0000
  H   H19       1.0  0.9733773627485504  0.30346102847968837  0.039255372164682015  1.0000
  H   H20       1.0  0.1896583554982314  0.1836713189044872  0.034058780893261115  1.0000
  H   H21       1.0  0.06617206155628001  0.5641433259019591  0.09066465541019403  1.0000
  H   H22       1.0  0.32455820886415415  0.4658667111564154  0.14135888471351174  1.0000
  H   H23       1.0  0.5194036883530873  0.44530878860170003  0.06840266908086086  1.0000
  H   H24       1.0  0.3409344316897532  0.3810977812040475  0.11736886750159671  1.0000
  H   H25       1.0  0.22063548899464538  0.0709961536506327  0.7133924361448649  1.0000
  H   H26       1.0  0.4226594179525307  0.05258573543561341  0.5954587046774691  1.0000
  H   H27       1.0  0.03750800283327044  0.9770270418444792  0.6925157580623776  1.0000
  H   H28       1.0  0.8371004756498835  0.9976260752426638  0.8093878049301964  1.0000
  H   H29       1.0  0.9368822039292867  0.9083774875013969  0.4365813177741629  1.0000
  H   H30       1.0  0.680023066738137  0.8568607777359246  0.5334024969084865  1.0000
  H   H31       1.0  0.4803057176788884  0.9293184649530485  0.5527366022735053  1.0000
  H   H32       1.0  0.6564377365740411  0.8815259449748751  0.6177150352413889  1.0000
  H   H33       1.0  0.1466449894428834  0.0639430522757394  0.054814727253962296  1.0000
  H   H34       1.0  0.8533709608021383  0.9360554555183211  0.945182960082427  1.0000
  C   C1        1.0  0.37505125143138685  0.8450867235599161  0.02014430681218471  1.0000
  C   C2        1.0  0.5035502262658581  0.7728196845866222  0.018590397244288705  1.0000
  C   C3        1.0  0.400285609028849  0.7098283766016278  0.047399794788994136  1.0000
  C   C4        1.0  0.5195337581834212  0.6429665914807217  0.04296176390163708  1.0000
  C   C5        1.0  0.7455280821242949  0.6373721647374425  0.0114237302403026  1.0000
  C   C6        1.0  0.8503153373435522  0.7004226983749715  0.9847009493227007  1.0000
  C   C7        1.0  0.7297983716891282  0.7673937247943454  0.9875679628648301  1.0000
  C   C8        1.0  0.8727540435972047  0.5663375685232594  0.005221722850286921  1.0000
  C   C9        1.0  0.8304493253725199  0.5301678867872608  0.9536303505250459  1.0000
  C   C10       1.0  0.9603076139902812  0.4642706217028587  0.9497456854636185  1.0000
  C   C11       1.0  0.6527812270218548  0.5609950813263751  0.9039158002093687  1.0000
  C   C12       1.0  0.6052579317520711  0.9552492497039322  0.16025163146911592  1.0000
  C   C13       1.0  0.4847830663798618  0.9653567799990269  0.2311153996739962  1.0000
  C   C14       1.0  0.6005761837276254  0.949963878929104  0.29173593840592105  1.0000
  C   C15       1.0  0.487327007330343  0.9604054988353777  0.35736543504638973  1.0000
  C   C16       1.0  0.2561453111750609  0.9864243007081654  0.36396155060315755  1.0000
  C   C17       1.0  0.1415682405739886  0.002092195687403398  0.30298641272379007  1.0000
  C   C18       1.0  0.2539186399446011  0.9913343727854522  0.23736139998843703  1.0000
  C   C19       1.0  0.1296362688189348  0.9946404085807005  0.4341565542956332  1.0000
  C   C20       1.0  0.1707561732070388  0.04666748267380429  0.47014405109506197  1.0000
  C   C21       1.0  0.0385615801130541  0.05057695560082459  0.5353632801785864  1.0000
  C   C22       1.0  0.34721425682197093  0.09746258078803287  0.43998262590740483  1.0000
  C   C23       1.0  0.6249476393817021  0.15490739542462248  0.9798607521850046  1.0000
  C   C24       1.0  0.49644860992054873  0.22717435668668162  0.9814193347869988  1.0000
  C   C25       1.0  0.5997123022120973  0.2901684064702934  0.9526062923210789  1.0000
  C   C26       1.0  0.4804729607151828  0.3570291109780753  0.9570441655479272  1.0000
  C   C27       1.0  0.25448446580195133  0.3626213915930308  0.988581881943432  1.0000
  C   C28       1.0  0.14969078652819698  0.29957459217474985  0.01530622006580979  1.0000
  C   C29       1.0  0.2702016087195886  0.23260198135778143  0.012438262173986917  1.0000
  C   C30       1.0  0.1272543356453326  0.4336580984738773  0.9947862096060051  1.0000
  C   C31       1.0  0.1695594168624694  0.46983157981243556  0.04637468973868406  1.0000
  C   C32       1.0  0.03971199293086873  0.5357266700947746  0.05026037352036639  1.0000
  C   C33       1.0  0.3472340951224807  0.4390000612483576  0.09609090411868243  1.0000
  C   C34       1.0  0.3947400705333521  0.04474766288670649  0.8397466672508074  1.0000
  C   C35       1.0  0.5152113925968679  0.0346406983402474  0.7688813832494859  1.0000
  C   C36       1.0  0.39941471980114335  0.050034147889647294  0.7082603671731533  1.0000
  C   C37       1.0  0.5126565532681086  0.0395990126358186  0.6426282635902254  1.0000
  C   C38       1.0  0.7438453630449757  0.013584023941419297  0.6360279217996168  1.0000
  C   C39       1.0  0.858423953618356  0.9979117990726394  0.6970054646612597  1.0000
  C   C40       1.0  0.7460765726395026  0.008665837794517002  0.7626321833425322  1.0000
  C   C41       1.0  0.8703509660462527  0.0053727244379047035  0.5658341156912314  1.0000
  C   C42       1.0  0.8292273017982693  0.9533467195533377  0.5298470740863764  1.0000
  C   C43       1.0  0.9614256668913939  0.9494361946869462  0.4646263513562516  1.0000
  C   C44       1.0  0.6527787949315994  0.9025483888330896  0.5600087652656499  1.0000
  O   O1        1.0  0.4540507344711246  0.9000877876506901  0.9798792743109743  1.0000
  O   O2        1.0  0.18750528850456766  0.8462993749947855  0.062258133019369735  1.0000
  O   O3        1.0  0.48927569206057336  0.9549839275399633  0.11084129806498305  1.0000
  O   O4        1.0  0.8242601014006822  0.9473621236318335  0.15470639529461044  1.0000
  O   O5        1.0  0.5459438378730326  0.09990904044080648  0.020124364463676207  1.0000
  O   O6        1.0  0.8124898424486489  0.15369581319828995  0.9377473811724002  1.0000
  O   O7        1.0  0.5107371573917021  0.0450092462147609  0.8891550739636002  1.0000
  O   O8        1.0  0.17573807494849797  0.052634225056841885  0.8452935670163699  1.0000
  O   O9        1.0  0.8455334998120776  0.9701027128504051  0.9759503313897114  1.0000
  O   O10       1.0  0.15447217197832688  0.029891462882865504  0.024050797436153508  1.0000
