data_image0
_chemical_formula_structural       Zn2H42C20N6O8
_chemical_formula_sum              "Zn2 H42 C20 N6 O8"
_cell_length_a       6.9550490468059785
_cell_length_b       9.79477651564167
_cell_length_c       10.43204430691638
_cell_angle_alpha    115.81133472361884
_cell_angle_beta     95.62893320046729
_cell_angle_gamma    93.02103695617006

_space_group_name_H-M_alt    "P 1"
_space_group_IT_number       1

loop_
  _space_group_symop_operation_xyz
  'x, y, z'

loop_
  _atom_site_type_symbol
  _atom_site_label
  _atom_site_symmetry_multiplicity
  _atom_site_fract_x
  _atom_site_fract_y
  _atom_site_fract_z
  _atom_site_occupancy
  Zn  Zn1       1.0  0.944587784190766  0.1190944669385701  0.8424758540847392  1.0000
  Zn  Zn2       1.0  0.05541275820958451  0.8808974852178011  0.1575197272217822  1.0000
  H   H1        1.0  0.4987581382333133  0.7047463508074187  0.5668364099314048  1.0000
  H   H2        1.0  0.5012421500359707  0.2952663101182083  0.4331573476249987  1.0000
  H   H3        1.0  0.6571782669531104  0.6339937980956662  0.660936515892111  1.0000
  H   H4        1.0  0.3428142173762226  0.36600524651233707  0.33904821249198863  1.0000
  H   H5        1.0  0.672081790382542  0.5835061634101352  0.47550932704155013  1.0000
  H   H6        1.0  0.32789742886304657  0.4164906219345498  0.5244756725356157  1.0000
  H   H7        1.0  0.8926649248277346  0.5083727777655156  0.33709857087060874  1.0000
  H   H8        1.0  0.10732760541852573  0.4916237711575917  0.662898531017625  1.0000
  H   H9        1.0  0.9221664781712989  0.3264023390044244  0.3334225167231963  1.0000
  H   H10       1.0  0.07783030363736293  0.6735942384871054  0.6665719428636907  1.0000
  H   H11       1.0  0.696128723907066  0.35853411475392255  0.2648423983283267  1.0000
  H   H12       1.0  0.3038690406332308  0.6414590201811593  0.7351516190768096  1.0000
  H   H13       1.0  0.21947233063417576  0.8939897031030101  0.6670101655169633  1.0000
  H   H14       1.0  0.7805280944135479  0.10601136326522462  0.33299021378049093  1.0000
  H   H15       1.0  0.44382208366955234  0.9219986941461119  0.7815444774912382  1.0000
  H   H16       1.0  0.5561798115478711  0.078002351066182  0.21845692858340027  1.0000
  H   H17       1.0  0.49773015583013364  0.022552671024087093  0.6149940803511599  1.0000
  H   H18       1.0  0.5022680317778382  0.9774529688446163  0.3850081115481387  1.0000
  H   H19       1.0  0.2959951603443188  0.13009848285872036  0.6518740166066054  1.0000
  H   H20       1.0  0.7040044674095828  0.8699059186903496  0.3481334812776496  1.0000
  H   H21       1.0  0.3203133268616157  0.3503460146441101  0.9172703760423107  1.0000
  H   H22       1.0  0.6796888632907498  0.6496560943381554  0.08273628854605165  1.0000
  H   H23       1.0  0.5468903673862756  0.3804597395172209  0.025717411086830618  1.0000
  H   H24       1.0  0.45311040557862026  0.6195423599422369  0.9742901342686497  1.0000
  H   H25       1.0  0.48700296144212996  0.13127788917758923  0.026439927507873117  1.0000
  H   H26       1.0  0.5129919008201896  0.8687230777419189  0.9735677899466569  1.0000
  H   H27       1.0  0.2893703580016975  0.2411866928924553  0.08800218509033193  1.0000
  H   H28       1.0  0.7106238578758522  0.7588109446627982  0.911998340772364  1.0000
  H   H29       1.0  0.6818170998607016  0.4264105715082279  0.8585646039946513  1.0000
  H   H30       1.0  0.31818544174149127  0.5735938030683271  0.14144399367181387  1.0000
  H   H31       1.0  0.49070324528800313  0.3576521721184918  0.7115959230263728  1.0000
  H   H32       1.0  0.5092996212729021  0.642354483391735  0.28841365394604435  1.0000
  H   H33       1.0  0.7120201941465325  0.1495751263214871  0.5744593238154395  1.0000
  H   H34       1.0  0.2879753480569748  0.8504316196290631  0.42554607304322906  1.0000
  H   H35       1.0  0.788199029805128  0.3403442361506351  0.6131818518042139  1.0000
  H   H36       1.0  0.21180397274401497  0.6596635751658013  0.3868272610490352  1.0000
  H   H37       1.0  0.18763361309095933  0.9797707014558766  0.9164459127094277  1.0000
  H   H38       1.0  0.8123677946883989  0.020226922355917096  0.08355402440627563  1.0000
  H   H39       1.0  0.9977592359126891  0.36279083992924654  0.8138613684131146  1.0000
  H   H40       1.0  0.002244866720715784  0.6372044146188783  0.18614250426744416  1.0000
  H   H41       1.0  0.0428275138087599  0.2177306597616138  0.6633358909735776  1.0000
  H   H42       1.0  0.9571724767831358  0.7822669545273727  0.3366649269092436  1.0000
  C   C1        1.0  0.789478394573621  0.81618655193666  0.6233057092444982  1.0000
  C   C2        1.0  0.21053896863853086  0.18380562186901273  0.3766726264515513  1.0000
  C   C3        1.0  0.6474630350195697  0.6747809696472729  0.5780246901578394  1.0000
  C   C4        1.0  0.3525289618716983  0.32521465356023066  0.421958569267325  1.0000
  C   C5        1.0  0.9164896984408489  0.3284633780820841  0.12682711724331605  1.0000
  C   C6        1.0  0.08351180373266943  0.6715263793602945  0.8731618351293806  1.0000
  C   C7        1.0  0.8539688578310847  0.3851488480355201  0.27501161092013865  1.0000
  C   C8        1.0  0.14602737216912232  0.6148533915886247  0.724988085243048  1.0000
  C   C9        1.0  0.32595085332873464  0.9789707607688811  0.7533611046147471  1.0000
  C   C10       1.0  0.6740539822280954  0.0210302421315376  0.24664235501425225  1.0000
  C   C11       1.0  0.4126175835777347  0.08777518610425972  0.7009867732011515  1.0000
  C   C12       1.0  0.5873832723931688  0.9122280998401564  0.29901840049085854  1.0000
  C   C13       1.0  0.4421175795764755  0.2917370134980574  0.9406308246183457  1.0000
  C   C14       1.0  0.5578797921020708  0.7082616915334088  0.05937415199598928  1.0000
  C   C15       1.0  0.36422550048865093  0.18165761548132053  0.9944871640936344  1.0000
  C   C16       1.0  0.6357719541958959  0.8183422760350966  0.005515440857230724  1.0000
  C   C17       1.0  0.6124457258385833  0.32318894675060506  0.7646443456221664  1.0000
  C   C18       1.0  0.38755681576360984  0.6768154278259504  0.23536425204429903  1.0000
  C   C19       1.0  0.762182011643205  0.26281611784772724  0.6623036584755156  1.0000
  C   C20       1.0  0.23781916928640362  0.7371894490303532  0.3377024945224464  1.0000
  N   N1        1.0  0.22540573370859118  0.05961563725792731  0.8803813224117506  1.0000
  N   N2        1.0  0.7745960520117168  0.9403842368087892  0.11962150155420662  1.0000
  N   N3        1.0  0.5412974510042617  0.21450527382409493  0.8148500510205496  1.0000
  N   N4        1.0  0.45870484864522626  0.7854980063037544  0.18515519567648656  1.0000
  N   N5        1.0  0.9476794279248825  0.25212765013838373  0.7384368509993211  1.0000
  N   N6        1.0  0.052320751637481115  0.7478710892780641  0.26156541030862723  1.0000
  O   O1        1.0  0.791138267158907  0.9156401666863945  0.7550587526136214  1.0000
  O   O2        1.0  0.2088707818989023  0.08435307510989531  0.2449263111102696  1.0000
  O   O3        1.0  0.8915792758235173  0.8305213145643008  0.536175075376292  1.0000
  O   O4        1.0  0.10843407856913251  0.1694591747580603  0.4638163394507659  1.0000
  O   O5        1.0  0.8756916242462227  0.18393212508055973  0.042904250217482315  1.0000
  O   O6        1.0  0.12431255353768486  0.8160746013099713  0.9571006308992198  1.0000
  O   O7        1.0  0.0009577444030738978  0.41901660556733594  0.08973138382039997  1.0000
  O   O8        1.0  0.9990365509478284  0.580980985969795  0.9102720033587419  1.0000
