data_image0
_chemical_formula_structural       Zn2H56C40N8O12
_chemical_formula_sum              "Zn2 H56 C40 N8 O12"
_cell_length_a       8.96893826458761
_cell_length_b       9.758727928302694
_cell_length_c       12.310659096001727
_cell_angle_alpha    90.00003830859745
_cell_angle_beta     90.00004266122238
_cell_angle_gamma    96.29080979872819

_space_group_name_H-M_alt    "P 1"
_space_group_IT_number       1

loop_
  _space_group_symop_operation_xyz
  'x, y, z'

loop_
  _atom_site_type_symbol
  _atom_site_label
  _atom_site_symmetry_multiplicity
  _atom_site_fract_x
  _atom_site_fract_y
  _atom_site_fract_z
  _atom_site_occupancy
  Zn  Zn1       1.0  0.9999987579044358  0.9999974026855651  1.3488300893999996e-06  1.0000
  Zn  Zn2       1.0  0.4999993698461225  0.9999994404328159  0.4999988129389477  1.0000
  H   H1        1.0  0.9149383950077379  0.09896138327776775  0.8192683512043784  1.0000
  H   H2        1.0  0.5850632641235621  0.901037869267057  0.31926843762256846  1.0000
  H   H3        1.0  0.08506451185520088  0.9010385756753789  0.18073225875561855  1.0000
  H   H4        1.0  0.4149385271689141  0.09896208444133948  0.6807313600329293  1.0000
  H   H5        1.0  0.08855855799455979  0.09488897585495688  0.7814886701490804  1.0000
  H   H6        1.0  0.4114435971109458  0.9051128063991879  0.2814873112721655  1.0000
  H   H7        1.0  0.9114433505370628  0.9051120087723061  0.21851275211510304  1.0000
  H   H8        1.0  0.5885583114192839  0.09488817822690977  0.7185116740794438  1.0000
  H   H9        1.0  0.19718313282461958  0.689018717864556  0.7068673447852518  1.0000
  H   H10       1.0  0.302817470259683  0.31097989494813305  0.20686479959297793  1.0000
  H   H11       1.0  0.802817425660102  0.31098019968177937  0.2931332651738287  1.0000
  H   H12       1.0  0.6971819726531905  0.6890190173522796  0.7931325611490291  1.0000
  H   H13       1.0  0.1966257710514157  0.8982836806572434  0.8248155935228423  1.0000
  H   H14       1.0  0.3033697398330233  0.1017181116111772  0.3248129376651717  1.0000
  H   H15       1.0  0.8033694440602018  0.10171727250383358  0.1751858287395222  1.0000
  H   H16       1.0  0.6966267080845086  0.8982838777104188  0.6751844230768426  1.0000
  H   H17       1.0  0.8599486222057424  0.7077833052391609  0.019284522578502092  1.0000
  H   H18       1.0  0.6400457683838638  0.29221356679948224  0.5192843894324994  1.0000
  H   H19       1.0  0.1400468878069532  0.29221043673848607  0.9807144627694553  1.0000
  H   H20       1.0  0.3599479794421683  0.707784288362191  0.4807154082202627  1.0000
  H   H21       1.0  0.947076617079496  0.3018071492824673  0.5380917542777154  1.0000
  H   H22       1.0  0.5529238416695037  0.6981938906563911  0.038091715688544484  1.0000
  H   H23       1.0  0.052922061979416006  0.6981948505290204  0.4619080433774838  1.0000
  H   H24       1.0  0.4470770685289551  0.3018081196434322  0.961907269663072  1.0000
  H   H25       1.0  0.1422192760091363  0.3197858605030461  0.5696333124206275  1.0000
  H   H26       1.0  0.3577805246236779  0.6802167393510246  0.06963261746486889  1.0000
  H   H27       1.0  0.8577794030497756  0.6802161393084345  0.43036648523456467  1.0000
  H   H28       1.0  0.6422193872429957  0.31978629662252434  0.9303663678867476  1.0000
  H   H29       1.0  0.8463879469573145  0.4899426521511856  0.9098452275877162  1.0000
  H   H30       1.0  0.6536103510797845  0.5100556404604362  0.40984514388617993  1.0000
  H   H31       1.0  0.1536123770500382  0.5100542035581839  0.09015375776236567  1.0000
  H   H32       1.0  0.3463878590267129  0.4899422356790806  0.590155466071991  1.0000
  H   H33       1.0  0.09977458687998109  0.3815732851899227  0.7467010098418638  1.0000
  H   H34       1.0  0.40022506310696576  0.6184263914344044  0.24670111746352313  1.0000
  H   H35       1.0  0.9002259716038168  0.618425632355631  0.2532979755088363  1.0000
  H   H36       1.0  0.5997756126155096  0.3815735570296325  0.7532986801916762  1.0000
  H   H37       1.0  0.9036638651823666  0.3839263867370235  0.7388283763971654  1.0000
  H   H38       1.0  0.5963365870356441  0.6160727835503507  0.23882831782560024  1.0000
  H   H39       1.0  0.09633780887188692  0.6160725360532807  0.2611714212580267  1.0000
  H   H40       1.0  0.4036638542104  0.38392510307750155  0.7611714798289878  1.0000
  H   H41       1.0  0.5430056386922644  0.926846513349453  0.10467472369757758  1.0000
  H   H42       1.0  0.9569962457115654  0.07315665741668201  0.6046754587271861  1.0000
  H   H43       1.0  0.45699650431487265  0.07315653311322019  0.8953250739588368  1.0000
  H   H44       1.0  0.0430048989642486  0.9268474147201002  0.3953251512334218  1.0000
  H   H45       1.0  0.5341810690751815  0.10519557128746726  0.0922893014254953  1.0000
  H   H46       1.0  0.9658198029315344  0.8948086132936696  0.5922880400309721  1.0000
  H   H47       1.0  0.4658188427928778  0.8948074646872543  0.9077121208386952  1.0000
  H   H48       1.0  0.034181341743817505  0.10519545884272931  0.4077117576254422  1.0000
  H   H49       1.0  0.9069358672772058  0.6579059837663336  0.6290357906177418  1.0000
  H   H50       1.0  0.5930649292187197  0.3420972050778203  0.12903477268340413  1.0000
  H   H51       1.0  0.0930651601608474  0.34209705745274727  0.3709656316467543  1.0000
  H   H52       1.0  0.4069372137874936  0.6579058413840713  0.8709634003646298  1.0000
  H   H53       1.0  0.8046404985002128  0.5068513572731134  0.5753627232654137  1.0000
  H   H54       1.0  0.6953591214766847  0.4931517749395125  0.07536021634647477  1.0000
  H   H55       1.0  0.1953582977983075  0.493151673457632  0.424639511302665  1.0000
  H   H56       1.0  0.3046407903890653  0.5068512610332618  0.9246371443967544  1.0000
  C   C1        1.0  0.31980678881831176  0.9887701713128364  0.08970066405129268  1.0000
  C   C2        1.0  0.18019503126569703  0.011230396406418201  0.589700403697023  1.0000
  C   C3        1.0  0.6801948852368724  0.011228751478242299  0.9103007582122867  1.0000
  C   C4        1.0  0.819805761695001  0.9887705829757039  0.4102993939584818  1.0000
  C   C5        1.0  0.12319877057863245  0.6882217062394247  0.7770731512718921  1.0000
  C   C6        1.0  0.37679833104063937  0.3117748962184733  0.2770698343539378  1.0000
  C   C7        1.0  0.8768004378605668  0.31177514422714125  0.22292908329465885  1.0000
  C   C8        1.0  0.6231986462553323  0.6882219437566447  0.7229267140826606  1.0000
  C   C9        1.0  0.1227139070444281  0.8045221267685249  0.8418048907970002  1.0000
  C   C10       1.0  0.3772859681739576  0.19547867182480866  0.34180232477739725  1.0000
  C   C11       1.0  0.8772856531089773  0.19547781645191975  0.15819653146627388  1.0000
  C   C12       1.0  0.6227147075471323  0.8045212766380556  0.6581950359652211  1.0000
  C   C13       1.0  0.9340893378437799  0.6973618628348817  0.9503281104407217  1.0000
  C   C14       1.0  0.5659080078306644  0.302637494207822  0.4503262445394751  1.0000
  C   C15       1.0  0.06590887226271751  0.30263601330463524  0.04967249951744178  1.0000
  C   C16       1.0  0.4340880883722065  0.6973614023595048  0.5496711162016155  1.0000
  C   C17       1.0  0.0503801086847133  0.37611289842381257  0.5400191284731902  1.0000
  C   C18       1.0  0.449620656653039  0.6238886474051667  0.04002089040994149  1.0000
  C   C19       1.0  0.9496195687045983  0.6238880757127773  0.459978232269428  1.0000
  C   C20       1.0  0.5503813691167992  0.3761133681401887  0.9599805318545546  1.0000
  C   C21       1.0  0.9284019563987442  0.5767594963278241  0.8894913667044758  1.0000
  C   C22       1.0  0.5715937356704545  0.4232356735536341  0.3894903801449486  1.0000
  C   C23       1.0  0.07159590199309208  0.423235287057416  0.11050924325277829  1.0000
  C   C24       1.0  0.4284018915804566  0.5767590993420979  0.6105086052033142  1.0000
  C   C25       1.0  0.022483307978923495  0.5716289835443789  0.7995235563067308  1.0000
  C   C26       1.0  0.4775177520363485  0.42837281073223465  0.299522792796182  1.0000
  C   C27       1.0  0.9775197161217762  0.42837200632646943  0.20047624134937783  1.0000
  C   C28       1.0  0.5224841564938886  0.5716281738938633  0.7004761925554277  1.0000
  C   C29       1.0  0.012331327540991298  0.4482596944017627  0.7253105974821352  1.0000
  C   C30       1.0  0.4876682981557252  0.5517399617430526  0.22530990490023572  1.0000
  C   C31       1.0  0.9876692309432687  0.5517392231441818  0.27468920017275866  1.0000
  C   C32       1.0  0.5123323775658264  0.4482599867202026  0.774688268146569  1.0000
  C   C33       1.0  0.4858323423759075  0.0039449084682772  0.061134958751850384  1.0000
  C   C34       1.0  0.014168681415362962  0.9960587194123671  0.5611351305079777  1.0000
  C   C35       1.0  0.5141688022994515  0.9960591636681143  0.938864838904564  1.0000
  C   C36       1.0  0.9858324632599962  0.003945352724031201  0.43886466714843647  1.0000
  C   C37       1.0  0.915435778972757  0.5704553981012237  0.5741816799016133  1.0000
  C   C38       1.0  0.5845649552338799  0.4295477382257715  0.07418070372625607  1.0000
  C   C39       1.0  0.08456413289483318  0.42954763787310657  0.4258189300583836  1.0000
  C   C40       1.0  0.41543607220233275  0.5704553029917604  0.9258174693214652  1.0000
  N   N1        1.0  0.028060170558397605  0.8099018582001987  0.926136663224902  1.0000
  N   N2        1.0  0.471932638050113  0.19009486599401984  0.42613495803008306  1.0000
  N   N3        1.0  0.9719344583621208  0.1900939403704314  0.07386475903594199  1.0000
  N   N4        1.0  0.5280609925367798  0.8099019582487798  0.5738632150139864  1.0000
  N   N5        1.0  0.034169648606585695  0.49137394193066075  0.6127488105373897  1.0000
  N   N6        1.0  0.4658311993175844  0.5086276735283305  0.11274808324062487  1.0000
  N   N7        1.0  0.9658312615923352  0.5086280683695534  0.3872509871184135  1.0000
  N   N8        1.0  0.5341695936421901  0.4913733058530098  0.8872500898064927  1.0000
  O   O1        1.0  0.2334202761307367  0.03777118403377949  0.021366922850440093  1.0000
  O   O2        1.0  0.266579117978864  0.9622282768559882  0.5213664013683397  1.0000
  O   O3        1.0  0.7665789323080006  0.9622256664323883  0.9786344994119245  1.0000
  O   O4        1.0  0.7334193266036094  0.03777166111931509  0.4786333962862485  1.0000
  O   O5        1.0  0.27797923280564163  0.9301260149579704  0.17921330998246524  1.0000
  O   O6        1.0  0.2220236872562751  0.0698736127871342  0.6792139157330295  1.0000
  O   O7        1.0  0.7220234395813209  0.0698718821593829  0.8207881122811143  1.0000
  O   O8        1.0  0.777980217938449  0.9301253204922801  0.32078669422696743  1.0000
  O   O9        1.0  0.022130664880293704  0.11440922658079697  0.8431815361326185  1.0000
  O   O10       1.0  0.47787032747249475  0.8855915785758766  0.3431810152641147  1.0000
  O   O11       1.0  0.9778711264131063  0.8855907271283741  0.15681988613126654  1.0000
  O   O12       1.0  0.5221315810582042  0.11440940605060489  0.6568187823916884  1.0000
