data_image0
_chemical_formula_structural       In2H50C22S4N4
_chemical_formula_sum              "In2 H50 C22 S4 N4"
_cell_length_a       8.459585877109712
_cell_length_b       9.492893826918902
_cell_length_c       10.273249252422263
_cell_angle_alpha    77.56612196635362
_cell_angle_beta     69.70655343568464
_cell_angle_gamma    86.74405502896643

_space_group_name_H-M_alt    "P 1"
_space_group_IT_number       1

loop_
  _space_group_symop_operation_xyz
  'x, y, z'

loop_
  _atom_site_type_symbol
  _atom_site_label
  _atom_site_symmetry_multiplicity
  _atom_site_fract_x
  _atom_site_fract_y
  _atom_site_fract_z
  _atom_site_occupancy
  In  In1       1.0  0.21468940841409528  0.15199880285433656  0.340790355179422  1.0000
  In  In2       1.0  0.7853015039463003  0.8480132566322779  0.6592100365481882  1.0000
  H   H1        1.0  0.993072987465375  0.4161909306007131  0.9048197163548863  1.0000
  H   H2        1.0  0.006946821219315797  0.5837945054592307  0.09516223373926644  1.0000
  H   H3        1.0  0.9759036866074452  0.284564708902728  0.8081426487184231  1.0000
  H   H4        1.0  0.024109675143392892  0.7154098608376315  0.1918471211327528  1.0000
  H   H5        1.0  0.16558271339266636  0.3018482881754423  0.8429659308357884  1.0000
  H   H6        1.0  0.8344292954582924  0.6981251565871245  0.1570322244937189  1.0000
  H   H7        1.0  0.7840706975907068  0.03065827991655819  0.12169419220040113  1.0000
  H   H8        1.0  0.2159200595910207  0.9693386714332415  0.8783101707161478  1.0000
  H   H9        1.0  0.8119958008808581  0.09540519479962477  0.9390030731868177  1.0000
  H   H10       1.0  0.18799622675927447  0.9045885491506591  0.060997668243516046  1.0000
  H   H11       1.0  0.6662949105039997  0.32378138669631795  0.9934230190895618  1.0000
  H   H12       1.0  0.33370724235606986  0.6762167700048705  0.006574030737624556  1.0000
  H   H13       1.0  0.5378521449706283  0.1697876911682242  0.0886983755300719  1.0000
  H   H14       1.0  0.46214625779063556  0.8302168893873371  0.9113013861035597  1.0000
  H   H15       1.0  0.650692466668353  0.1749915753090292  0.2934580394727177  1.0000
  H   H16       1.0  0.34930471683686176  0.8250151592660299  0.7065396946848352  1.0000
  H   H17       1.0  0.7319129502638474  0.3495043846172761  0.20185065963198667  1.0000
  H   H18       1.0  0.26808799387647037  0.6504991541618705  0.7981456754109714  1.0000
  H   H19       1.0  0.31943629369172294  0.5133125927955007  0.26691568850817055  1.0000
  H   H20       1.0  0.6805647635745016  0.48669421649112365  0.7330721878547595  1.0000
  H   H21       1.0  0.43389032051484827  0.45747277144661763  0.10649931988224644  1.0000
  H   H22       1.0  0.5661144564430813  0.5425318996690079  0.8934918291911983  1.0000
  H   H23       1.0  0.5421261264005963  0.5481022684446442  0.18725789426225256  1.0000
  H   H24       1.0  0.4578749206991119  0.451905611201603  0.8127317225142149  1.0000
  H   H25       1.0  0.4726123607417632  0.23897512101701313  0.49496654907437687  1.0000
  H   H26       1.0  0.5273836138588024  0.7610348464269661  0.505028943746254  1.0000
  H   H27       1.0  0.3435648917876648  0.3936296894768957  0.48441336744765806  1.0000
  H   H28       1.0  0.6564361553120432  0.6063781901693512  0.5155762493288166  1.0000
  H   H29       1.0  0.5679539447261133  0.41440279464308816  0.42084076968735934  1.0000
  H   H30       1.0  0.4320445818822519  0.5856104336874635  0.5791533725108023  1.0000
  H   H31       1.0  0.9497049599751364  0.18586900181735186  0.5678919109760726  1.0000
  H   H32       1.0  0.050297203513686384  0.8141334575468162  0.43210721481931796  1.0000
  H   H33       1.0  0.09679196769393879  0.32312947719028523  0.5385498715709358  1.0000
  H   H34       1.0  0.9032126962305326  0.6768729980223822  0.46145049945888433  1.0000
  H   H35       1.0  0.8262905002010397  0.4227986860540226  0.4959686331835797  1.0000
  H   H36       1.0  0.17371548603132678  0.5772070506107737  0.5040278103321825  1.0000
  H   H37       1.0  0.8693206039399541  0.3255850030433292  0.3586126555659561  1.0000
  H   H38       1.0  0.13068410120526153  0.6744196383579887  0.6413853334678095  1.0000
  H   H39       1.0  0.0057404655823419  0.4684070243553504  0.34027747278822307  1.0000
  H   H40       1.0  0.9942629584757154  0.5315965217824895  0.6597220617635455  1.0000
  H   H41       1.0  0.486037947678298  0.9962207701641431  0.3699800886098714  1.0000
  H   H42       1.0  0.5139463845666513  0.0037825170281990997  0.6300423522109141  1.0000
  H   H43       1.0  0.29725509439291653  0.8956586500175164  0.46631550834743496  1.0000
  H   H44       1.0  0.7027256006942365  0.10435218232764495  0.5336996590470733  1.0000
  H   H45       1.0  0.48619863086300097  0.7794908748956856  0.2638630671810276  1.0000
  H   H46       1.0  0.513799422446496  0.2205060391015649  0.7361645741825811  1.0000
  H   H47       1.0  0.47265029967008587  0.9361765775931232  0.13979939528262975  1.0000
  H   H48       1.0  0.5273515965310834  0.06381932377647809  0.8602205564215736  1.0000
  H   H49       1.0  0.28954493877221665  0.8302460142398614  0.24430007827836414  1.0000
  H   H50       1.0  0.710450685729448  0.16974876441416598  0.7557179513377932  1.0000
  C   C1        1.0  0.03827434142115748  0.1699174415989333  0.11418134879232868  1.0000
  C   C2        1.0  0.9617239474746241  0.8300752716129761  0.8858207653105482  1.0000
  C   C3        1.0  0.0277058171507036  0.3067852026588864  0.885974447707575  1.0000
  C   C4        1.0  0.972302513321736  0.6931936210678484  0.11401881619170949  1.0000
  C   C5        1.0  0.8009016754196168  0.12819876667663269  0.03805826163768702  1.0000
  C   C6        1.0  0.19909664443794378  0.8717961084790241  0.9619424476063185  1.0000
  C   C7        1.0  0.6513790065071915  0.22800367850454947  0.07924612468170986  1.0000
  C   C8        1.0  0.3486231774995475  0.7719987893494247  0.9207510468393066  1.0000
  C   C9        1.0  0.6313990769720731  0.27048053371282066  0.2189136203653277  1.0000
  C   C10       1.0  0.3686018566319404  0.7295197770078586  0.781081401985773  1.0000
  C   C11       1.0  0.4397075904300464  0.4697870722787697  0.20826841781666863  1.0000
  C   C12       1.0  0.5602959569204201  0.5302186740069316  0.7917209176415341  1.0000
  C   C13       1.0  0.46223582899708043  0.34506980118639763  0.43037205199343725  1.0000
  C   C14       1.0  0.5377626972414973  0.6549391287260702  0.5696190370993293  1.0000
  C   C15       1.0  0.0317237541069346  0.27051239456611126  0.4856259403435175  1.0000
  C   C16       1.0  0.9682809098175367  0.729490080646556  0.5143744306863027  1.0000
  C   C17       1.0  0.9283914786499706  0.37733649838372674  0.41660439648403264  1.0000
  C   C18       1.0  0.07161444565884519  0.6226649143935672  0.5833948567494572  1.0000
  C   C19       1.0  0.36906885976623016  0.9606679693887867  0.3616351062033161  1.0000
  C   C20       1.0  0.6309130133562489  0.039338542748225784  0.6383844706633326  1.0000
  C   C21       1.0  0.40647617400794894  0.8727682185402156  0.24674095871854726  1.0000
  C   C22       1.0  0.5935220023166182  0.12722767179133845  0.7532741937224472  1.0000
  S   S1        1.0  0.9653775478678525  0.039049024643006185  0.26555187609710634  1.0000
  S   S2        1.0  0.0346131786294421  0.9609489885766037  0.7344561815073618  1.0000
  S   S3        1.0  0.21673200331715492  0.27036251636570796  0.08359288658921571  1.0000
  S   S4        1.0  0.7832726184621136  0.7296270466131032  0.9164022336731674  1.0000
  N   N1        1.0  0.9620921051226574  0.19668472515225224  0.01589462915348606  1.0000
  N   N2        1.0  0.0379074439725784  0.8033047764152454  0.9841048406003594  1.0000
  N   N3        1.0  0.4662114135184011  0.329234036000173  0.2900916114293679  1.0000
  N   N4        1.0  0.5337883320686742  0.6707738144973161  0.7099022684158314  1.0000
