data_image0
_chemical_formula_structural       Cu2H8C12S2N4Cl4
_chemical_formula_sum              "Cu2 H8 C12 S2 N4 Cl4"
_cell_length_a       3.7253936015234332
_cell_length_b       8.756050101210823
_cell_length_c       12.38766075381224
_cell_angle_alpha    89.9967271729162
_cell_angle_beta     89.99926746599061
_cell_angle_gamma    99.90409901996304

_space_group_name_H-M_alt    "P 1"
_space_group_IT_number       1

loop_
  _space_group_symop_operation_xyz
  'x, y, z'

loop_
  _atom_site_type_symbol
  _atom_site_label
  _atom_site_symmetry_multiplicity
  _atom_site_fract_x
  _atom_site_fract_y
  _atom_site_fract_z
  _atom_site_occupancy
  Cu  Cu1       1.0  0.4999825548869056  0.49999862880383716  7.304127364999968e-07  1.0000
  Cu  Cu2       1.0  0.5000021640226039  0.5000000136402108  0.4999998928692052  1.0000
  H   H1        1.0  0.6083940958677516  0.9064670332084217  0.8493926336214912  1.0000
  H   H2        1.0  0.3916287480756326  0.09353485121518193  0.34941143396078905  1.0000
  H   H3        1.0  0.3916172907450459  0.0935226586484745  0.15060553777951927  1.0000
  H   H4        1.0  0.6083776440476784  0.9064709716815644  0.6505851226395407  1.0000
  H   H5        1.0  0.5040425743124501  0.1393145361318204  0.9538979684096136  1.0000
  H   H6        1.0  0.4959902806930715  0.860695615209366  0.45390681773121616  1.0000
  H   H7        1.0  0.49593586160320063  0.8606806380319229  0.046100203005337924  1.0000
  H   H8        1.0  0.5039999507292876  0.1393100630065405  0.5460929679498535  1.0000
  C   C1        1.0  0.5615148570459709  0.010762617808602201  0.8074439999205442  1.0000
  C   C2        1.0  0.4385185630899359  0.9892753882272204  0.30743380989682834  1.0000
  C   C3        1.0  0.43849816029723615  0.9892467304103153  0.19255578560802186  1.0000
  C   C4        1.0  0.5615050318155709  0.010725966741191  0.6925667830015316  1.0000
  C   C5        1.0  0.506307618732123  0.13816474227901673  0.86628741379338  1.0000
  C   C6        1.0  0.4936726388882634  0.8618687883083639  0.36630027144769883  1.0000
  C   C7        1.0  0.49370954714792964  0.8618411769769452  0.13370914276621454  1.0000
  C   C8        1.0  0.5063364466577767  0.1381370586426769  0.6336970923973626  1.0000
  C   C9        1.0  0.4587723993519077  0.2720600231987476  0.8082094885509364  1.0000
  C   C10       1.0  0.541274476956751  0.7279630153512145  0.3082117928982201  1.0000
  C   C11       1.0  0.5412143130921905  0.7279433128796383  0.19178706816803276  1.0000
  C   C12       1.0  0.4587228130661175  0.27203232751216433  0.6917847639356297  1.0000
  S   S1        1.0  0.36976446094075754  0.5308277355657154  0.7500058119101427  1.0000
  S   S2        1.0  0.6302278547922244  0.46916871775138  0.2500012392342654  1.0000
  N   N1        1.0  0.41374764038994266  0.411980384773976  0.8485802118005098  1.0000
  N   N2        1.0  0.5862487159190125  0.5880224910886654  0.3485584889727563  1.0000
  N   N3        1.0  0.5862293403951214  0.5880182423715326  0.15142280308305092  1.0000
  N   N4        1.0  0.4137502251326169  0.4119774877636289  0.6514469475704063  1.0000
  Cl  Cl1       1.0  0.9537114597279271  0.6849842382819845  0.9342809042443889  1.0000
  Cl  Cl2       1.0  0.046292804788457424  0.3150054237542933  0.4342735340097121  1.0000
  Cl  Cl3       1.0  0.046294127039459496  0.315004245945417  0.06572533974980391  1.0000
  Cl  Cl4       1.0  0.9537123488781133  0.6849969217513561  0.5657254444264127  1.0000
