data_image0
_chemical_formula_structural       Zn2H34C44N10O12
_chemical_formula_sum              "Zn2 H34 C44 N10 O12"
_cell_length_a       9.36630134670817
_cell_length_b       10.138544254057047
_cell_length_c       12.1536
_cell_angle_alpha    103.11086030773703
_cell_angle_beta     108.92543753189108
_cell_angle_gamma    98.65177716424037

_space_group_name_H-M_alt    "P 1"
_space_group_IT_number       1

loop_
  _space_group_symop_operation_xyz
  'x, y, z'

loop_
  _atom_site_type_symbol
  _atom_site_label
  _atom_site_symmetry_multiplicity
  _atom_site_fract_x
  _atom_site_fract_y
  _atom_site_fract_z
  _atom_site_occupancy
  Zn  Zn1       1.0  0.21457917162926773  0.9218371454825415  0.8300491855385488  1.0000
  Zn  Zn2       1.0  0.7854205900870213  0.0781628644360737  0.16995059221803635  1.0000
  H   H1        1.0  0.1851332914115531  0.3609457174332533  0.04683662420691798  1.0000
  H   H2        1.0  0.8148661873905283  0.6390532484205949  0.9531637080706118  1.0000
  H   H3        1.0  0.4171841207784156  0.4223722237144045  0.2426988851633283  1.0000
  H   H4        1.0  0.5828156409378736  0.5776277862042107  0.757300892593257  1.0000
  H   H5        1.0  0.6365963940434725  0.6255514029022251  0.2874377650695052  1.0000
  H   H6        1.0  0.3634030847586089  0.3744475629516231  0.7125617444065568  1.0000
  H   H7        1.0  0.3100533579406104  0.6674110914552784  0.6751132008101806  1.0000
  H   H8        1.0  0.6899464037756787  0.3325889184633368  0.3248865769464047  1.0000
  H   H9        1.0  0.9796956249043376  0.897112647823981  0.5614095925848445  1.0000
  H   H10       1.0  0.0203038538977438  0.1028863180298742  0.43858991689121746  1.0000
  H   H11       1.0  0.9691882403188784  0.6997154992950456  0.35712271685825664  1.0000
  H   H12       1.0  0.0308115213974105  0.3002845106235696  0.6428778836998035  1.0000
  H   H13       1.0  0.1498027906632302  0.5453296427530248  0.3259510504691931  1.0000
  H   H14       1.0  0.8501966881388441  0.4546693231008305  0.6740484590068689  1.0000
  H   H15       1.0  0.1011599353754278  0.4348989127438969  0.4083705512230437  1.0000
  H   H16       1.0  0.8988395434266536  0.5651000531099584  0.5916289582530181  1.0000
  H   H17       1.0  0.277698708410071  0.2985075123965188  0.4451642474376456  1.0000
  H   H18       1.0  0.7223007703920103  0.7014914534573364  0.5548360848398843  1.0000
  H   H19       1.0  0.4543671462928245  0.7335285807177101  0.4910960012640686  1.0000
  H   H20       1.0  0.5456337440951131  0.2664714292009052  0.5089040586086071  1.0000
  H   H21       1.0  0.9848685610600967  0.135178197092479  0.787592647811877  1.0000
  H   H22       1.0  0.015130354898758492  0.8648228568908963  0.21240711610914084  1.0000
  H   H23       1.0  0.9406902241140074  0.7614312115156139  0.8826271320439716  1.0000
  H   H24       1.0  0.0593084089306402  0.2385687984030014  0.11737236359652312  1.0000
  H   H25       1.0  0.6585641226373795  0.8436074609016231  0.8432333119008462  1.0000
  H   H26       1.0  0.3414356390789095  0.1563925490169922  0.1567664658557391  1.0000
  H   H27       1.0  0.7266810503509048  0.1972635082392387  0.7963357416666312  1.0000
  H   H28       1.0  0.2733175826937355  0.8027365016793766  0.20366457677533137  1.0000
  H   H29       1.0  0.5878443192751419  0.0709984920306397  0.8114500642236564  1.0000
  H   H30       1.0  0.4121554424411471  0.9290015178879756  0.1885497135329288  1.0000
  H   H31       1.0  0.7855254307525072  0.0274589032735193  0.5813340694882071  1.0000
  H   H32       1.0  0.2144740480495742  0.972540062580336  0.4186654399878549  1.0000
  H   H33       1.0  0.3571201406594184  0.039034449303692  0.6395928319483488  1.0000
  H   H34       1.0  0.642879338142663  0.9609645165501632  0.36040667752771327  1.0000
  C   C1        1.0  0.5244858160207997  0.6817377481366123  0.12730927207974221  1.0000
  C   C2        1.0  0.47551394569548927  0.318262261782003  0.872691328478318  1.0000
  C   C3        1.0  0.3931415956768589  0.6515454833129013  0.019587384164395934  1.0000
  C   C4        1.0  0.6068592947110716  0.348454526605714  0.9804126757082798  1.0000
  C   C5        1.0  0.2748363381011458  0.5329063161350902  0.9944411414041028  1.0000
  C   C6        1.0  0.7251634236151432  0.46709369378352517  0.0055586363524823676  1.0000
  C   C7        1.0  0.2807002967093553  0.4515110271919909  0.0734705675633478  1.0000
  C   C8        1.0  0.7192994650069338  0.5484889827266244  0.9265300329947123  1.0000
  C   C9        1.0  0.4099021140152886  0.48539301688903447  0.18057760026523792  1.0000
  C   C10       1.0  0.5900976477010005  0.5146069930295809  0.8194230002928221  1.0000
  C   C11       1.0  0.5320824434060967  0.5985894744560127  0.205665818123272  1.0000
  C   C12       1.0  0.46791816406762626  0.4014094913978354  0.7943339734688806  1.0000
  C   C13       1.0  0.6582085636881274  0.8068574252999312  0.16604158687403728  1.0000
  C   C14       1.0  0.3417923266998031  0.1931425846186841  0.8339592958001133  1.0000
  C   C15       1.0  0.37317292066006763  0.7475618552005798  0.9391293658149138  1.0000
  C   C16       1.0  0.626827969727863  0.2524381547180354  0.06087069405776192  1.0000
  C   C17       1.0  0.21895607861885943  0.7026367925026236  0.6165455692359529  1.0000
  C   C18       1.0  0.7810436830974298  0.2973632174159917  0.3834542085206323  1.0000
  C   C19       1.0  0.0458012308284879  0.8187357501114434  0.5542904092999805  1.0000
  C   C20       1.0  0.9541971193019448  0.1812632157424119  0.4457096408614589  1.0000
  C   C21       1.0  0.040653101771560805  0.7224510535796114  0.4524824347271235  1.0000
  C   C22       1.0  0.9593466599447281  0.2775489563390039  0.5475173430294616  1.0000
  C   C23       1.0  0.18118727428646514  0.5312243278014961  0.4171200783002789  1.0000
  C   C24       1.0  0.8188133331872578  0.4687746380523592  0.5828797132918736  1.0000
  C   C25       1.0  0.3468072391126498  0.5179406918186444  0.4639315387009049  1.0000
  C   C26       1.0  0.6531936512752806  0.4820593180999708  0.5360693439732458  1.0000
  C   C27       1.0  0.3753411978395107  0.3872937357986714  0.4692782357988321  1.0000
  C   C28       1.0  0.6246582809625636  0.6127052300551767  0.5307212736772299  1.0000
  C   C29       1.0  0.4734007724656947  0.6308792653890976  0.4952198568046384  1.0000
  C   C30       1.0  0.5266001179222428  0.3691207445295177  0.5047802030680373  1.0000
  C   C31       1.0  0.9341329781709717  0.04345710764082611  0.8064137738962742  1.0000
  C   C32       1.0  0.06586678354531737  0.9565429022777893  0.19358682666178592  1.0000
  C   C33       1.0  0.9051892714123966  0.8494646642234684  0.85505109012324  1.0000
  C   C34       1.0  0.0948090787180362  0.1505343016303868  0.1449489600382066  1.0000
  C   C35       1.0  0.7665446262681854  0.8881065451761714  0.8352106749980521  1.0000
  C   C36       1.0  0.2334551354481036  0.11189346474244391  0.16478992556000793  1.0000
  C   C37       1.0  0.6682717226537775  0.0855412701179716  0.7644007143504439  1.0000
  C   C38       1.0  0.3317280390625115  0.9144587398006436  0.23560070900909122  1.0000
  C   C39       1.0  0.5822269931356915  0.0387306264575855  0.6275314117446413  1.0000
  C   C40       1.0  0.41777276858059764  0.9612693834610299  0.37246918881341173  1.0000
  C   C41       1.0  0.6598256771371284  0.0150021665831659  0.5466296346237485  1.0000
  C   C42       1.0  0.34017521325080935  0.9849978433354495  0.4533720708518701  1.0000
  C   C43       1.0  0.4209152788865396  0.022957940079138  0.5789751564825281  1.0000
  C   C44       1.0  0.579085611501398  0.9770420698394773  0.4210257261916226  1.0000
  N   N1        1.0  0.1392612810649894  0.4884876248473162  0.8808715746272782  1.0000
  N   N2        1.0  0.8607396093229481  0.511512385071299  0.11912848524539756  1.0000
  N   N3        1.0  0.1574196537279349  0.8055011851724672  0.6557765916570588  1.0000
  N   N4        1.0  0.8425801079883541  0.1944988247461481  0.3442231860995264  1.0000
  N   N5        1.0  0.15121012944526774  0.6501725381492278  0.4936430508552477  1.0000
  N   N6        1.0  0.8487904780284552  0.3498264277046275  0.506356740736905  1.0000
  N   N7        1.0  0.008282693144558094  0.9469155810958512  0.8366693580250911  1.0000
  N   N8        1.0  0.9917167856575232  0.0530833847580041  0.16333015145097113  1.0000
  N   N9        1.0  0.7875151637475994  0.0107183688595427  0.8042675910607001  1.0000
  N   N10       1.0  0.21248459796868963  0.9892816410590726  0.19573218669588502  1.0000
  O   O1        1.0  0.791264425340522  0.8043005106947234  0.23192678372613068  1.0000
  O   O2        1.0  0.20873561928997472  0.1957005432886518  0.7680749079139275  1.0000
  O   O3        1.0  0.6206223074013906  0.9117493917400026  0.12982828118360604  1.0000
  O   O4        1.0  0.3793771714006838  0.0882495741138456  0.870170405490981  1.0000
  O   O5        1.0  0.44911846213342704  0.7539452671630968  0.872654497221589  1.0000
  O   O6        1.0  0.5508810166686474  0.24605369869075133  0.12734501225447303  1.0000
  O   O7        1.0  0.2689625487780489  0.8152924245222408  0.9480379336926745  1.0000
  O   O8        1.0  0.73103721293824  0.1847075853963744  0.051962666865385546  1.0000
  O   O9        1.0  0.15108695530016547  0.5287759959316674  0.794208294747456  1.0000
  O   O10       1.0  0.8489130893303313  0.4712250580517079  0.20579175128965232  1.0000
  O   O11       1.0  0.018576446049245  0.4108248674328365  0.874841329860537  1.0000
  O   O12       1.0  0.9814244443386854  0.5891751424857787  0.1251587300121387  1.0000
