data_image0
_chemical_formula_structural       Cu4H32C40I4N8
_chemical_formula_sum              "Cu4 H32 C40 I4 N8"
_cell_length_a       9.452016579179409
_cell_length_b       9.496186561011
_cell_length_c       12.169454351587175
_cell_angle_alpha    90.00014897202513
_cell_angle_beta     111.87706537963376
_cell_angle_gamma    89.99986510775956

_space_group_name_H-M_alt    "P 1"
_space_group_IT_number       1

loop_
  _space_group_symop_operation_xyz
  'x, y, z'

loop_
  _atom_site_type_symbol
  _atom_site_label
  _atom_site_symmetry_multiplicity
  _atom_site_fract_x
  _atom_site_fract_y
  _atom_site_fract_z
  _atom_site_occupancy
  Cu  Cu1       1.0  0.43622730492757716  0.12675327680788942  0.4833849291293646  1.0000
  Cu  Cu2       1.0  0.06377379845541502  0.6267568063224119  0.016615841914557408  1.0000
  Cu  Cu3       1.0  0.5637753189758783  0.8732412566808351  0.5166162119311579  1.0000
  Cu  Cu4       1.0  0.9362276853643721  0.3732461516014071  0.9833849701005449  1.0000
  H   H1        1.0  0.37037391701669264  0.28815245071692175  0.8646840893277241  1.0000
  H   H2        1.0  0.1296271070375141  0.7881530591083037  0.6353123010859392  1.0000
  H   H3        1.0  0.6296252829109646  0.7118473480415304  0.1353135983108444  1.0000
  H   H4        1.0  0.8703743693032281  0.21184568659026587  0.364683578386078  1.0000
  H   H5        1.0  0.4630386596712058  0.1927161947494938  0.2568908646931902  1.0000
  H   H6        1.0  0.0369566322985335  0.692717370714121  0.243106721254108  1.0000
  H   H7        1.0  0.5369594039201004  0.8072846570680667  0.7431089601640152  1.0000
  H   H8        1.0  0.9630402912160392  0.3072834811042143  0.7568927745510193  1.0000
  H   H9        1.0  0.3649018180763477  0.31574117208581504  0.0685074278213094  1.0000
  H   H10       1.0  0.1350966879522346  0.8157437935830956  0.431488873624467  1.0000
  H   H11       1.0  0.6350973818513097  0.68425862667263  0.9314902598172665  1.0000
  H   H12       1.0  0.8649013694036469  0.18425705822772195  0.5685068407829377  1.0000
  H   H13       1.0  0.7697972757897631  0.5476689526775476  0.31887289464774676  1.0000
  H   H14       1.0  0.7302060680407293  0.047673329787912215  0.18112583158931977  1.0000
  H   H15       1.0  0.2302053468648779  0.45232768691840874  0.6811274243244796  1.0000
  H   H16       1.0  0.26979313188779497  0.9523254159162493  0.8188718560484176  1.0000
  H   H17       1.0  0.8518461241134715  0.3864355112600749  0.1943483095432725  1.0000
  H   H18       1.0  0.648153245811656  0.8864397955141854  0.3056524316960392  1.0000
  H   H19       1.0  0.1481530820522181  0.6135611283422479  0.805653488542596  1.0000
  H   H20       1.0  0.3518459591017447  0.11356316241253242  0.6943485443048659  1.0000
  H   H21       1.0  0.6169144454584553  0.3201365374672065  0.8359953767497144  1.0000
  H   H22       1.0  0.8830886425262747  0.8201345498148671  0.6640032550012764  1.0000
  H   H23       1.0  0.38308703586716325  0.6798664204539194  0.1640037910854701  1.0000
  H   H24       1.0  0.1169162590330188  0.17986419588677197  0.33599689998681725  1.0000
  H   H25       1.0  0.6273996407787833  0.37665249148549423  0.5895880179778459  1.0000
  H   H26       1.0  0.872601075304118  0.8766534433256156  0.910410867162831  1.0000
  H   H27       1.0  0.37260070296600384  0.6233483603305174  0.41041246498351563  1.0000
  H   H28       1.0  0.1274015460991009  0.12334846154044501  0.08958862972360039  1.0000
  H   H29       1.0  0.7743892820835613  0.5547089577105595  0.5273917320947419  1.0000
  H   H30       1.0  0.7256108249049333  0.05471009043120031  0.9726071368073261  1.0000
  H   H31       1.0  0.22561220049174582  0.44529084104903666  0.4726082578279076  1.0000
  H   H32       1.0  0.27438609611719766  0.9452886552758604  0.02739071481621379  1.0000
  C   C1        1.0  0.4742199516128664  0.3103676886921889  0.9404037935399001  1.0000
  C   C2        1.0  0.0257810408769501  0.810367234702568  0.5595959203746474  1.0000
  C   C3        1.0  0.5257815322086543  0.6896331631230481  0.05959701847353928  1.0000
  C   C4        1.0  0.9742193028704379  0.189630457950571  0.44040456258421296  1.0000
  C   C5        1.0  0.6147139849362091  0.3695386002509765  0.2703962831013627  1.0000
  C   C6        1.0  0.8852865516219027  0.8695420882352497  0.22960393837051638  1.0000
  C   C7        1.0  0.3852863588103119  0.6304601454564537  0.7296041998583291  1.0000
  C   C8        1.0  0.11471265079819662  0.13045981663447753  0.7703953934496398  1.0000
  C   C9        1.0  0.6082870444432443  0.3539058159386742  0.14812170158283056  1.0000
  C   C10       1.0  0.8917157979932641  0.8539065315026593  0.3518791532618053  1.0000
  C   C11       1.0  0.3917144406236304  0.6460971419864949  0.8518799325222373  1.0000
  C   C12       1.0  0.1082845445035687  0.14609537336629336  0.6481205076104288  1.0000
  C   C13       1.0  0.5325788585927569  0.2761138945177706  0.313117132804976  1.0000
  C   C14       1.0  0.9674195527838662  0.7761159998545751  0.18688310486477638  1.0000
  C   C15       1.0  0.4674203463223777  0.7238869573003656  0.6868838431942664  1.0000
  C   C16       1.0  0.03257965088331359  0.2238859050165019  0.8131170490453384  1.0000
  C   C17       1.0  0.4714488976382539  0.3235768016111892  0.05348405395508133  1.0000
  C   C18       1.0  0.0285530219644841  0.8235776119025431  0.4465173574903361  1.0000
  C   C19       1.0  0.5285525886765826  0.676425103261032  0.9465184022391071  1.0000
  C   C20       1.0  0.9714473217811701  0.17642218685917754  0.5534831254701942  1.0000
  C   C21       1.0  0.7042866906958594  0.47228513211705114  0.3483344664276942  1.0000
  C   C22       1.0  0.7957159544585507  0.9722896236380695  0.15166493150209692  1.0000
  C   C23       1.0  0.2957159319587817  0.5277115074788982  0.6516658525445324  1.0000
  C   C24       1.0  0.2042843867929278  0.027710175120958497  0.8483339072785084  1.0000
  C   C25       1.0  0.7412969892229313  0.36650331123367863  0.1238191614820891  1.0000
  C   C26       1.0  0.7587024097597207  0.8665054662124734  0.3761790819552785  1.0000
  C   C27       1.0  0.2587022131980348  0.6334975405817647  0.8761801703372357  1.0000
  C   C28       1.0  0.24129793149002415  0.1334964386551292  0.6238197568269968  1.0000
  C   C29       1.0  0.6109015587130388  0.32771236077518046  0.9235786950467713  1.0000
  C   C30       1.0  0.889098099066949  0.8277142838586258  0.5764206057150503  1.0000
  C   C31       1.0  0.3890999251076153  0.6722895440943475  0.0764221169674997  1.0000
  C   C32       1.0  0.11090110210519552  0.17228867406404194  0.42357790401597833  1.0000
  C   C33       1.0  0.6240224464836999  0.3781592673678206  0.4990299209831903  1.0000
  C   C34       1.0  0.8759757932426594  0.8781620259588652  0.0009680118409178396  1.0000
  C   C35       1.0  0.375976755938126  0.6218405313933246  0.500969410835296  1.0000
  C   C36       1.0  0.124023407929478  0.1218409319638027  0.9990304978901108  1.0000
  C   C37       1.0  0.707468988979528  0.47663864426598934  0.46366735580862434  1.0000
  C   C38       1.0  0.7925325101830013  0.9766417113095827  0.036332542044668494  1.0000
  C   C39       1.0  0.29253477374924597  0.5233611544920651  0.5363332922181812  1.0000
  C   C40       1.0  0.20746669099087  0.023359140504510403  0.9636659676846975  1.0000
  I   I1        1.0  0.654183106919838  0.0649906827706062  0.6930701057242601  1.0000
  I   I2        1.0  0.8458169843982618  0.5649913565001655  0.806929601531877  1.0000
  I   I3        1.0  0.3458172368284096  0.9350059568282494  0.3069303772337689  1.0000
  I   I4        1.0  0.15418336059360627  0.4350094953171962  0.1930717035194434  1.0000
  N   N1        1.0  0.5382201723634168  0.27778632246450746  0.42531651592071285  1.0000
  N   N2        1.0  0.9617782337674682  0.7777880723312904  0.0746820802144156  1.0000
  N   N3        1.0  0.46177789122962315  0.7222124232444714  0.5746833089348228  1.0000
  N   N4        1.0  0.0382221099755853  0.2222148855933029  0.9253184027486084  1.0000
  N   N5        1.0  0.7438772902020645  0.35407814090494594  0.014330443369317408  1.0000
  N   N6        1.0  0.7561244106264552  0.8540796083430422  0.4856692606064712  1.0000
  N   N7        1.0  0.2561241936194563  0.6459227109102913  0.9856703686441222  1.0000
  N   N8        1.0  0.24387707194885166  0.14592019041655396  0.5143307293161783  1.0000
