data_image0
_chemical_formula_structural       Mg6H90C114O18
_chemical_formula_sum              "Mg6 H90 C114 O18"
_cell_length_a       6.856309740961325
_cell_length_b       40.12017677372142
_cell_length_c       40.1189270451436
_cell_angle_alpha    119.67783216498877
_cell_angle_beta     93.26540484181358
_cell_angle_gamma    93.2645795658731

_space_group_name_H-M_alt    "P 1"
_space_group_IT_number       1

loop_
  _space_group_symop_operation_xyz
  'x, y, z'

loop_
  _atom_site_type_symbol
  _atom_site_label
  _atom_site_symmetry_multiplicity
  _atom_site_fract_x
  _atom_site_fract_y
  _atom_site_fract_z
  _atom_site_occupancy
  Mg  Mg1       1.0  0.6374589509159776  0.6708874122612801  0.3096282800876723  1.0000
  Mg  Mg2       1.0  0.32800336484810794  0.6903642540921524  0.3612267137727017  1.0000
  Mg  Mg3       1.0  0.966634530977977  0.6387917742209058  0.32916209420815096  1.0000
  Mg  Mg4       1.0  0.6937500311251339  0.32731217825762127  0.6892151435961438  1.0000
  Mg  Mg5       1.0  0.004598208338762841  0.31072975200272174  0.6380465923256792  1.0000
  Mg  Mg6       1.0  0.36637020047457003  0.361897371998765  0.6726459183564373  1.0000
  H   H1        1.0  0.9517609809981875  0.21577304215164628  0.610997863411228  1.0000
  H   H2        1.0  0.34035088324666424  0.38902079318697974  0.6047499731700582  1.0000
  H   H3        1.0  0.7353026893300407  0.39519386015417274  0.7842174737300383  1.0000
  H   H4        1.0  0.8684936600166535  0.0591603192284538  0.4778408611844752  1.0000
  H   H5        1.0  0.39042227586411116  0.5221619417284062  0.5813040783578103  1.0000
  H   H6        1.0  0.8092663049301477  0.4187051174529942  0.9408480746812201  1.0000
  H   H7        1.0  0.02941617791029923  0.9499201078714423  0.510074208736846  1.0000
  H   H8        1.0  0.5194520641941124  0.48987454782142265  0.43977792070005267  1.0000
  H   H9        1.0  0.0796747514336289  0.5601977619575679  0.05006677970404658  1.0000
  H   H10       1.0  0.6209362644001714  0.873628993589037  0.489710736579319  1.0000
  H   H11       1.0  0.1306494817893195  0.5102587149298401  0.3838691418480663  1.0000
  H   H12       1.0  0.7467504926495963  0.6160945204863569  0.12646745852778463  1.0000
  H   H13       1.0  0.23061930748510653  0.9124610079585269  0.4098013831478087  1.0000
  H   H14       1.0  0.821001080532987  0.5901937279672397  0.502686567470029  1.0000
  H   H15       1.0  0.31770958525998333  0.4973096456125746  0.08752024136454396  1.0000
  H   H16       1.0  0.49686886530771796  0.8296610071389028  0.35313262767511605  1.0000
  H   H17       1.0  0.14351808116698808  0.64682217705289  0.47646663803914896  1.0000
  H   H18       1.0  0.6665527475038143  0.5234859614520389  0.170353531027601  1.0000
  H   H19       1.0  0.32814777995484684  0.8617044289046378  0.35269171931143734  1.0000
  H   H20       1.0  0.9752996044432504  0.6473013935195199  0.5089715988872215  1.0000
  H   H21       1.0  0.4657846410542774  0.4909812242067419  0.13833352781676223  1.0000
  H   H22       1.0  0.24502948545005418  0.8211880511373482  0.35639488205261954  1.0000
  H   H23       1.0  0.8884358500389096  0.643594806077495  0.4647506788586072  1.0000
  H   H24       1.0  0.42317095562303547  0.5351920229137264  0.17888389022461842  1.0000
  H   H25       1.0  0.3773586744854214  0.7831950775633632  0.3820930018707643  1.0000
  H   H26       1.0  0.9949126818434945  0.6179086678399133  0.40100827784186077  1.0000
  H   H27       1.0  0.5935005915895102  0.5989476850508524  0.2169552546294256  1.0000
  H   H28       1.0  0.09240594679466343  0.7995892789388181  0.4195837857766025  1.0000
  H   H29       1.0  0.6724280509244664  0.5804055608051045  0.38001570638894594  1.0000
  H   H30       1.0  0.29204578137601084  0.6199319615479271  0.20036015027908868  1.0000
  H   H31       1.0  0.9057432522236226  0.8572961719739212  0.4452517165341803  1.0000
  H   H32       1.0  0.45980581367710016  0.5546833323606607  0.4119532635112648  1.0000
  H   H33       1.0  0.04720000354004842  0.5879888071311542  0.1427320247221148  1.0000
  H   H34       1.0  0.4652226253607805  0.9706859777895077  0.5446869587703987  1.0000
  H   H35       1.0  0.9202487819050656  0.4552841728391571  0.42595527108522196  1.0000
  H   H36       1.0  0.49441732978642255  0.5740396888363295  0.029396544475211922  1.0000
  H   H37       1.0  0.5900377837454586  0.933738231171667  0.5466507962253574  1.0000
  H   H38       1.0  0.04311530027861471  0.4533362799498378  0.38705511455228253  1.0000
  H   H39       1.0  0.6561187073186403  0.6129338834198492  0.06635858176210266  1.0000
  H   H40       1.0  0.33116316985528005  0.9323418729787107  0.5455573792121697  1.0000
  H   H41       1.0  0.7853100486881104  0.4544013810143782  0.3867340314948393  1.0000
  H   H42       1.0  0.39861484926730373  0.6132611313428387  0.06771724865706841  1.0000
  H   H43       1.0  0.3296970989875588  0.05371556908335861  0.4913873822868096  1.0000
  H   H44       1.0  0.837734561859939  0.5085639709912116  0.56230717464409  1.0000
  H   H45       1.0  0.2760036495730134  0.43769948744262194  0.9462971451754142  1.0000
  H   H46       1.0  0.6274426243068659  0.9741763284436479  0.4626570152496685  1.0000
  H   H47       1.0  0.1642985782812686  0.5373592959075495  0.5115734805227063  1.0000
  H   H48       1.0  0.6531516370625708  0.4884317444534007  0.025830212946040456  1.0000
  H   H49       1.0  0.5879566588551342  0.0170176139972895  0.4614020323953412  1.0000
  H   H50       1.0  0.12609706345634214  0.5386034468687841  0.5556621129622314  1.0000
  H   H51       1.0  0.5707222449447471  0.4443563351418761  0.9829856239986227  1.0000
  H   H52       1.0  0.47461900205411933  0.9716184127091129  0.4244650481830165  1.0000
  H   H53       1.0  0.04961230202254535  0.575536063685732  0.5471902991892748  1.0000
  H   H54       1.0  0.502693732134169  0.4528190987700783  0.02838426680381905  1.0000
  H   H55       1.0  0.7183263880977222  0.02268129491268671  0.5338907537937629  1.0000
  H   H56       1.0  0.18409827742376447  0.466150426854334  0.4887722679002025  1.0000
  H   H57       1.0  0.6958688924832116  0.5112429246380331  0.9773309826611437  1.0000
  H   H58       1.0  0.8777167224156274  0.03828282449499199  0.5759568776971021  1.0000
  H   H59       1.0  0.30129758622224057  0.42406668115015134  0.4622961304085322  1.0000
  H   H60       1.0  0.8395659832137594  0.5377079741219147  0.9617170819146493  1.0000
  H   H61       1.0  0.7955943087527542  0.988510716347058  0.5465761196924035  1.0000
  H   H62       1.0  0.24861151332644474  0.4534518503744352  0.44190463424687476  1.0000
  H   H63       1.0  0.8072349187189685  0.5581061500756165  0.011501223444355498  1.0000
  H   H64       1.0  0.9704439705268727  0.15850326863234449  0.6154182717470816  1.0000
  H   H65       1.0  0.3550043533264358  0.3846200205120952  0.5431695752351402  1.0000
  H   H66       1.0  0.811650677983543  0.4569385148954057  0.8414930951687863  1.0000
  H   H67       1.0  0.1948668837118746  0.0716115432736402  0.5948786958328396  1.0000
  H   H68       1.0  0.5998268682927729  0.4051144609677381  0.47674516618599944  1.0000
  H   H69       1.0  0.12306922581251466  0.5232886077933828  0.9283797771570119  1.0000
  H   H70       1.0  0.18465467651057565  0.12133148143285412  0.6290968996880864  1.0000
  H   H71       1.0  0.5553375473194677  0.3708997385304543  0.4922495295811657  1.0000
  H   H72       1.0  0.0631057638216035  0.5077879953504052  0.8786603421209092  1.0000
  H   H73       1.0  0.3528376313127026  0.10708868512282523  0.5935478345204714  1.0000
  H   H74       1.0  0.7590086423838329  0.4064624629687614  0.5135753847770559  1.0000
  H   H75       1.0  0.2454524215229909  0.4864580698995979  0.8928992318458667  1.0000
  H   H76       1.0  0.6425247240864066  0.147612330622934  0.4999699859116474  1.0000
  H   H77       1.0  0.142568659798286  0.5000877568908494  0.6476786247317676  1.0000
  H   H78       1.0  0.49495423902788355  0.3524214579380642  0.852405487194538  1.0000
  H   H79       1.0  0.5009861106332706  0.10463359319744112  0.48885157974404336  1.0000
  H   H80       1.0  0.012119227311543981  0.5112329999521492  0.6158411229798091  1.0000
  H   H81       1.0  0.39618791551972515  0.38423711695840285  0.8953769589549907  1.0000
  H   H82       1.0  0.7071685038282922  0.10226222585804831  0.46350333469607824  1.0000
  H   H83       1.0  0.24378172424871997  0.5365330417915575  0.6387732416348655  1.0000
  H   H84       1.0  0.6048702888066089  0.3612944726234773  0.8977567084906042  1.0000
  H   H85       1.0  0.4140504839837077  0.14346159621102572  0.5506338384568605  1.0000
  H   H86       1.0  0.8629799135640396  0.4494135575103258  0.5928665154022142  1.0000
  H   H87       1.0  0.2697511329676913  0.4071468636817103  0.8565174755851854  1.0000
  H   H88       1.0  0.23293693828921386  0.20141566349514053  0.5784668109778933  1.0000
  H   H89       1.0  0.6541575253509179  0.42153414556200636  0.6229666958227326  1.0000
  H   H90       1.0  0.030932439569973328  0.3770083001899638  0.7985459913050547  1.0000
  C   C1        1.0  0.6921550706558364  0.24523578840606328  0.621547697833627  1.0000
  C   C2        1.0  0.0703174720690072  0.37842622371105256  0.6236525556863128  1.0000
  C   C3        1.0  0.4463732594721462  0.3762642552523802  0.7547369107206663  1.0000
  C   C4        1.0  0.7932203352645573  0.21198113590683224  0.6039750006586928  1.0000
  C   C5        1.0  0.18881045927592055  0.396033482684345  0.6079837172519049  1.0000
  C   C6        1.0  0.5805411486588881  0.39195345263497944  0.7880124644480943  1.0000
  C   C7        1.0  0.6982929794665863  0.1755550333043133  0.5779969225805032  1.0000
  C   C8        1.0  0.1198501812157389  0.42202888931694116  0.5975525831561724  1.0000
  C   C9        1.0  0.52200217769564  0.402461659845173  0.8244618829004934  1.0000
  C   C10       1.0  0.8107876974123158  0.14139401503813082  0.5608096277033282  1.0000
  C   C11       1.0  0.24961979354561947  0.4392186931121814  0.5805963976026334  1.0000
  C   C12       1.0  0.6687987322584518  0.4194708445267069  0.8586261807245066  1.0000
  C   C13       1.0  0.783708023430023  0.1135764826781838  0.5211171933012934  1.0000
  C   C14       1.0  0.26228994386993065  0.4789073663178984  0.592458291286853  1.0000
  C   C15       1.0  0.6698051109229937  0.4076187625519481  0.8864681210024086  1.0000
  C   C16       1.0  0.888555193667706  0.08118897080545652  0.5083529829035172  1.0000
  C   C17       1.0  0.37982344266139734  0.49165140091115256  0.5728126450250814  1.0000
  C   C18       1.0  0.8071870164035101  0.42721610462124476  0.918839892598484  1.0000
  C   C19       1.0  0.016908338020570606  0.07527171883319281  0.5328933287374722  1.0000
  C   C20       1.0  0.4834733915913246  0.4670859092021472  0.5423367784727657  1.0000
  C   C21       1.0  0.9415052634440355  0.45766262662900214  0.9247416533193656  1.0000
  C   C22       1.0  0.1031404417649  0.03779156130136132  0.5171398590491592  1.0000
  C   C23       1.0  0.5854982829130787  0.48282977294768153  0.5206099731008179  1.0000
  C   C24       1.0  0.06542813067365925  0.47938329816773984  0.9622012856459249  1.0000
  C   C25       1.0  0.016955781399865096  0.008509307511410201  0.5229611419837353  1.0000
  C   C26       1.0  0.49365444437005834  0.47702342695907884  0.48550255912115153  1.0000
  C   C27       1.0  0.008571352071079683  0.5144909193626148  0.9914807233641622  1.0000
  C   C28       1.0  0.09613557396718146  0.9730457086340961  0.5062421481269794  1.0000
  C   C29       1.0  0.5897977088807522  0.49372294942470774  0.46675985777687856  1.0000
  C   C30       1.0  0.12321249401581716  0.5332296621013627  0.02694245770113224  1.0000
  C   C31       1.0  0.25628273315665956  0.9657830002349289  0.4842660960383045  1.0000
  C   C32       1.0  0.7718392592141041  0.5157205966565217  0.4815150295321473  1.0000
  C   C33       1.0  0.2904763782687638  0.5184960777841712  0.0342235557545508  1.0000
  C   C34       1.0  0.33628351143123325  0.9276902680287408  0.4674121929659237  1.0000
  C   C35       1.0  0.8687162326333392  0.5325723185911433  0.4602690627105377  1.0000
  C   C36       1.0  0.4082444125755913  0.53972743430775  0.07234255331107432  1.0000
  C   C37       1.0  0.441826711135384  0.9163467233272443  0.49074587622816074  1.0000
  C   C38       1.0  0.9506179369319341  0.509226848987865  0.425560031906528  1.0000
  C   C39       1.0  0.524934530071519  0.5744312752016472  0.0837342419209152  1.0000
  C   C40       1.0  0.5328070022249775  0.8822912619614559  0.47223664695454926  1.0000
  C   C41       1.0  0.059999279335649164  0.5277382916630557  0.4100054398490228  1.0000
  C   C42       1.0  0.649805443724695  0.5899731889317509  0.1178063816640745  1.0000
  C   C43       1.0  0.515291566017467  0.8583887787614943  0.43203188100757484  1.0000
  C   C44       1.0  0.08265804415631804  0.5679380684088144  0.42628271533242673  1.0000
  C   C45       1.0  0.6559230720726958  0.5736703906554086  0.14171092537796434  1.0000
  C   C46       1.0  0.39814990963110103  0.8683884101282047  0.40881421445257615  1.0000
  C   C47       1.0  0.988987288089774  0.5911663936839563  0.45953601040070413  1.0000
  C   C48       1.0  0.528825613741887  0.5404339036422602  0.13167104080513087  1.0000
  C   C49       1.0  0.31483416938591796  0.9033605700845232  0.4273481866391436  1.0000
  C   C50       1.0  0.8874235013084614  0.5726360369601055  0.47600902133675055  1.0000
  C   C51       1.0  0.4108426492796368  0.5239833245698764  0.09666393464290493  1.0000
  C   C52       1.0  0.36644936324108107  0.844020385649792  0.36552622084417413  1.0000
  C   C53       1.0  0.0006751050477901208  0.6344520386462024  0.4784478745750108  1.0000
  C   C54       1.0  0.5216333809804964  0.5215046581039077  0.15602316666394245  1.0000
  C   C55       1.0  0.6273540211239919  0.8241614604902952  0.4155565465509384  1.0000
  C   C56       1.0  0.21114848081288073  0.5843875801844833  0.40849656113948646  1.0000
  C   C57       1.0  0.8022274824255289  0.5914236166626383  0.17593168760592456  1.0000
  C   C58       1.0  0.5350937006391588  0.7874594730383394  0.39006200629241766  1.0000
  C   C59       1.0  0.1446564151347048  0.6099174128355218  0.3973209664162526  1.0000
  C   C60       1.0  0.7469274036374358  0.6026153188777172  0.21264282833821116  1.0000
  C   C61       1.0  0.6378850422273386  0.7543930668627683  0.374400326494147  1.0000
  C   C62       1.0  0.263323180031179  0.6255865872021077  0.37994401384650445  1.0000
  C   C63       1.0  0.8831309827115633  0.6200013020287047  0.24566173868927182  1.0000
  C   C64       1.0  0.8440851026425233  0.7591909545771716  0.3858439302779716  1.0000
  C   C65       1.0  0.45804794353765727  0.6141464408769011  0.37331390203166137  1.0000
  C   C66       1.0  0.08450843863894167  0.62661454801399  0.24083020120464496  1.0000
  C   C67       1.0  0.9353590408165501  0.7965778880872707  0.41141766285053905  1.0000
  C   C68       1.0  0.5234602729899435  0.5885376253397114  0.3851058275067559  1.0000
  C   C69       1.0  0.13804254292079313  0.614813720902859  0.20341805626323142  1.0000
  C   C70       1.0  0.8312063686999378  0.8286139964470041  0.4260992534373997  1.0000
  C   C71       1.0  0.4044634622440455  0.5738304280172032  0.4024136826147995  1.0000
  C   C72       1.0  0.0015701633853594157  0.5975142246238434  0.17143362451646035  1.0000
  C   C73       1.0  0.9649506213133417  0.7266892469716526  0.3732268195252432  1.0000
  C   C74       1.0  0.5917241520371377  0.6267837734478476  0.3534695773518805  1.0000
  C   C75       1.0  0.2380714632899412  0.6464981089496933  0.27330613568317835  1.0000
  C   C76       1.0  0.45897456373786116  0.939632596059852  0.534130880603499  1.0000
  C   C77       1.0  0.9245083158172631  0.4658427729138452  0.40545671444336767  1.0000
  C   C78       1.0  0.5190801061851857  0.5945361449575943  0.060453438887052  1.0000
  C   C79       1.0  0.3431177571869597  0.9951102239943527  0.47860057531682565  1.0000
  C   C80       1.0  0.864066647938685  0.5213998117565669  0.5165298600559397  1.0000
  C   C81       1.0  0.34794372813471586  0.4834959818767003  0.00491011649570791  1.0000
  C   C82       1.0  0.2635164843815332  0.03062484873506581  0.4953237508001535  1.0000
  C   C83       1.0  0.7676905588004174  0.5046380222985009  0.5352790827359044  1.0000
  C   C84       1.0  0.23293722459168714  0.4647304301550791  0.9693829218914017  1.0000
  C   C85       1.0  0.5174019694390992  0.9892098695880525  0.4556681218640864  1.0000
  C   C86       1.0  0.061211855754763234  0.5443364724698088  0.533593137747232  1.0000
  C   C87       1.0  0.5279954134613192  0.4664273274664907  0.010796308787519103  1.0000
  C   C88       1.0  0.8433630669663187  0.014734995894812603  0.5459977080551042  1.0000
  C   C89       1.0  0.296947882942149  0.45402433832286  0.4687054816273815  1.0000
  C   C90       1.0  0.8288110636869205  0.5313060494071423  0.9852707863197948  1.0000
  C   C91       1.0  0.05342694148713179  0.10411548821102201  0.5719921840610523  1.0000
  C   C92       1.0  0.48104952853133637  0.42800432546934536  0.5321164608886804  1.0000
  C   C93       1.0  0.9489052886106749  0.46791590697444024  0.8958949304758761  1.0000
  C   C94       1.0  0.9484804513764613  0.13643714595148992  0.5849434814308694  1.0000
  C   C95       1.0  0.3633510061978241  0.415084442265858  0.5515380789554953  1.0000
  C   C96       1.0  0.8115830662759363  0.4485428435238817  0.8635714728261378  1.0000
  C   C97       1.0  0.20302685304327633  0.10080840199633911  0.5988824030368889  1.0000
  C   C98       1.0  0.6038811745459681  0.4011135551651678  0.5019421223515721  1.0000
  C   C99       1.0  0.10194118873881312  0.4980912351960074  0.8991800153960199  1.0000
  C   C100      1.0  0.6520964349391319  0.11740385552170812  0.49199757547481937  1.0000
  C   C101      1.0  0.16008575611407858  0.5080547190660883  0.6254369117088885  1.0000
  C   C102      1.0  0.5346082324901145  0.37465012426773825  0.8826236892141353  1.0000
  C   C103      1.0  0.4928343361480356  0.1717545878603133  0.5694408268487052  1.0000
  C   C104      1.0  0.9229717704376552  0.4305855716024567  0.602320775622303  1.0000
  C   C105      1.0  0.320343846017998  0.3976819734214133  0.8282299960998003  1.0000
  C   C106      1.0  0.39091545535546857  0.2040391891503361  0.5854939475010141  1.0000
  C   C107      1.0  0.8050913693599356  0.4145006976836785  0.6185399765747873  1.0000
  C   C108      1.0  0.1862921379670794  0.3814274701050167  0.7959297192349054  1.0000
  C   C109      1.0  0.4852469842362763  0.24113149733570793  0.6110751671859019  1.0000
  C   C110      1.0  0.873871909460213  0.388903692220886  0.6300228020882486  1.0000
  C   C111      1.0  0.24357015884977068  0.3699013618261376  0.7588376013206996  1.0000
  C   C112      1.0  0.36633660182644684  0.27398576495131277  0.6247127887972469  1.0000
  C   C113      1.0  0.7413710143073258  0.37523865128993356  0.6492297449723309  1.0000
  C   C114      1.0  0.09191420722310545  0.3506963962615616  0.725970801758784  1.0000
  O   O1        1.0  0.14456721732130254  0.7317554293840303  0.3862659659602841  1.0000
  O   O2        1.0  0.7583749519493634  0.6137584623557899  0.34556408163011554  1.0000
  O   O3        1.0  0.4125609572904024  0.6544517739957956  0.2681967473962247  1.0000
  O   O4        1.0  0.8843762351149775  0.6924946564564183  0.34837188103995237  1.0000
  O   O5        1.0  0.5361158700868315  0.6516251829306018  0.3440930414086554  1.0000
  O   O6        1.0  0.19184194153952208  0.6558788319046372  0.3075210961680811  1.0000
  O   O7        1.0  0.5364267520543748  0.7202437877830763  0.34993066097635517  1.0000
  O   O8        1.0  0.18645770161416647  0.6500809634000787  0.3702922165420616  1.0000
  O   O9        1.0  0.8159659715626403  0.6297130164450878  0.27982761740866385  1.0000
  O   O10       1.0  0.1874468655969892  0.26963751534011493  0.6115613080330533  1.0000
  O   O11       1.0  0.5756628224097042  0.3883942638513106  0.6580559752848173  1.0000
  O   O12       1.0  0.917410981455667  0.3418665302671188  0.7303043348327873  1.0000
  O   O13       1.0  0.44770909146791377  0.3077369886558899  0.6505739186576917  1.0000
  O   O14       1.0  0.7969875765665717  0.3493747223655107  0.6571070637655367  1.0000
  O   O15       1.0  0.13965820051267738  0.34283286694347487  0.6922294714066551  1.0000
  O   O16       1.0  0.7950159055034901  0.2789601479941128  0.6467659240430024  1.0000
  O   O17       1.0  0.14805225906544447  0.35320942229385116  0.6321545813826575  1.0000
  O   O18       1.0  0.515590242560087  0.3677428282517852  0.7210112134133694  1.0000
