data_image0
_chemical_formula_structural       Er4H32C32N4O36
_chemical_formula_sum              "Er4 H32 C32 N4 O36"
_cell_length_a       9.4039927
_cell_length_b       9.893698644530279
_cell_length_c       14.1624
_cell_angle_alpha    90.0
_cell_angle_beta     90.0
_cell_angle_gamma    92.87996321066802

_space_group_name_H-M_alt    "P 1"
_space_group_IT_number       1

loop_
  _space_group_symop_operation_xyz
  'x, y, z'

loop_
  _atom_site_type_symbol
  _atom_site_label
  _atom_site_symmetry_multiplicity
  _atom_site_fract_x
  _atom_site_fract_y
  _atom_site_fract_z
  _atom_site_occupancy
  Er  Er1       1.0  0.8822456638507319  0.9127451575418773  0.1445595379314213  1.0000
  Er  Er2       1.0  0.1177275678253409  0.5872493583585552  0.6445722476416407  1.0000
  Er  Er3       1.0  0.11774646459114989  0.08726063193549997  0.8554362254985008  1.0000
  Er  Er4       1.0  0.8822830059798575  0.4127432748257363  0.3554312828334147  1.0000
  H   H1        1.0  0.0537290166190374  0.7666475588747658  3.3186465572e-05  1.0000
  H   H2        1.0  0.9462714349231973  0.7333388608453006  0.5000240072304152  1.0000
  H   H3        1.0  0.9462731571524471  0.23334709835460635  0.9999661074394197  1.0000
  H   H4        1.0  0.053742703485468696  0.2666608564968058  0.4999682257244515  1.0000
  H   H5        1.0  0.076985818264717  0.6858719674087723  0.0958982940744519  1.0000
  H   H6        1.0  0.9230156966556392  0.8141144523112941  0.5958898209343033  1.0000
  H   H7        1.0  0.9230154526154382  0.31412572588823906  0.904103824210587  1.0000
  H   H8        1.0  0.0770243372968622  0.1858923491886273  0.4041087668756731  1.0000
  H   H9        1.0  0.0842971141859579  0.8479038610497227  0.28486202903462754  1.0000
  H   H10       1.0  0.9156836746617998  0.652112919346699  0.7848874484550663  1.0000
  H   H11       1.0  0.9156831031143254  0.1520978803374717  0.7151337343953017  1.0000
  H   H12       1.0  0.0843260027857795  0.3479029903561255  0.2150991357397061  1.0000
  H   H13       1.0  0.9629480614272977  0.7365915013055044  0.31104685646500496  1.0000
  H   H14       1.0  0.0370584024481886  0.7634080747076482  0.8110475625600203  1.0000
  H   H15       1.0  0.0370425221761366  0.263405179968963  0.6889517313449716  1.0000
  H   H16       1.0  0.9629498371521379  0.23660075083736126  0.1889404338247758  1.0000
  H   H17       1.0  0.7911599751494549  0.0861858639925188  0.3036844037733744  1.0000
  H   H18       1.0  0.20882590345269142  0.4138382832196186  0.8036815793933201  1.0000
  H   H19       1.0  0.20882725783287268  0.9138077812143093  0.6963141840366022  1.0000
  H   H20       1.0  0.7911660110068226  0.5861634581675759  0.1963120657515702  1.0000
  H   H21       1.0  0.7985703708791051  0.9358557043835773  0.3431558210472829  1.0000
  H   H22       1.0  0.2014305621234556  0.5641398235393922  0.8431494661921732  1.0000
  H   H23       1.0  0.20142616502826627  0.064132880710531  0.6568470033327715  1.0000
  H   H24       1.0  0.7985815565201762  0.4358619178477952  0.1568413545726699  1.0000
  H   H25       1.0  0.3125516527343422  0.8190844950306654  0.15761523470597893  1.0000
  H   H26       1.0  0.6874351353792179  0.6809049607570401  0.657594051855618  1.0000
  H   H27       1.0  0.6874452641758992  0.18093141467215895  0.8424010054792959  1.0000
  H   H28       1.0  0.312575010461245  0.31907957624688515  0.3424002993842876  1.0000
  H   H29       1.0  0.4365789455662679  0.2291816135586515  0.0703567192001344  1.0000
  H   H30       1.0  0.5633930490911113  0.2708212811800337  0.5703298875896721  1.0000
  H   H31       1.0  0.563414252787446  0.770844416369627  0.9296665819352654  1.0000
  H   H32       1.0  0.4366055065813015  0.7291652798689796  0.4296722306953598  1.0000
  C   C1        1.0  0.5882569238273235  0.7368475430094319  0.1739916963226591  1.0000
  C   C2        1.0  0.4117073728591123  0.7631388767106344  0.6740107608879883  1.0000
  C   C3        1.0  0.4117184580427278  0.2631633065806653  0.8260054792972937  1.0000
  C   C4        1.0  0.5882988939380382  0.23685274445110585  0.3259948878721133  1.0000
  C   C5        1.0  0.5357675713768302  0.8745483906191893  0.1497775800711736  1.0000
  C   C6        1.0  0.46420432944316287  0.6254410651685092  0.6497768739761653  1.0000
  C   C7        1.0  0.464215461588644  0.1254462666101901  0.8502273625939125  1.0000
  C   C8        1.0  0.5358110328303951  0.3745616882412292  0.35020829802858344  1.0000
  C   C9        1.0  0.3921150544294321  0.8998408580683019  0.1422689657120273  1.0000
  C   C10       1.0  0.60787540527879  0.6001577059223067  0.6422484889566746  1.0000
  C   C11       1.0  0.6078847851371876  0.1001699915218026  0.8577472744732546  1.0000
  C   C12       1.0  0.3921414952994837  0.3998339152394336  0.3577515110433254  1.0000
  C   C13       1.0  0.35414537335682184  0.027178877473325296  0.11108639778568372  1.0000
  C   C14       1.0  0.6458288015523692  0.47282502928791087  0.6110638027452994  1.0000
  C   C15       1.0  0.6458385155381167  0.9728319721167793  0.8889411399197868  1.0000
  C   C16       1.0  0.3541833705868527  0.5271777241218274  0.3889277241145592  1.0000
  C   C17       1.0  0.19899939537298647  0.0457434190420827  0.0927441676551979  1.0000
  C   C18       1.0  0.800980892326919  0.4542554276064266  0.5927356945150564  1.0000
  C   C19       1.0  0.8009867807649584  0.9542704666156538  0.9072628932949202  1.0000
  C   C20       1.0  0.19903462389969206  0.5457301214200497  0.40726289329492  1.0000
  C   C21       1.0  0.46080427894649745  0.1280036475818562  0.0938018979833899  1.0000
  C   C22       1.0  0.5391759552578179  0.371994187044109  0.5937814212280372  1.0000
  C   C23       1.0  0.5391818436958502  0.8720092260533363  0.9062214031520099  1.0000
  C   C24       1.0  0.4608345650517832  0.6279974341176313  0.4062086934417906  1.0000
  C   C25       1.0  0.6019541539123523  0.096344546301026  0.1089328079986416  1.0000
  C   C26       1.0  0.39801321276343765  0.4036512642798442  0.6089151556233432  1.0000
  C   C27       1.0  0.3980281901441529  0.9036571950861683  0.8910777834265389  1.0000
  C   C28       1.0  0.6019836441174888  0.5963433929495281  0.3910707224764138  1.0000
  C   C29       1.0  0.7270537412845499  0.197181460680099  0.1000578997909969  1.0000
  C   C30       1.0  0.2729259110019839  0.30282548214876925  0.6000529571259108  1.0000
  C   C31       1.0  0.2729398250045847  0.8028314129550935  0.899937157543917  1.0000
  C   C32       1.0  0.727077272652025  0.6971681630580591  0.399937157543917  1.0000
  N   N1        1.0  0.6370169675794557  0.9715892084312969  0.1336969722645875  1.0000
  N   N2        1.0  0.3629690781295452  0.5284063194916726  0.6336941478845404  1.0000
  N   N3        1.0  0.3629773946098283  0.0284186050911686  0.8663100886855304  1.0000
  N   N4        1.0  0.6370500561961377  0.47158732571515566  0.36629384850025565  1.0000
  O   O1        1.0  0.1640130661272323  0.0947657911305484  0.0139905665706408  1.0000
  O   O2        1.0  0.8359844900329705  0.40519763472887854  0.5139799751454532  1.0000
  O   O3        1.0  0.8359881447235935  0.9052106496930179  0.9860172004744925  1.0000
  O   O4        1.0  0.16403325340732522  0.5947696978917776  0.48602355532960223  1.0000
  O   O5        1.0  0.1122525480775565  0.004329432448273  0.156245410382418  1.0000
  O   O6        1.0  0.8877125913845487  0.4956845945384103  0.6562221092470182  1.0000
  O   O7        1.0  0.8877419211029077  0.9956804051192805  0.8437793029430054  1.0000
  O   O8        1.0  0.1122881445396828  0.504302978533154  0.3437821273230526  1.0000
  O   O9        1.0  0.5032417141186372  0.6396984387849898  0.1869019375247163  1.0000
  O   O10       1.0  0.49671928544228183  0.8602859568899817  0.6869351239902812  1.0000
  O   O11       1.0  0.4967244183219536  0.3603184829403786  0.8130945320002283  1.0000
  O   O12       1.0  0.5032938365501494  0.1396945320237606  0.3130888832401268  1.0000
  O   O13       1.0  0.7279069622318559  0.7348518345503406  0.17882491668078873  1.0000
  O   O14       1.0  0.2720518035816539  0.7651305370795426  0.6788390385810317  1.0000
  O   O15       1.0  0.2720674032219462  0.2651397866113996  0.8211715528441488  1.0000
  O   O16       1.0  0.7279559545583466  0.23486918026255668  0.3211581370389212  1.0000
  O   O17       1.0  0.8524263990240469  0.1466349826385951  0.10953087047393241  1.0000
  O   O18       1.0  0.14754931418985956  0.35335779187463595  0.6095506411342698  1.0000
  O   O19       1.0  0.1475678026784593  0.8533697948162312  0.8904543015308164  1.0000
  O   O20       1.0  0.8524461583394042  0.6466307932194651  0.390453595435801  1.0000
  O   O21       1.0  0.7071451928923125  0.3187881137538753  0.0852800372818194  1.0000
  O   O22       1.0  0.292804316871667  0.18123198536807908  0.5852722702366862  1.0000
  O   O23       1.0  0.29282477162971793  0.6812409522420353  0.9147227870982348  1.0000
  O   O24       1.0  0.7071939778565124  0.8187697560191154  0.4147171383381334  1.0000
  O   O25       1.0  0.0142131461272683  0.7452493541795064  0.0630994746653144  1.0000
  O   O26       1.0  0.9857907095316705  0.754741113630743  0.5630895893351422  1.0000
  O   O27       1.0  0.9857928062300657  0.254756435297864  0.9369005253346856  1.0000
  O   O28       1.0  0.014233052775594498  0.24525961573390728  0.43690193752471634  1.0000
  O   O29       1.0  0.013741976346942396  0.7838317016919021  0.2576731344969758  1.0000
  O   O30       1.0  0.9862586356820698  0.7161577540957964  0.7576823137321327  1.0000
  O   O31       1.0  0.9862632871014156  0.2161811719432833  0.7423219228379381  1.0000
  O   O32       1.0  0.013743966054150297  0.28384499931394197  0.2423042704626326  1.0000
  O   O33       1.0  0.8395581778288914  0.9984573949832478  0.293972772976332  1.0000
  O   O34       1.0  0.16043844816563538  0.5015371209171775  0.7939805400214652  1.0000
  O   O35       1.0  0.1604320848009948  0.0015332141559483  0.706027227023668  1.0000
  O   O36       1.0  0.839581060629186  0.49846360844747295  0.2060116929334015  1.0000
