data_image0
_chemical_formula_structural       Cd8H80C96N32O32
_chemical_formula_sum              "Cd8 H80 C96 N32 O32"
_cell_length_a       17.56201148419451
_cell_length_b       17.56176867666304
_cell_length_c       17.561752168149113
_cell_angle_alpha    97.81505307554073
_cell_angle_beta     115.59543290561153
_cell_angle_gamma    115.59540595465025

_space_group_name_H-M_alt    "P 1"
_space_group_IT_number       1

loop_
  _space_group_symop_operation_xyz
  'x, y, z'

loop_
  _atom_site_type_symbol
  _atom_site_label
  _atom_site_symmetry_multiplicity
  _atom_site_fract_x
  _atom_site_fract_y
  _atom_site_fract_z
  _atom_site_occupancy
  Cd  Cd1       1.0  0.45500042661809914  0.050699611804404264  0.1635008899751753  1.0000
  Cd  Cd2       1.0  0.11279780711345211  0.16350090669242695  0.208495990123339  1.0000
  Cd  Cd3       1.0  0.38720122780828337  0.5957012001255747  0.05070024793140957  1.0000
  Cd  Cd4       1.0  0.9550008090971429  0.7915039755696042  0.40429882774630227  1.0000
  Cd  Cd5       1.0  0.612798568558148  0.40429849275974317  0.9492992807777226  1.0000
  Cd  Cd6       1.0  0.5449987389032669  0.9492994493584348  0.8364982810590715  1.0000
  Cd  Cd7       1.0  0.8872019892543362  0.8364987875897398  0.7915041081938978  1.0000
  Cd  Cd8       1.0  0.04499961811570331  0.20849635043504833  0.5957016282458198  1.0000
  H   H1        1.0  0.5554455462870537  0.8170875524996503  0.11429146846946747  1.0000
  H   H2        1.0  0.2972030702237092  0.1142906861315822  0.058845586199439  1.0000
  H   H3        1.0  0.20279689044483712  0.26164063565621376  0.8170880062442263  1.0000
  H   H4        1.0  0.05544631870282037  0.9411534384976648  0.7383596582382024  1.0000
  H   H5        1.0  0.7972029059229441  0.7383590586259529  0.18291209207301046  1.0000
  H   H6        1.0  0.44455425007938487  0.18291214038566747  0.8857080602396649  1.0000
  H   H7        1.0  0.702796726142722  0.8857090067537358  0.9411539425096931  1.0000
  H   H8        1.0  0.9445541085100259  0.05884688750698083  0.26164079775391974  1.0000
  H   H9        1.0  0.7090419377811302  0.3221675197841166  0.12230110807583847  1.0000
  H   H10       1.0  0.8001302112334515  0.12230019538981914  0.9132558685850113  1.0000
  H   H11       1.0  0.6998669327779437  0.6131263326275798  0.32216724401573044  1.0000
  H   H12       1.0  0.2090431482565265  0.08674238390587868  0.3868729709211252  1.0000
  H   H13       1.0  0.3001328635898374  0.3868733616545868  0.6778328543015063  1.0000
  H   H14       1.0  0.2909584894303663  0.6778328048236872  0.8776987783081791  1.0000
  H   H15       1.0  0.19986958513298703  0.8776994974954988  0.086743660124121  1.0000
  H   H16       1.0  0.7909572789549696  0.9132579407019178  0.6131269154628923  1.0000
  H   H17       1.0  0.6472027138454094  0.03999508984788488  0.33763084921135794  1.0000
  H   H18       1.0  0.2976310804551829  0.3376296016184597  0.19042246382147707  1.0000
  H   H19       1.0  0.2023665293040011  0.392792833282698  0.03999469986605673  1.0000
  H   H20       1.0  0.1472023121201146  0.8095758383863583  0.6072065367173277  1.0000
  H   H21       1.0  0.7976336828462112  0.6072065889969595  0.960005542246158  1.0000
  H   H22       1.0  0.35279708252102887  0.9600046030374332  0.6623686794977814  1.0000
  H   H23       1.0  0.7023683001288176  0.6623703632693748  0.8095769210926844  1.0000
  H   H24       1.0  0.8527974842476735  0.19042385589581554  0.392793561599909  1.0000
  H   H25       1.0  0.4427486389615822  0.8770691894760246  0.053685025502460244  1.0000
  H   H26       1.0  0.17661218445199717  0.05368418826270733  0.11093366432378102  1.0000
  H   H27       1.0  0.32338587815176806  0.4343208888383002  0.8770703743480011  1.0000
  H   H28       1.0  0.9427501781999933  0.8890646968877504  0.5656798113102679  1.0000
  H   H29       1.0  0.676613918216013  0.5656788054438736  0.12292972396923572  1.0000
  H   H30       1.0  0.557251157406199  0.12293050480614204  0.9463150728147836  1.0000
  H   H31       1.0  0.8233867803495725  0.9463160486276295  0.8890655767954029  1.0000
  H   H32       1.0  0.057250879856567766  0.11093625944253199  0.4343204327486347  1.0000
  H   H33       1.0  0.761444110814196  0.9573816560913359  0.3785830866644062  1.0000
  H   H34       1.0  0.42120013650560384  0.3785831612515266  0.11713759229251507  1.0000
  H   H35       1.0  0.07880049627641478  0.1959378923623163  0.9573825885828313  1.0000
  H   H36       1.0  0.2614431931692776  0.8828616038609096  0.8040624760288465  1.0000
  H   H37       1.0  0.9211993000913665  0.8040618019198575  0.042617509734405784  1.0000
  H   H38       1.0  0.23855631639730027  0.04261866851646092  0.6214167997196114  1.0000
  H   H39       1.0  0.5788002907072426  0.6214171647531189  0.8828628636996071  1.0000
  H   H40       1.0  0.7385566031985036  0.11713809042125703  0.19593762228839043  1.0000
  H   H41       1.0  0.6897040161722784  0.8137600929609687  0.19917272202722808  1.0000
  H   H42       1.0  0.38541349115401147  0.19917357478730927  0.00946913869665881  1.0000
  H   H43       1.0  0.11458676746907764  0.12405380715595267  0.8137608065194826  1.0000
  H   H44       1.0  0.18970512147991767  0.9905305519228449  0.8759454863064702  1.0000
  H   H45       1.0  0.8854140755261991  0.8759462468461904  0.18623979326761728  1.0000
  H   H46       1.0  0.3102961959779407  0.1862393293186883  0.8008275200849864  1.0000
  H   H47       1.0  0.6145858894299892  0.800826390100518  0.9905302462174956  1.0000
  H   H48       1.0  0.8102946748865135  0.009469140962480058  0.12405404240266188  1.0000
  H   H49       1.0  0.5863447906815364  0.27971844956868347  0.28734164829265296  1.0000
  H   H50       1.0  0.007623428498248947  0.2873436766359632  0.20099498059129664  1.0000
  H   H51       1.0  0.49237748990719843  0.6933730667355531  0.2797192412396255  1.0000
  H   H52       1.0  0.08634335995137812  0.7990023636746885  0.30662491380193296  1.0000
  H   H53       1.0  0.5076225215218669  0.3066275298747528  0.7202805013494141  1.0000
  H   H54       1.0  0.4136545899024638  0.7202815153191435  0.7126577366215014  1.0000
  H   H55       1.0  0.9923746903969788  0.7126550262037555  0.799004258581199  1.0000
  H   H56       1.0  0.9136566514790373  0.2009982343324667  0.6933753983952116  1.0000
  H   H57       1.0  0.6185953231499042  0.15148407435956576  0.09233694242833222  1.0000
  H   H58       1.0  0.940848377080492  0.09233722576087912  0.973737267759347  1.0000
  H   H59       1.0  0.5591489532830352  0.5328901496371259  0.15148447976540777  1.0000
  H   H60       1.0  0.1185974082380952  0.026260524685795907  0.4671086773518737  1.0000
  H   H61       1.0  0.440850628023462  0.4671086423169015  0.8485159742800263  1.0000
  H   H62       1.0  0.381404473217884  0.848515619922608  0.9076631558889116  1.0000
  H   H63       1.0  0.059151419287296184  0.9076624685212876  0.026262830557889895  1.0000
  H   H64       1.0  0.8814030189734011  0.9737397999220079  0.5328912090321365  1.0000
  H   H65       1.0  0.7036493373216715  0.4612637567043123  0.3137917502131132  1.0000
  H   H66       1.0  0.8525298836166396  0.3137924218324952  0.11014270770517953  1.0000
  H   H67       1.0  0.6474706867710581  0.7576126075980909  0.46126342231006134  1.0000
  H   H68       1.0  0.20364937432824345  0.8898560821984843  0.24238649645470633  1.0000
  H   H69       1.0  0.3525286938129426  0.24238735728973634  0.5387359626040933  1.0000
  H   H70       1.0  0.29635108988982495  0.5387365679034845  0.6862081361708973  1.0000
  H   H71       1.0  0.14746949696601763  0.6862075416584901  0.8898561076008703  1.0000
  H   H72       1.0  0.796351052884603  0.11014424380616103  0.7576139595374158  1.0000
  H   H73       1.0  0.8198782778039015  0.4868349496869159  0.21832981344364552  1.0000
  H   H74       1.0  0.7314946361065678  0.2183306054016541  0.8984492992096803  1.0000
  H   H75       1.0  0.7685049446695585  0.6669559155315808  0.48683549599254405  1.0000
  H   H76       1.0  0.3198812236924979  0.10154919149503168  0.3330462724668947  1.0000
  H   H77       1.0  0.23149569760592206  0.3330453141980527  0.5131651738794858  1.0000
  H   H78       1.0  0.1801221494089447  0.513165376317737  0.7816706425484695  1.0000
  H   H79       1.0  0.2685043286936519  0.781669630091841  0.10154937230139176  1.0000
  H   H80       1.0  0.6801192035189983  0.898451133112772  0.6669536139171227  1.0000
  C   C1        1.0  0.6347879980616965  0.9256379721894136  0.24903605894451167  1.0000
  C   C2        1.0  0.3233952017125361  0.2490354167772111  0.11424536507463763  1.0000
  C   C3        1.0  0.1766033619664355  0.2908493665340187  0.9256379513131704  1.0000
  C   C4        1.0  0.1347878878269948  0.885752924022938  0.7091504582305105  1.0000
  C   C5        1.0  0.8233968501837766  0.7091500557456386  0.07436229079904422  1.0000
  C   C6        1.0  0.3652124291497998  0.07436235241839032  0.7509638274395057  1.0000
  C   C7        1.0  0.6766041788714715  0.7509645481106162  0.8857540198395171  1.0000
  C   C8        1.0  0.8652125393858511  0.11424740198170728  0.29084999776161163  1.0000
  C   C9        1.0  0.6108114235999905  0.9875666813578405  0.2710453112833235  1.0000
  C   C10       1.0  0.2834736678950946  0.27104396445231765  0.16022825896610018  1.0000
  C   C11       1.0  0.2165248564329899  0.37675608610803113  0.9875675664359986  1.0000
  C   C12       1.0  0.11081221295592035  0.8397699696674222  0.623243500209824  1.0000
  C   C13       1.0  0.7834755707798561  0.6232442398966213  0.01243288955612337  1.0000
  C   C14       1.0  0.3891883727664407  0.012433011527484383  0.7289542174258086  1.0000
  C   C15       1.0  0.716526343533978  0.7289566321579882  0.8397714836229396  1.0000
  C   C16       1.0  0.8891882142555758  0.16023035494037433  0.3767563861741934  1.0000
  C   C17       1.0  0.5045540538478689  0.904598156733236  0.1243010685498119  1.0000
  C   C18       1.0  0.21970070697572908  0.12430062641725213  0.1197447684546731  1.0000
  C   C19       1.0  0.2802988305395857  0.40004399888663766  0.9045987527446753  1.0000
  C   C20       1.0  0.004555278094443226  0.8802548897390281  0.5999564798438967  1.0000
  C   C21       1.0  0.7197013816106336  0.5999554233930197  0.09540148936753919  1.0000
  C   C22       1.0  0.4954463733636345  0.09540216787456765  0.8756988178342054  1.0000
  C   C23       1.0  0.7802993044546865  0.8756999715899026  0.8802555437424714  1.0000
  C   C24       1.0  0.995445779962111  0.11974606659124734  0.40004376421499893  1.0000
  C   C25       1.0  0.7142460755575756  0.9145753717822701  0.30504925043967296  1.0000
  C   C26       1.0  0.3904728865137486  0.30504902015115926  0.09080153119789712  1.0000
  C   C27       1.0  0.1095265764957603  0.20032733407779094  0.914575458293612  1.0000
  C   C28       1.0  0.21424735996983188  0.9091982992042204  0.7996720486929758  1.0000
  C   C29       1.0  0.8904736356544516  0.7996720882018664  0.08542478381860265  1.0000
  C   C30       1.0  0.2857537208088559  0.08542432110305509  0.6949502782694594  1.0000
  C   C31       1.0  0.60952690985404  0.6949506741310074  0.9091985671193469  1.0000
  C   C32       1.0  0.7857536980867293  0.09080265712606202  0.20032819536592683  1.0000
  C   C33       1.0  0.7346260564776228  0.8567242911406012  0.2724129864284705  1.0000
  C   C34       1.0  0.41568949185667475  0.27241408827853053  0.03778724464999069  1.0000
  C   C35       1.0  0.08431015438536348  0.12209536514557581  0.8567240725424411  1.0000
  C   C36       1.0  0.23462735838388238  0.9622129506241351  0.8779042349364444  1.0000
  C   C37       1.0  0.9156900577648556  0.8779040571340885  0.1432761695697735  1.0000
  C   C38       1.0  0.26537310904510036  0.14327477141908668  0.7275867542138882  1.0000
  C   C39       1.0  0.5843103045111064  0.7275856060036362  0.9622128536672461  1.0000
  C   C40       1.0  0.7653724379838991  0.037786743658031745  0.12209586338079247  1.0000
  C   C41       1.0  0.8170457634307622  0.84684696733175  0.3311231114544313  1.0000
  C   C42       1.0  0.48427871019767105  0.33112355193664195  0.01407826681364814  1.0000
  C   C43       1.0  0.015721065459288794  0.0297969246898546  0.846843542836119  1.0000
  C   C44       1.0  0.31704441254185406  0.9859220767229786  0.9702024368055361  1.0000
  C   C45       1.0  0.9842791466895803  0.9702024961929611  0.15315612966799114  1.0000
  C   C46       1.0  0.182954032937019  0.15315272695041673  0.6688769868628128  1.0000
  C   C47       1.0  0.5157217170138323  0.6688767726711616  0.9859216195703693  1.0000
  C   C48       1.0  0.6829537063547235  0.014076627513588855  0.02979737197506441  1.0000
  C   C49       1.0  0.671903118839708  0.3409413341390247  0.22430724990433498  1.0000
  C   C50       1.0  0.8833646887197872  0.22430872010943395  0.05240299335425655  1.0000
  C   C51       1.0  0.6166339293219348  0.6690373201200683  0.34094128846532346  1.0000
  C   C52       1.0  0.17190304361619696  0.9475960813150621  0.3309605612910074  1.0000
  C   C53       1.0  0.38336545126341537  0.3309626461646076  0.6590586660569357  1.0000
  C   C54       1.0  0.3280968925907076  0.6590592638681303  0.7756930622928095  1.0000
  C   C55       1.0  0.11663427608448257  0.7756915195745931  0.9475973869811296  1.0000
  C   C56       1.0  0.8280973835966491  0.052404244689583566  0.6690398947011146  1.0000
  C   C57       1.0  0.6107946535642412  0.2727468566832981  0.24110091829105323  1.0000
  C   C58       1.0  0.9683533949752385  0.24110265627502517  0.13030420858998318  1.0000
  C   C59       1.0  0.531646702272056  0.6619521227272857  0.27274728229719614  1.0000
  C   C60       1.0  0.11079394503879317  0.869694396343455  0.33804588334059826  1.0000
  C   C61       1.0  0.4683526783119447  0.33804784216054173  0.7272521026169585  1.0000
  C   C62       1.0  0.3892053578648315  0.7272537399270149  0.7588988242979864  1.0000
  C   C63       1.0  0.031645985610111706  0.7588973100096509  0.8696957459322758  1.0000
  C   C64       1.0  0.8892060663902726  0.1303062002668511  0.6619538592484416  1.0000
  C   C65       1.0  0.6246706303844575  0.20403970671326738  0.13981991294745197  1.0000
  C   C66       1.0  0.9357764118186508  0.1398198594948283  0.015145132909737099  1.0000
  C   C67       1.0  0.5642216485434159  0.5793702570467045  0.20404045656198372  1.0000
  C   C68       1.0  0.12467175801904778  0.9848530789743111  0.4206285710649666  1.0000
  C   C69       1.0  0.4357781478257152  0.42062943863231084  0.7959602113633578  1.0000
  C   C70       1.0  0.37532875019954287  0.7959602581745671  0.8601794719667095  1.0000
  C   C71       1.0  0.06422338454913021  0.8601798347873382  0.9848549654074998  1.0000
  C   C72       1.0  0.8753293000388637  0.015147878752813388  0.5793722426020337  1.0000
  C   C73       1.0  0.7230077184771987  0.43867665254443006  0.2676987285816352  1.0000
  C   C74       1.0  0.8290228152684945  0.2676999158417175  0.04468981910515167  1.0000
  C   C75       1.0  0.6709776581709478  0.715667783206719  0.4386775466864279  1.0000
  C   C76       1.0  0.22300891339966022  0.9553087447995171  0.2843318852653739  1.0000
  C   C77       1.0  0.32902172241440286  0.2843321830779573  0.5613224078358312  1.0000
  C   C78       1.0  0.2769927087342977  0.5613236720633665  0.7323011578023824  1.0000
  C   C79       1.0  0.1709769810965938  0.7322997756467516  0.955309139995883  1.0000
  C   C80       1.0  0.7769915138131864  0.044691581205135666  0.7156685707267486  1.0000
  C   C81       1.0  0.7944283860741662  0.5038867551420055  0.2608560325615983  1.0000
  C   C82       1.0  0.7569699315241607  0.2608566390419044  0.9664263517679216  1.0000
  C   C83       1.0  0.7430292733038895  0.7094563301943708  0.503886893180912  1.0000
  C   C84       1.0  0.2944312777882772  0.03357274399080271  0.29054475329463963  1.0000
  C   C85       1.0  0.25697010728011077  0.2905436346934636  0.4961124917332427  1.0000
  C   C86       1.0  0.2055720411386801  0.49611357086264724  0.7391444234305239  1.0000
  C   C87       1.0  0.243029449059847  0.7391433258459231  0.03357303314624006  1.0000
  C   C88       1.0  0.7055691494232192  0.966427580617001  0.7094551330893778  1.0000
  C   C89       1.0  0.8466628962280539  0.6025429148265219  0.31525194201901036  1.0000
  C   C90       1.0  0.7127114258104754  0.3152534351492734  0.9685887222585803  1.0000
  C   C91       1.0  0.7872887817308438  0.7558768372197949  0.6025436521600867  1.0000
  C   C92       1.0  0.346666032581588  0.03141079012238625  0.24412424309956296  1.0000
  C   C93       1.0  0.21271122969822895  0.2441237593905186  0.39745609042894603  1.0000
  C   C94       1.0  0.1533381618298577  0.39745804290060965  0.6847488716479971  1.0000
  C   C95       1.0  0.28728921646230515  0.6847477917866698  0.03141080839723999  1.0000
  C   C96       1.0  0.6533337637848506  0.9685889027629316  0.7558752856095693  1.0000
  N   N1        1.0  0.5656735722724945  0.8743992384631484  0.15524492768158624  1.0000
  N   N2        1.0  0.28084367882649985  0.1552444781792133  0.08956990880610499  1.0000
  N   N3        1.0  0.21915596300248544  0.30872444040585384  0.8744000256338254  1.0000
  N   N4        1.0  0.06567467786661736  0.9104296029258306  0.6912753505945728  1.0000
  N   N5        1.0  0.7808442491477335  0.6912749818738105  0.1256002164783894  1.0000
  N   N6        1.0  0.4343262240939437  0.12560045442217674  0.844754601027546  1.0000
  N   N7        1.0  0.7191567483863464  0.8447558478254391  0.9104305471860099  1.0000
  N   N8        1.0  0.9343257493448787  0.08957072168196598  0.30872453578944453  1.0000
  N   N9        1.0  0.5300989485738012  0.9738301395311452  0.1928010667349794  1.0000
  N   N10       1.0  0.21896584927655027  0.19279927294019925  0.16269657603456267  1.0000
  N   N11       1.0  0.2810315182928633  0.44373128004559703  0.9738307662262  1.0000
  N   N12       1.0  0.030100263844680297  0.8373022950896499  0.5562679507360285  1.0000
  N   N13       1.0  0.7189682780749179  0.5562684142365697  0.026169332091036744  1.0000
  N   N14       1.0  0.46990084779398694  0.026169554751021534  0.8071990315822645  1.0000
  N   N15       1.0  0.7810341621538651  0.8072013250669556  0.8373037361625818  1.0000
  N   N16       1.0  0.9699003784294502  0.16269893324314216  0.4437321495278893  1.0000
  N   N17       1.0  0.6791033839391074  0.29476659365214886  0.15958846682777747  1.0000
  N   N18       1.0  0.8648188788885774  0.1595882480095555  0.9804820388897608  1.0000
  N   N19       1.0  0.635178681062534  0.6156638470203929  0.29476650098421675  1.0000
  N   N20       1.0  0.17910313184729176  0.019515531041399477  0.3843344009299655  1.0000
  N   N21       1.0  0.3648204844601821  0.3843352155392949  0.705233239658142  1.0000
  N   N22       1.0  0.3208970432723957  0.7052337309556548  0.8404114195562398  1.0000
  N   N23       1.0  0.13518091747651068  0.8404114434789206  0.019516920211266595  1.0000
  N   N24       1.0  0.8208972953655544  0.9804847949632459  0.6156660550621493  1.0000
  N   N25       1.0  0.5826774437436838  0.18851468797862492  0.18885353206371036  1.0000
  N   N26       1.0  0.00033601085250721784  0.18885416335797342  0.10617324303495929  1.0000
  N   N27       1.0  0.49966303259701295  0.6058375390629179  0.18851490045068425  1.0000
  N   N28       1.0  0.08267622483297998  0.8938247240610553  0.3941594526978348  1.0000
  N   N29       1.0  0.5003369644905645  0.3941609794917582  0.8114851277816298  1.0000
  N   N30       1.0  0.4173225676867316  0.8114859100285299  0.8111467801334339  1.0000
  N   N31       1.0  0.9996627388891282  0.8111451726010727  0.8938269234205265  1.0000
  N   N32       1.0  0.9173235715334584  0.10617496882426992  0.6058400760112974  1.0000
  O   O1        1.0  0.9256780822200522  0.6590231321579124  0.3183543113077717  1.0000
  O   O2        1.0  0.6593309314522527  0.3183543359631429  0.8926751539623721  1.0000
  O   O3        1.0  0.8406662028961236  0.7333417827318769  0.6590240119673892  1.0000
  O   O4        1.0  0.4256803203218809  0.10732462876661943  0.26665916809391627  1.0000
  O   O5        1.0  0.15933339275186148  0.2666590872777875  0.34097615643477747  1.0000
  O   O6        1.0  0.07432422318784393  0.3409770123553884  0.681648072960371  1.0000
  O   O7        1.0  0.3406699258845124  0.6816477960946373  0.10732516018146046  1.0000
  O   O8        1.0  0.5743194760445505  0.8926750641186987  0.7333403606152231  1.0000
  O   O9        1.0  0.8140914613347617  0.6302198972357972  0.3584798011179871  1.0000
  O   O10       1.0  0.7282642044901876  0.3584815284616809  0.04438936199610314  1.0000
  O   O11       1.0  0.7717368636336557  0.8161243460140495  0.6302204755680376  1.0000
  O   O12       1.0  0.3140943412155651  0.9556112894983214  0.18387569178395327  1.0000
  O   O13       1.0  0.22826314779540977  0.1838762505962563  0.36977926702100206  1.0000
  O   O14       1.0  0.18590750346545787  0.36978033825769063  0.641518870393085  1.0000
  O   O15       1.0  0.27173559187625046  0.6415181644236438  0.9556101667130289  1.0000
  O   O16       1.0  0.6859050393697855  0.04438867678635463  0.8161242627383061  1.0000
  O   O17       1.0  0.8333942044487228  0.7959547237936203  0.28730575181221935  1.0000
  O   O18       1.0  0.49135574466950516  0.28730662249613903  0.9539144426377034  1.0000
  O   O19       1.0  0.008647406244563019  0.9625565180384328  0.7959539469578302  1.0000
  O   O20       1.0  0.33339344975679813  0.04608771141590757  0.03744313725761832  1.0000
  O   O21       1.0  0.9913530209669402  0.03744380656937099  0.20404593942618726  1.0000
  O   O22       1.0  0.16660559192040836  0.20404497188539486  0.7126949161131221  1.0000
  O   O23       1.0  0.5086450983257718  0.7126934315059968  0.046086157149396456  1.0000
  O   O24       1.0  0.6666059308285595  0.9539122548687686  0.962556817264648  1.0000
  O   O25       1.0  0.8685876848600456  0.8839301470874473  0.4177652503346108  1.0000
  O   O26       1.0  0.5338379864992008  0.4177666466423632  0.04917749065263879  1.0000
  O   O27       1.0  0.9661595479433628  0.015337633218585656  0.8839243253625781  1.0000
  O   O28       1.0  0.3685861679158222  0.9508214926610848  0.9846628907052872  1.0000
  O   O29       1.0  0.03384024842306832  0.9846620596667391  0.1160752033465541  1.0000
  O   O30       1.0  0.1314110648815898  0.11606918887159878  0.5822349161208676  1.0000
  O   O31       1.0  0.46616244071229546  0.5822336779654336  0.9508223957313785  1.0000
  O   O32       1.0  0.631410474232041  0.04917504859606949  0.015337697669956313  1.0000
