data_image0
_chemical_formula_structural       Cd4H20C20Br4N24O4
_chemical_formula_sum              "Cd4 H20 C20 Br4 N24 O4"
_cell_length_a       7.707512341663456
_cell_length_b       9.127257183839237
_cell_length_c       13.923063290623864
_cell_angle_alpha    90.00002533488637
_cell_angle_beta     89.99743021031365
_cell_angle_gamma    94.69776930736296

_space_group_name_H-M_alt    "P 1"
_space_group_IT_number       1

loop_
  _space_group_symop_operation_xyz
  'x, y, z'

loop_
  _atom_site_type_symbol
  _atom_site_label
  _atom_site_symmetry_multiplicity
  _atom_site_fract_x
  _atom_site_fract_y
  _atom_site_fract_z
  _atom_site_occupancy
  Cd  Cd1       1.0  0.7171911656414949  0.9286194364174847  0.45535375225388447  1.0000
  Cd  Cd2       1.0  0.782820459162835  0.5713905683159479  0.9553556709642875  1.0000
  Cd  Cd3       1.0  0.2828057937345321  0.07138605302575479  0.5446489603334328  1.0000
  Cd  Cd4       1.0  0.21718227350393704  0.42860827655790246  0.0446434503880653  1.0000
  H   H1        1.0  0.8317285587442742  0.6399222650375405  0.46725272285468816  1.0000
  H   H2        1.0  0.6683036513850595  0.8600952206252971  0.9672732980237626  1.0000
  H   H3        1.0  0.1682695790429918  0.36008211535249046  0.5327463985543801  1.0000
  H   H4        1.0  0.33170167400165695  0.13990360465390952  0.03272941446062559  1.0000
  H   H5        1.0  0.7379926943740146  0.6482327252192094  0.3633378012534294  1.0000
  H   H6        1.0  0.7619831635973211  0.8517604470751294  0.8633388454761854  1.0000
  H   H7        1.0  0.26200167225236726  0.3517727838169479  0.6366620384346007  1.0000
  H   H8        1.0  0.23801815434496376  0.14823730831599144  0.1366631488243542  1.0000
  H   H9        1.0  0.4027474474610244  0.8766504764573779  0.2819316768014488  1.0000
  H   H10       1.0  0.0972997655587449  0.6233690954784449  0.7819194689314983  1.0000
  H   H11       1.0  0.5972499813864972  0.12334730832485258  0.7180652899174189  1.0000
  H   H12       1.0  0.9026993107557073  0.3766198755653888  0.2180782159991423  1.0000
  H   H13       1.0  0.38657615057964273  0.8670752038901384  0.09933053459084817  1.0000
  H   H14       1.0  0.11349088005486152  0.6329529116301558  0.5993208057149103  1.0000
  H   H15       1.0  0.6134304714788855  0.1329236116098755  0.900666432015697  1.0000
  H   H16       1.0  0.8865098471191432  0.36703934742198646  0.4006790338941002  1.0000
  H   H17       1.0  0.9148141909283679  0.998579826837023  0.08428644842217638  1.0000
  H   H18       1.0  0.5852534696552213  0.5014625753288157  0.5842852859480416  1.0000
  H   H19       1.0  0.0851939636103367  0.0014211773903838  0.9157177004933104  1.0000
  H   H20       1.0  0.41474125151528807  0.49854623151556854  0.4157138355032188  1.0000
  C   C1        1.0  0.9675061718959127  0.02764962230072141  0.2795839702305257  1.0000
  C   C2        1.0  0.5325384634218366  0.4723704150843063  0.7795798760040852  1.0000
  C   C3        1.0  0.03249184754168508  0.972353658810121  0.720419460576366  1.0000
  C   C4        1.0  0.46746049808405143  0.5276295584356702  0.22041996362724345  1.0000
  C   C5        1.0  0.8072433022368344  0.9832086292204778  0.2283595057082195  1.0000
  C   C6        1.0  0.6928188040527488  0.5168198301511566  0.728356433585148  1.0000
  C   C7        1.0  0.19275813387692153  0.0167902254394718  0.7716424885909774  1.0000
  C   C8        1.0  0.3071826321798028  0.48317902451570666  0.2716426877830571  1.0000
  C   C9        1.0  0.5157503217927656  0.9065014040114863  0.2369624636699967  1.0000
  C   C10       1.0  0.9843015255665507  0.5935226854815667  0.7369529953558285  1.0000
  C   C11       1.0  0.48425111443978597  0.09349745065537718  0.7630366576982155  1.0000
  C   C12       1.0  0.015699319808625493  0.4064706728411381  0.2630461260190913  1.0000
  C   C13       1.0  0.5075897507118371  0.9011703279278435  0.1367913598801493  1.0000
  C   C14       1.0  0.9924788684057899  0.5988607801156576  0.636783847482036  1.0000
  C   C15       1.0  0.4924156930245474  0.09882959663055861  0.8632070432064082  1.0000
  C   C16       1.0  0.007523627947726696  0.40113586622226194  0.3632145556402476  1.0000
  C   C17       1.0  0.7988492207340768  0.9744259106695025  0.1279995092362043  1.0000
  C   C18       1.0  0.7012154123076472  0.5256096758926391  0.6279947969787472  1.0000
  C   C19       1.0  0.2011550445613679  0.0255751229403742  0.8720032032613574  1.0000
  C   C20       1.0  0.29878414011501775  0.4743957939749493  0.372003606180371  1.0000
  Br  Br1       1.0  0.6024443691501276  0.2028305462163118  0.4959287732310286  1.0000
  Br  Br2       1.0  0.8975459530418846  0.29717552402908615  0.9959128454916025  1.0000
  Br  Br3       1.0  0.39754516678839014  0.7971782998294541  0.5040581383269327  1.0000
  Br  Br4       1.0  0.1024554831609663  0.7028233306360435  0.004086994109357499  1.0000
  N   N1        1.0  0.9780031353955394  0.0265546196726589  0.3758801791714673  1.0000
  N   N2        1.0  0.5220261086789718  0.47345620946287426  0.8758749055955447  1.0000
  N   N3        1.0  0.021992291173617725  0.9734486810241951  0.6241232516671287  1.0000
  N   N4        1.0  0.4779741492908372  0.5265437542658162  0.12412421578717667  1.0000
  N   N5        1.0  0.1426501908397952  0.07442105589299787  0.3954593681631451  1.0000
  N   N6        1.0  0.35737769685602666  0.4255842687142462  0.8954530662463753  1.0000
  N   N7        1.0  0.857345117557891  0.9255811455350199  0.6045440626768013  1.0000
  N   N8        1.0  0.6426236211753462  0.5744134866820545  0.10454677335592778  1.0000
  N   N9        1.0  0.2298912816388139  0.10431705754530189  0.31490706504605726  1.0000
  N   N10       1.0  0.2701492807742127  0.3956963101330829  0.8148992998218603  1.0000
  N   N11       1.0  0.7701061469414158  0.8956807272213823  0.6850963657675422  1.0000
  N   N12       1.0  0.7298496807316752  0.6043036633868937  0.1851005398094614  1.0000
  N   N13       1.0  0.12226875430597772  0.0754192576032509  0.24066322279034574  1.0000
  N   N14       1.0  0.3777853756163907  0.42460321228029574  0.740656421900965  1.0000
  N   N15       1.0  0.8777312671129848  0.9245785075756955  0.7593409262242972  1.0000
  N   N16       1.0  0.6222124076267477  0.5753978703015151  0.25934341774487274  1.0000
  N   N17       1.0  0.6647101916597933  0.9472229100171958  0.2821676515623039  1.0000
  N   N18       1.0  0.8353422790143058  0.5528053297801564  0.7821625368912561  1.0000
  N   N19       1.0  0.33529006628031516  0.052777053709767985  0.7178321880531655  1.0000
  N   N20       1.0  0.1646577426125546  0.4471924354108765  0.21783658449415097  1.0000
  N   N21       1.0  0.6498971401703032  0.9333544939917998  0.08297244293710547  1.0000
  N   N22       1.0  0.850176402402809  0.5666812699251338  0.582966968340507  1.0000
  N   N23       1.0  0.3501107781739492  0.0666443117065754  0.9170281148173274  1.0000
  N   N24       1.0  0.14982373742522273  0.4333175945364544  0.4170314348108092  1.0000
  O   O1        1.0  0.8170068783446994  0.7037208735703827  0.4097468857133393  1.0000
  O   O2        1.0  0.6829908365414711  0.7962817828577329  0.9097678074753546  1.0000
  O   O3        1.0  0.18298737011021163  0.2962835361969454  0.5902529539760336  1.0000
  O   O4        1.0  0.3170104813711063  0.2037159725316613  0.0902349050579403  1.0000
