data_image0
_chemical_formula_structural       Zn4H32C76N8O24
_chemical_formula_sum              "Zn4 H32 C76 N8 O24"
_cell_length_a       5.565982590185253
_cell_length_b       16.75495046419859
_cell_length_c       26.15314249601197
_cell_angle_alpha    90.00000784345492
_cell_angle_beta     89.99989047735109
_cell_angle_gamma    98.50053166053804

_space_group_name_H-M_alt    "P 1"
_space_group_IT_number       1

loop_
  _space_group_symop_operation_xyz
  'x, y, z'

loop_
  _atom_site_type_symbol
  _atom_site_label
  _atom_site_symmetry_multiplicity
  _atom_site_fract_x
  _atom_site_fract_y
  _atom_site_fract_z
  _atom_site_occupancy
  Zn  Zn1       1.0  0.1192591733253251  0.5788240827566682  0.5206984218989561  1.0000
  Zn  Zn2       1.0  0.8807426529999982  0.9211756697844535  0.02069832937694119  1.0000
  Zn  Zn3       1.0  0.880743674623993  0.4211766263215395  0.4793013225289115  1.0000
  Zn  Zn4       1.0  0.11925839849041608  0.07882503967674381  0.9793017974145212  1.0000
  H   H1        1.0  0.4344528515237797  0.8783770676390218  0.08611732558782847  1.0000
  H   H2        1.0  0.36170393787327965  0.7994665473798861  0.16750602669559808  1.0000
  H   H3        1.0  0.9847071773191372  0.6837761234419515  0.13048701634631496  1.0000
  H   H4        1.0  0.03292885527681465  0.7679215914259528  0.050113316273794284  1.0000
  H   H5        1.0  0.09925990742228645  0.5269457223574817  0.24573529065195732  1.0000
  H   H6        1.0  0.034555441597262856  0.47351975613584335  0.335259916008951  1.0000
  H   H7        1.0  0.07918373543425603  0.705250069020522  0.4078863710155573  1.0000
  H   H8        1.0  0.12548618394976055  0.7627990189910105  0.3189960901849957  1.0000
  H   H9        1.0  0.5655463155129395  0.6216220667274045  0.5861176223038951  1.0000
  H   H10       1.0  0.6382965573222633  0.7005331712978133  0.6675059182871904  1.0000
  H   H11       1.0  0.015295719660514146  0.8162242068596227  0.6304860248868278  1.0000
  H   H12       1.0  0.9670727043392657  0.732078154330189  0.5501130766115876  1.0000
  H   H13       1.0  0.9007470642858234  0.9730539767433513  0.7457347167067494  1.0000
  H   H14       1.0  0.9654483856999293  0.026478925365807995  0.8352596590539745  1.0000
  H   H15       1.0  0.9208169159827828  0.794750800762436  0.9078853909537938  1.0000
  H   H16       1.0  0.8745150037855179  0.7372012678280483  0.8189951239700901  1.0000
  H   H17       1.0  0.5655458641808123  0.12162243526963579  0.9138824188408275  1.0000
  H   H18       1.0  0.6382971136171348  0.2005341620813184  0.8324941000958642  1.0000
  H   H19       1.0  0.015291808047180553  0.3162239829344243  0.8695134928087708  1.0000
  H   H20       1.0  0.9670680639706076  0.232077911865737  0.9498864281552313  1.0000
  H   H21       1.0  0.9007396172761587  0.4730555909545657  0.754264836139839  1.0000
  H   H22       1.0  0.9654453402296992  0.5264803498575928  0.6647398284193142  1.0000
  H   H23       1.0  0.9208183035160146  0.29474882965416765  0.5921141381388535  1.0000
  H   H24       1.0  0.8745145978720005  0.2372010870022905  0.6810048013329534  1.0000
  H   H25       1.0  0.4344536573166947  0.37837622886255673  0.4138825044876808  1.0000
  H   H26       1.0  0.3617036851725714  0.2994657277599585  0.3324942085043573  1.0000
  H   H27       1.0  0.9847068586253442  0.18377589875082379  0.3695133371778424  1.0000
  H   H28       1.0  0.03293167040376225  0.2679219508972182  0.4498862854527203  1.0000
  H   H29       1.0  0.09925650145815008  0.026944318080538196  0.2542654100840948  1.0000
  H   H30       1.0  0.034550060339469536  0.9735199740750389  0.16474008537471008  1.0000
  H   H31       1.0  0.07918386584590555  0.2052493052310425  0.09211397111123885  1.0000
  H   H32       1.0  0.12548523871105022  0.2627976312297661  0.18100462045823207  1.0000
  C   C1        1.0  0.5511086731965021  0.8343938242313129  0.09707315347885268  1.0000
  C   C2        1.0  0.511377075543386  0.7906925735559653  0.14223102167932916  1.0000
  C   C3        1.0  0.6724754367223011  0.7375811902281766  0.15491779844978026  1.0000
  C   C4        1.0  0.858654751695937  0.725688260708729  0.12139559338201167  1.0000
  C   C5        1.0  0.8858575169862914  0.7719444911542296  0.07709078020923947  1.0000
  C   C6        1.0  0.4438245410007012  0.6417207112787364  0.21337353123487185  1.0000
  C   C7        1.0  0.4224772726188134  0.6067026832641247  0.26520822276372497  1.0000
  C   C8        1.0  0.5956045317173845  0.633630068966866  0.3037156070345403  1.0000
  C   C9        1.0  0.8008018515674065  0.6914837087790386  0.2917246568961075  1.0000
  C   C10       1.0  0.8378493283434949  0.72478377388299  0.23971445737065974  1.0000
  C   C11       1.0  0.2274275527448423  0.5475830979524687  0.2761423188152462  1.0000
  C   C12       1.0  0.19276954306806715  0.5175596660405263  0.3260239019037812  1.0000
  C   C13       1.0  0.35059936211322895  0.546221827412495  0.3653380757800732  1.0000
  C   C14       1.0  0.5635602069983816  0.602303068504824  0.3547423674028137  1.0000
  C   C15       1.0  0.7467779918790213  0.6286730596378333  0.3917608271810948  1.0000
  C   C16       1.0  0.9415089165883757  0.6871716856074741  0.37887782579179685  1.0000
  C   C17       1.0  0.9692819020553782  0.7185412398681806  0.3292692515103538  1.0000
  C   C18       1.0  0.26459006499182885  0.5233991410007449  0.4185936427766207  1.0000
  C   C19       1.0  0.7714119200841976  0.5874916838183849  0.442331798599703  1.0000
  C   C20       1.0  0.4488942570846105  0.6656059103098074  0.5970727368576758  1.0000
  C   C21       1.0  0.4886239184933671  0.7093077544196901  0.6422302103172867  1.0000
  C   C22       1.0  0.32752723873810635  0.7624191344380405  0.6549170573892622  1.0000
  C   C23       1.0  0.14134876704439125  0.7743132786254634  0.6213953116097739  1.0000
  C   C24       1.0  0.11414406768929539  0.7280558518470528  0.5770897407590779  1.0000
  C   C25       1.0  0.5561791312255974  0.8582789960529736  0.7133723229846395  1.0000
  C   C26       1.0  0.5775297921929619  0.8932976148128586  0.7652070088698861  1.0000
  C   C27       1.0  0.4043949981123161  0.8663702217599223  0.8037144613571524  1.0000
  C   C28       1.0  0.1991980566511414  0.8085171881814474  0.7917235898044692  1.0000
  C   C29       1.0  0.16215284791587675  0.775217134691367  0.7397137848341584  1.0000
  C   C30       1.0  0.7725755503429352  0.9524165949005762  0.7761417953095558  1.0000
  C   C31       1.0  0.8072349041920218  0.9824400149235331  0.8260233668932313  1.0000
  C   C32       1.0  0.6494016750942391  0.9537790521848277  0.8653376025984654  1.0000
  C   C33       1.0  0.4364429924093968  0.897698416621459  0.8547408290361033  1.0000
  C   C34       1.0  0.2532194825006896  0.8713284180985709  0.8917601259184945  1.0000
  C   C35       1.0  0.05849074072749231  0.8128303981854044  0.8788768164289277  1.0000
  C   C36       1.0  0.030717665741292192  0.7814596484321041  0.8292678683649155  1.0000
  C   C37       1.0  0.7354107590053115  0.9766023297802132  0.918592754167683  1.0000
  C   C38       1.0  0.22858787968196012  0.9125079710836346  0.9423303462473026  1.0000
  C   C39       1.0  0.44889058183501623  0.1656068856128741  0.9029273556762046  1.0000
  C   C40       1.0  0.48862451527568845  0.209309342840811  0.8577694874753091  1.0000
  C   C41       1.0  0.3275276808887497  0.2624201223177565  0.8450827107045169  1.0000
  C   C42       1.0  0.1413465694596781  0.274313052220279  0.8786045334094222  1.0000
  C   C43       1.0  0.11414146837829964  0.22805561522210377  0.9229101113090789  1.0000
  C   C44       1.0  0.5561734569057676  0.3582812058841468  0.7866265955572656  1.0000
  C   C45       1.0  0.5775222520761643  0.39329863004783044  0.7347926687545367  1.0000
  C   C46       1.0  0.4043965197730372  0.36637064049433127  0.6962845197569292  1.0000
  C   C47       1.0  0.19919560700693478  0.3085170014481875  0.7082758522593193  1.0000
  C   C48       1.0  0.16214660343714365  0.27521754019502953  0.7602864341483337  1.0000
  C   C49       1.0  0.7725719719553364  0.45241821535962146  0.7238574256133246  1.0000
  C   C50       1.0  0.8072294422999915  0.4824404403358997  0.6739762248880793  1.0000
  C   C51       1.0  0.6493996232548227  0.45377827896393086  0.6346620510117872  1.0000
  C   C52       1.0  0.43644057482337906  0.39769703748847707  0.6452585241151352  1.0000
  C   C53       1.0  0.2532212631524898  0.3713276502063535  0.6082396819739626  1.0000
  C   C54       1.0  0.058492134900305345  0.3128290238536806  0.6211226833628911  1.0000
  C   C55       1.0  0.03071708330920582  0.28145886650815294  0.6707316400079576  1.0000
  C   C56       1.0  0.7354104471664653  0.4766003615247882  0.581406866378124  1.0000
  C   C57       1.0  0.22858679561692688  0.4125078190901803  0.5576687105554112  1.0000
  C   C58       1.0  0.5511083211960468  0.3343941953005043  0.40292777229667803  1.0000
  C   C59       1.0  0.511376324004935  0.290691144638167  0.35776915174781  1.0000
  C   C60       1.0  0.6724727340932687  0.2375791611519631  0.34508268703908124  1.0000
  C   C61       1.0  0.8586538112397334  0.2256868269849335  0.3786044328181218  1.0000
  C   C62       1.0  0.8858569838045937  0.2719448576142369  0.4229096213059264  1.0000
  C   C63       1.0  0.44382084160924506  0.14171929953712237  0.2866266567172531  1.0000
  C   C64       1.0  0.4224722467607761  0.10670128386191641  0.2347927355580665  1.0000
  C   C65       1.0  0.5956034479288163  0.1336286776809672  0.19628490070830645  1.0000
  C   C66       1.0  0.8008042519660563  0.19148231396109586  0.20827653698668053  1.0000
  C   C67       1.0  0.8378471249137576  0.22478116089858696  0.26028634195741757  1.0000
  C   C68       1.0  0.2274267582759961  0.0475829072420098  0.22385794911836845  1.0000
  C   C69       1.0  0.19276740442517587  0.017559487219010395  0.17397675989791847  1.0000
  C   C70       1.0  0.3505975799407466  0.0462216576594514  0.13466214183013384  1.0000
  C   C71       1.0  0.5635580590844924  0.10230229283983049  0.14525853302890104  1.0000
  C   C72       1.0  0.7467812993245316  0.12867168789481548  0.10824000087300326  1.0000
  C   C73       1.0  0.9415079749770995  0.18716910472325307  0.12112292799972826  1.0000
  C   C74       1.0  0.9692828464204694  0.21853985409352106  0.17073187606337828  1.0000
  C   C75       1.0  0.2645875085680842  0.023400190850523497  0.08140699026120048  1.0000
  C   C76       1.0  0.7714111056895588  0.08749213529287658  0.05766901581809948  1.0000
  N   N1        1.0  0.7387002361926349  0.8265538693049167  0.06574188959950787  1.0000
  N   N2        1.0  0.6527163599751303  0.698490235150949  0.20385914692710827  1.0000
  N   N3        1.0  0.2613035175044869  0.6734470793988547  0.565741550125068  1.0000
  N   N4        1.0  0.34728587172565256  0.8015100782261938  0.7038584012267817  1.0000
  N   N5        1.0  0.26130261175669023  0.17344683977329106  0.9342578548283594  1.0000
  N   N6        1.0  0.3472816379295977  0.3015116820118919  0.7961413622282618  1.0000
  N   N7        1.0  0.7386993304465646  0.32655362967940244  0.4342578119395738  1.0000
  N   N8        1.0  0.6527141011039816  0.19848821736376712  0.2961417255647944  1.0000
  O   O1        1.0  0.2873370467786101  0.5802862037421973  0.4514990553424452  1.0000
  O   O2        1.0  0.1566445909653992  0.4522381565644337  0.42501239318526973  1.0000
  O   O3        1.0  0.7271804221111821  0.51048102567011  0.4415380181889715  1.0000
  O   O4        1.0  0.8609173351588948  0.6309686644199316  0.47925621686930225  1.0000
  O   O5        1.0  0.29250997868778206  0.6237468003785835  0.17929467382199954  1.0000
  O   O6        1.0  0.014005522111560116  0.7745505028709657  0.22728514597419283  1.0000
  O   O7        1.0  0.7126665324416732  0.9197140517468867  0.9514985533997231  1.0000
  O   O8        1.0  0.8433577047339823  0.0477629184886936  0.9250121878527079  1.0000
  O   O9        1.0  0.27281579193282796  0.9895186301809459  0.941537701623744  1.0000
  O   O10       1.0  0.13908186014012333  0.8690303784970436  0.9792551795656476  1.0000
  O   O11       1.0  0.7074901399581318  0.8762523121122  0.6792934054664667  1.0000
  O   O12       1.0  0.9859913774748247  0.7254504097195066  0.7272845156577075  1.0000
  O   O13       1.0  0.7126652618403211  0.4197132984003887  0.5485006890854789  1.0000
  O   O14       1.0  0.8433600534393616  0.5477625521306987  0.5749877336054608  1.0000
  O   O15       1.0  0.27281416135041064  0.48951727106904036  0.5584613438772477  1.0000
  O   O16       1.0  0.1390841644627229  0.3690290273191862  0.5207439099219326  1.0000
  O   O17       1.0  0.7074859530928562  0.37625451369943613  0.8207062176969867  1.0000
  O   O18       1.0  0.9859888828823031  0.22545141505803204  0.772714598455451  1.0000
  O   O19       1.0  0.2873327225915716  0.0802866580973429  0.04850157339210879  1.0000
  O   O20       1.0  0.15664002350728598  0.952238395206379  0.07498793893945788  1.0000
  O   O21       1.0  0.7271831934404249  0.0104814761956078  0.05846127807842549  1.0000
  O   O22       1.0  0.8609140716491764  0.1309709355811961  0.020743800137203994  1.0000
  O   O23       1.0  0.292502647046298  0.12374598500998248  0.3207059566001148  1.0000
  O   O24       1.0  0.014008865018276053  0.2745484893382226  0.27271599349707276  1.0000
