data_image0
_chemical_formula_structural       H32Pb2C44N4O12
_chemical_formula_sum              "H32 Pb2 C44 N4 O12"
_cell_length_a       7.9665436513241215
_cell_length_b       11.695212567047067
_cell_length_c       12.045542831846836
_cell_angle_alpha    119.04273432796128
_cell_angle_beta     97.275273320077
_cell_angle_gamma    89.99984611668121

_space_group_name_H-M_alt    "P 1"
_space_group_IT_number       1

loop_
  _space_group_symop_operation_xyz
  'x, y, z'

loop_
  _atom_site_type_symbol
  _atom_site_label
  _atom_site_symmetry_multiplicity
  _atom_site_fract_x
  _atom_site_fract_y
  _atom_site_fract_z
  _atom_site_occupancy
  H   H1        1.0  0.41918500189441227  0.3836360377707422  0.317317478655191  1.0000
  H   H2        1.0  0.08081414784830798  0.0663159298067626  0.6826815362267453  1.0000
  H   H3        1.0  0.5808156811035516  0.6163657834172155  0.6826805090693424  1.0000
  H   H4        1.0  0.9191851491305272  0.9336848907514436  0.3173191754086417  1.0000
  H   H5        1.0  0.5677953016788707  0.29906980215865525  0.371262418092158  1.0000
  H   H6        1.0  0.9322054573225667  0.927807571008685  0.6287401207263128  1.0000
  H   H7        1.0  0.43220515834205026  0.7009300273496988  0.6287387525349358  1.0000
  H   H8        1.0  0.067791124773521  0.0721913036298503  0.37125859818348766  1.0000
  H   H9        1.0  0.6219246849981771  0.5232727543736644  0.47567775736439416  1.0000
  H   H10       1.0  0.8780775721959628  0.04759629445969441  0.524323204163565  1.0000
  H   H11       1.0  0.37807304743876813  0.4767251169172725  0.5243230739920648  1.0000
  H   H12       1.0  0.1219229005261795  0.9524035473463995  0.4756763130085701  1.0000
  H   H13       1.0  0.8419853416579599  0.7020027291070718  0.6132171717280244  1.0000
  H   H14       1.0  0.6580181065929338  0.0887867863591367  0.3867843334421863  1.0000
  H   H15       1.0  0.15801890702640262  0.29799708095233507  0.3867851485214544  1.0000
  H   H16       1.0  0.3419799253812172  0.9112140386324227  0.6132162705615656  1.0000
  H   H17       1.0  0.10346583531190127  0.723235326242296  0.5308547051480943  1.0000
  H   H18       1.0  0.3965375221234239  0.19238233264417903  0.46914587349426984  1.0000
  H   H19       1.0  0.8965358068029374  0.2767635306628193  0.46914444428826124  1.0000
  H   H20       1.0  0.603464489738151  0.8076204338336904  0.5308568308667033  1.0000
  H   H21       1.0  0.2726728711503839  0.6395546834049668  0.3463975934350714  1.0000
  H   H22       1.0  0.2273279084811719  0.29315810472502335  0.6536021603743478  1.0000
  H   H23       1.0  0.7273287836656833  0.36044418579788834  0.6535999025463325  1.0000
  H   H24       1.0  0.7726740970297926  0.7068446556039802  0.3464013707141049  1.0000
  H   H25       1.0  0.3038935343916194  0.4696073093028871  0.12250283642482873  1.0000
  H   H26       1.0  0.19610482773693144  0.3471022214511023  0.8774956413018768  1.0000
  H   H27       1.0  0.6961082160364356  0.5303925403675931  0.8774951349239896  1.0000
  H   H28       1.0  0.8038981686439685  0.6528976053394047  0.12250491786100791  1.0000
  H   H29       1.0  0.08080946261853938  0.28012783933581903  0.0018398384465854111  1.0000
  H   H30       1.0  0.4191912722318563  0.2782877681715235  0.9981568332544909  1.0000
  H   H31       1.0  0.9191921667950709  0.7198710052715497  0.9981609644447216  1.0000
  H   H32       1.0  0.5808104781961987  0.721712081498957  0.0018411380943277103  1.0000
  Pb  Pb1       1.0  0.250000210135795  0.9041060996389234  0.9999982875248249  1.0000
  Pb  Pb2       1.0  0.7499964566936016  0.095891555805288  0.9999957088105943  1.0000
  C   C1        1.0  0.41324091270466573  0.17711051061623098  0.1899299450327731  1.0000
  C   C2        1.0  0.08675717887267348  0.9871826314742336  0.8100704353139747  1.0000
  C   C3        1.0  0.5867544107373561  0.8228883746045242  0.8100678395179131  1.0000
  C   C4        1.0  0.9132431664844135  0.0128161991198752  0.1899327401281354  1.0000
  C   C5        1.0  0.510407017729996  0.3067765421383512  0.2872863490944297  1.0000
  C   C6        1.0  0.9895948089358981  0.0194900331602739  0.7127135814439356  1.0000
  C   C7        1.0  0.48959218998746207  0.6932233041011031  0.7127130604460631  1.0000
  C   C8        1.0  0.01040441148278858  0.9805098253769202  0.2872841746416057  1.0000
  C   C9        1.0  0.7548553469333471  0.4382581745325993  0.31233269058989777  1.0000
  C   C10       1.0  0.7451485759016522  0.12592460938766684  0.6876670752542465  1.0000
  C   C11       1.0  0.24514885059331695  0.5617406981012818  0.6876633671998248  1.0000
  C   C12       1.0  0.2548547009646144  0.8740781526568425  0.3123357367383689  1.0000
  C   C13       1.0  0.7353516694713776  0.5297153718942056  0.4368609793848535  1.0000
  C   C14       1.0  0.7646507247129011  0.09285634147935441  0.5631427031445639  1.0000
  C   C15       1.0  0.26465005555422044  0.4702844531807813  0.5631402988738756  1.0000
  C   C16       1.0  0.2353509110513201  0.9071425092768806  0.4368572730192711  1.0000
  C   C17       1.0  0.8617674565031591  0.6317931880798469  0.5155221170499686  1.0000
  C   C18       1.0  0.6382325425503909  0.11627330653200826  0.48448017148180617  1.0000
  C   C19       1.0  0.13823076034436346  0.3682095916980898  0.4844802644160921  1.0000
  C   C20       1.0  0.36176957762440753  0.8837304527112266  0.5155213547916304  1.0000
  C   C21       1.0  0.006228261229338696  0.6445208220229403  0.4694353218070759  1.0000
  C   C22       1.0  0.4937739074775962  0.1750883965848331  0.5305650272451601  1.0000
  C   C23       1.0  0.9937745502781966  0.3554770499811895  0.5305634598935001  1.0000
  C   C24       1.0  0.5062231590290693  0.8249153865406953  0.4694352417742421  1.0000
  C   C25       1.0  0.030070127861627275  0.5527199663282615  0.3420694922949038  1.0000
  C   C26       1.0  0.46993151100043923  0.2106519243933391  0.6579347318094263  1.0000
  C   C27       1.0  0.9699291500653687  0.44728083578332445  0.6579336995229211  1.0000
  C   C28       1.0  0.5300690573336978  0.7893488978803799  0.34206526073012344  1.0000
  C   C29       1.0  0.1755910882365157  0.5597048380285798  0.2885421375668997  1.0000
  C   C30       1.0  0.32440592711922284  0.2711626669946057  0.7114603085578536  1.0000
  C   C31       1.0  0.8244043117656614  0.4402950092131873  0.7114586025336392  1.0000
  C   C32       1.0  0.6755933571583911  0.7288381412658538  0.28854205653249215  1.0000
  C   C33       1.0  0.19317808944282433  0.4654007186790139  0.1654593529107089  1.0000
  C   C34       1.0  0.3068260968463434  0.299941734367806  0.8345415381689631  1.0000
  C   C35       1.0  0.806822383279318  0.5345991231270801  0.8345401642614263  1.0000
  C   C36       1.0  0.693178445024607  0.7000610232433573  0.16546138145528738  1.0000
  C   C37       1.0  0.0669246933658769  0.36101860428620813  0.09651060698532626  1.0000
  C   C38       1.0  0.43307786448477975  0.2645047763303197  0.9034860536683237  1.0000
  C   C39       1.0  0.9330732747493472  0.6389812709820786  0.9034853880136209  1.0000
  C   C40       1.0  0.5669273877707468  0.7354921124883445  0.09651164120063518  1.0000
  C   C41       1.0  0.9056004426759188  0.44625203764797305  0.2621924722020949  1.0000
  C   C42       1.0  0.59440029979109  0.18406014467891646  0.7378081796944754  1.0000
  C   C43       1.0  0.09440148627489721  0.5537497606600182  0.7378081033365121  1.0000
  C   C44       1.0  0.40559628230500516  0.815938729959619  0.2621905392153323  1.0000
  N   N1        1.0  0.9279899055373875  0.3513444836810392  0.14241688992638754  1.0000
  N   N2        1.0  0.57201097139977  0.20892968917557656  0.8575844532732119  1.0000
  N   N3        1.0  0.07201397975084937  0.6486514229544796  0.8575810486710012  1.0000
  N   N4        1.0  0.42798472813960586  0.7910731117668204  0.14241605947461972  1.0000
  O   O1        1.0  0.43989639247043755  0.1234195281061901  0.07372514352514509  1.0000
  O   O2        1.0  0.06010586201702491  0.0496944866286597  0.926277390233622  1.0000
  O   O3        1.0  0.560109331494438  0.8765822569017273  0.9262757549083742  1.0000
  O   O4        1.0  0.9398934222605817  0.9503063216317996  0.07372497485672365  1.0000
  O   O5        1.0  0.308958507345622  0.1319315160965999  0.23218414342747448  1.0000
  O   O6        1.0  0.1910420200642591  0.8997504319716042  0.7678189333858754  1.0000
  O   O7        1.0  0.6910384444972167  0.8680712681146899  0.767818130406951  1.0000
  O   O8        1.0  0.8089530994525448  0.10024648001616752  0.23217955388493997  1.0000
  O   O9        1.0  0.6393306459048064  0.3371431999129086  0.23116894212206057  1.0000
  O   O10       1.0  0.8606716383528833  0.10597314147032927  0.7688302108844595  1.0000
  O   O11       1.0  0.36067001169070784  0.6628585966795624  0.7688323525123834  1.0000
  O   O12       1.0  0.1393287578091034  0.8940257383147524  0.23116635073782288  1.0000
