data_image0
_chemical_formula_structural       Hg4H20C24S4O8
_chemical_formula_sum              "Hg4 H20 C24 S4 O8"
_cell_length_a       5.186877192212214
_cell_length_b       8.367536218133347
_cell_length_c       17.075804393822143
_cell_angle_alpha    98.8500540324052
_cell_angle_beta     89.99937386782769
_cell_angle_gamma    89.99927824700782

_space_group_name_H-M_alt    "P 1"
_space_group_IT_number       1

loop_
  _space_group_symop_operation_xyz
  'x, y, z'

loop_
  _atom_site_type_symbol
  _atom_site_label
  _atom_site_symmetry_multiplicity
  _atom_site_fract_x
  _atom_site_fract_y
  _atom_site_fract_z
  _atom_site_occupancy
  Hg  Hg1       1.0  0.23453246495017047  0.13016982152435475  0.23638609282988196  1.0000
  Hg  Hg2       1.0  0.734513110626132  0.36982949515865476  0.7636146684481419  1.0000
  Hg  Hg3       1.0  0.7654688367576268  0.8698278616795679  0.7636173860851727  1.0000
  Hg  Hg4       1.0  0.2654650557072316  0.6301766685020027  0.23638770874691775  1.0000
  H   H1        1.0  0.7625597587399183  0.3920353113296998  0.2731030413516535  1.0000
  H   H2        1.0  0.2625542350751929  0.1079564346324347  0.7269046555124066  1.0000
  H   H3        1.0  0.23746275030882194  0.607963576613628  0.7269011162243262  1.0000
  H   H4        1.0  0.7374316431114919  0.8920424720786289  0.2730971610608819  1.0000
  H   H5        1.0  0.6693490770066716  0.5753557900924164  0.4090199936685012  1.0000
  H   H6        1.0  0.16933040812426733  0.9246495762497491  0.5909895831316448  1.0000
  H   H7        1.0  0.33068499955916053  0.42465762557980474  0.5909835292899076  1.0000
  H   H8        1.0  0.8306728215398566  0.0753468974596672  0.4090138023451573  1.0000
  H   H9        1.0  0.9359440239718495  0.9188397214316668  0.05026461455013021  1.0000
  H   H10       1.0  0.43591176399027637  0.5811271278648249  0.9497188510453825  1.0000
  H   H11       1.0  0.06405535005896468  0.0811532168488753  0.9497267852509026  1.0000
  H   H12       1.0  0.5640741143922269  0.4188621401643431  0.0502775359006691  1.0000
  H   H13       1.0  0.6252747172197459  0.8774487600912338  0.0044385679017651235  1.0000
  H   H14       1.0  0.1252573179712968  0.6225377597411992  0.9955562293198598  1.0000
  H   H15       1.0  0.3747169450244456  0.12254295478670227  0.995554494287383  1.0000
  H   H16       1.0  0.8747362719461406  0.37746356125605024  0.004446359375769809  1.0000
  H   H17       1.0  0.7386839663597015  0.7577955815221812  0.07401999359737492  1.0000
  H   H18       1.0  0.23867626552499382  0.7421935464797117  0.9259740443222599  1.0000
  H   H19       1.0  0.26130576788968085  0.2421997571712922  0.925973934167807  1.0000
  H   H20       1.0  0.7613211802839857  0.2578089932870072  0.07402746726199891  1.0000
  C   C1        1.0  0.09115773979674908  0.29102686696464986  0.3285161738578354  1.0000
  C   C2        1.0  0.5911411201052984  0.20895557056193337  0.671487857140221  1.0000
  C   C3        1.0  0.9088628414253318  0.7089611309647098  0.6714877280815302  1.0000
  C   C4        1.0  0.408844758018418  0.7910469553053973  0.3285154102742567  1.0000
  C   C5        1.0  0.8786248034416319  0.39083849648033464  0.3260267362266164  1.0000
  C   C6        1.0  0.3786192284259541  0.10915826661778283  0.6739786217776073  1.0000
  C   C7        1.0  0.12139577771019817  0.6091591959375792  0.6739755721117862  1.0000
  C   C8        1.0  0.6213762894440791  0.8908467060809003  0.32602132087224334  1.0000
  C   C9        1.0  0.8270423150924343  0.4885370837731672  0.3997103401534333  1.0000
  C   C10       1.0  0.32702210009055216  0.011462541267796698  0.6002983377330793  1.0000
  C   C11       1.0  0.1729917615541225  0.5114666420610517  0.600294191136925  1.0000
  C   C12       1.0  0.672973417786764  0.9885363560985994  0.3997046493589238  1.0000
  C   C13       1.0  0.9971882088197505  0.46221961908130993  0.4591451292501959  1.0000
  C   C14       1.0  0.4971946551615218  0.03778575767647399  0.5408593307027942  1.0000
  C   C15       1.0  0.0028362281047832998  0.5377841021459135  0.5408599873284885  1.0000
  C   C16       1.0  0.5028143582734758  0.9622155539499674  0.45914442849997533  1.0000
  C   C17       1.0  0.6146522661031142  0.9897895181790234  0.12688472163132766  1.0000
  C   C18       1.0  0.1145856459397692  0.5102249160455302  0.8731122672332605  1.0000
  C   C19       1.0  0.3853606032929378  0.010217905966712201  0.8731113109694206  1.0000
  C   C20       1.0  0.8853770967885877  0.4897860809774314  0.12689106899924954  1.0000
  C   C21       1.0  0.7377903479674686  0.8805636366923224  0.058931613846226624  1.0000
  C   C22       1.0  0.23775761828457578  0.6194206987596829  0.9410573718136916  1.0000
  C   C23       1.0  0.2622051700877321  0.11943533973349221  0.9410614236725082  1.0000
  C   C24       1.0  0.7622263320261309  0.3805770217270704  0.05894142498398479  1.0000
  S   S1        1.0  0.2234299897725335  0.3168119304394566  0.4221165458370636  1.0000
  S   S2        1.0  0.7234095464398536  0.18317419154043796  0.5778820616032903  1.0000
  S   S3        1.0  0.7765886634405421  0.6831845478508215  0.5778862543398304  1.0000
  S   S4        1.0  0.27657825972763556  0.8168223008408833  0.42211898282833726  1.0000
  O   O1        1.0  0.36759230386235936  0.9656372399262453  0.13719923153147562  1.0000
  O   O2        1.0  0.8675530942922902  0.5343749734290598  0.8627885502358552  1.0000
  O   O3        1.0  0.6324109259021141  0.0343750826634093  0.8627895663289209  1.0000
  O   O4        1.0  0.13242314411613879  0.4656324136777671  0.1372121645904016  1.0000
  O   O5        1.0  0.7397030763404899  0.09580217099428272  0.1708590155186158  1.0000
  O   O6        1.0  0.23966084685896047  0.40417659826332647  0.8291325282099962  1.0000
  O   O7        1.0  0.2603136491610343  0.9041834684381271  0.8291370910624922  1.0000
  O   O8        1.0  0.7603192475777689  0.5958174798318155  0.17086774409929012  1.0000
