data_image0
_chemical_formula_structural       H10PbC12Br2N2
_chemical_formula_sum              "H10 Pb1 C12 Br2 N2"
_cell_length_a       4.166689527213764
_cell_length_b       8.970798779774844
_cell_length_c       9.612181157031513
_cell_angle_alpha    74.79989855019758
_cell_angle_beta     87.00455422352928
_cell_angle_gamma    80.61070969268448

_space_group_name_H-M_alt    "P 1"
_space_group_IT_number       1

loop_
  _space_group_symop_operation_xyz
  'x, y, z'

loop_
  _atom_site_type_symbol
  _atom_site_label
  _atom_site_symmetry_multiplicity
  _atom_site_fract_x
  _atom_site_fract_y
  _atom_site_fract_z
  _atom_site_occupancy
  H   H1        1.0  0.21745047813416812  0.5224045970579853  0.8371868662881141  1.0000
  H   H2        1.0  0.7821023188658459  0.47770681178586477  0.16272924712438905  1.0000
  H   H3        1.0  0.2041988902760535  0.6678603983504203  0.028749592771354932  1.0000
  H   H4        1.0  0.7952836247338694  0.3322434971031852  0.9711777691012884  1.0000
  H   H5        1.0  0.6806361647714284  0.011750469400624292  0.7227061527054843  1.0000
  H   H6        1.0  0.3189822320148892  0.9883328436214567  0.2772862708439873  1.0000
  H   H7        1.0  0.6768087440160286  0.8518049494390282  0.5470401151646483  1.0000
  H   H8        1.0  0.3231490505037299  0.14823161987325056  0.4529744303520502  1.0000
  H   H9        1.0  0.31913918391530405  0.8795829935327292  0.10669012845863077  1.0000
  H   H10       1.0  0.6807123147171694  0.12042209667008306  0.8933252644126596  1.0000
  Pb  Pb1       1.0  0.5013143794503775  0.4997711120012625  0.5000884814336359  1.0000
  C   C1        1.0  0.3179647047111728  0.6314812192093342  0.8171236796980991  1.0000
  C   C2        1.0  0.6816915451644332  0.3686021863001159  0.1828129563322918  1.0000
  C   C3        1.0  0.31110790556994045  0.7121752042616337  0.9228102223361033  1.0000
  C   C4        1.0  0.6884617942898072  0.2879160166812865  0.07713326996566387  1.0000
  C   C5        1.0  0.4425953304822982  0.8523356534775601  0.8931381530256813  1.0000
  C   C6        1.0  0.5570865019665517  0.14772033673877868  0.10684407341168617  1.0000
  C   C7        1.0  0.5744534139166856  0.9042683210709723  0.7539070245879528  1.0000
  C   C8        1.0  0.42522499092278565  0.09579931545990661  0.24607771146160215  1.0000
  C   C9        1.0  0.5715774353470521  0.8161024372177933  0.6550275697374629  1.0000
  C   C10       1.0  0.4282650034690219  0.1839366670869182  0.3449664166614284  1.0000
  C   C11       1.0  0.4366722297223615  0.9338213367683039  0.005977176891413088  1.0000
  C   C12       1.0  0.5631349851853643  0.0661971097549454  0.9940264243647405  1.0000
  Br  Br1       1.0  0.9468480508295084  0.7057466575463706  0.31613965231894525  1.0000
  Br  Br2       1.0  0.05525013731730866  0.2937633824170547  0.6840889738548341  1.0000
  N   N1        1.0  0.4461493512217343  0.6816379824551575  0.6850414036822555  1.0000
  N   N2        1.0  0.5537479093360389  0.31838791110456544  0.3149350337949741  1.0000
