data_image0
_chemical_formula_structural       CoH28C14N2O12
_chemical_formula_sum              "Co1 H28 C14 N2 O12"
_cell_length_a       7.118179088081595
_cell_length_b       8.052426577740443
_cell_length_c       8.725809990824006
_cell_angle_alpha    87.76662927304436
_cell_angle_beta     90.23924551199644
_cell_angle_gamma    76.65442611181165

_space_group_name_H-M_alt    "P 1"
_space_group_IT_number       1

loop_
  _space_group_symop_operation_xyz
  'x, y, z'

loop_
  _atom_site_type_symbol
  _atom_site_label
  _atom_site_symmetry_multiplicity
  _atom_site_fract_x
  _atom_site_fract_y
  _atom_site_fract_z
  _atom_site_occupancy
  Co  Co1       1.0  0.5000020070948351  0.9999985041465677  0.49999429800578815  1.0000
  H   H1        1.0  0.6999151034847343  0.31385698154731034  0.21273968224965503  1.0000
  H   H2        1.0  0.30010420936386584  0.6861323952234103  0.7872659910887592  1.0000
  H   H3        1.0  0.8458101306950212  0.45126186099509613  0.4226743024662056  1.0000
  H   H4        1.0  0.1542068649403134  0.5487247856436993  0.5773478608822131  1.0000
  H   H5        1.0  0.041401056432292235  0.2654190906354187  0.42343925852660663  1.0000
  H   H6        1.0  0.9585862345381102  0.7345716088960474  0.5765767952097819  1.0000
  H   H7        1.0  0.0003098272458004023  0.037897940810104606  0.26587455750800615  1.0000
  H   H8        1.0  0.9996907804400339  0.9621015502645918  0.7341233191309017  1.0000
  H   H9        1.0  0.014637549094075598  0.12410611038752252  0.07641650540325881  1.0000
  H   H10       1.0  0.9853774739029714  0.8759005878876563  0.9235978478199344  1.0000
  H   H11       1.0  0.8404848185591689  0.5565756812491927  0.18551686880321233  1.0000
  H   H12       1.0  0.15952457532851838  0.44342375507331866  0.8144881395944098  1.0000
  H   H13       1.0  0.6663013028767394  0.4569279319439587  0.9743678956078767  1.0000
  H   H14       1.0  0.3336967981513794  0.5430763284842612  0.025635913091463194  1.0000
  H   H15       1.0  0.8814449706236047  0.3167781838906906  0.9157567931844284  1.0000
  H   H16       1.0  0.11856058389684415  0.6832251052483828  0.0842491124257876  1.0000
  H   H17       1.0  0.18431711539768958  0.4213600205961825  0.2459366082673213  1.0000
  H   H18       1.0  0.8156882899067811  0.5786448783759255  0.7540737325399434  1.0000
  H   H19       1.0  0.1972959450326783  0.29406783226369987  0.08267049693878188  1.0000
  H   H20       1.0  0.802707220045363  0.7059394206270966  0.9173373845024814  1.0000
  H   H21       1.0  0.5674353123737106  0.9034517237422081  0.7776619861067858  1.0000
  H   H22       1.0  0.43258005560031165  0.0965429074817479  0.2223283360947406  1.0000
  H   H23       1.0  0.6858912885091472  0.04392662993279831  0.716498446361193  1.0000
  H   H24       1.0  0.3141111579833549  0.9560706014205065  0.2834783282321355  1.0000
  H   H25       1.0  0.3028054019453279  0.20376646753376093  0.7251976985210151  1.0000
  H   H26       1.0  0.6971634568063506  0.7962388777251234  0.27479454721941476  1.0000
  H   H27       1.0  0.4715702071755247  0.27762458641622345  0.6558986550563901  1.0000
  H   H28       1.0  0.5283887725268529  0.7223890408253693  0.34408621251471777  1.0000
  C   C1        1.0  0.886519431485695  0.3146395642640343  0.3987012187573314  1.0000
  C   C2        1.0  0.11347937475004233  0.6853482160065597  0.6013066204222782  1.0000
  C   C3        1.0  0.7665052833810931  0.2201399465060234  0.49985519354884644  1.0000
  C   C4        1.0  0.23347664986512484  0.7798627581632046  0.5001321942847242  1.0000
  C   C5        1.0  0.919637404782428  0.1212462571102577  0.17473055395473844  1.0000
  C   C6        1.0  0.08035748322350145  0.8787591396765817  0.8252721156575549  1.0000
  C   C7        1.0  0.7439143159152336  0.05273069769889819  0.13104062286413412  1.0000
  C   C8        1.0  0.25607673272345727  0.9472785519044958  0.8689629439607672  1.0000
  C   C9        1.0  0.9085460469163282  0.43711536174912174  0.13117364976250906  1.0000
  C   C10       1.0  0.09146610423847083  0.5628788364607189  0.8688295036699788  1.0000
  C   C11       1.0  0.8239891182892336  0.43883096209642497  0.9697323918618326  1.0000
  C   C12       1.0  0.17602334603809308  0.5611618778844586  0.03026974342083122  1.0000
  C   C13       1.0  0.12659667722146384  0.41690170100732615  0.12973910503866654  1.0000
  C   C14       1.0  0.8734177835525259  0.5830920885889769  0.870275499019833  1.0000
  N   N1        1.0  0.8495468907211999  0.2989463358873862  0.2307266955644636  1.0000
  N   N2        1.0  0.15047029120533043  0.70104556253807  0.7692787964394228  1.0000
  O   O1        1.0  0.6830243663166512  0.1210707584107595  0.4273844778780714  1.0000
  O   O2        1.0  0.3169832924810976  0.8789176470105602  0.5726114274971011  1.0000
  O   O3        1.0  0.7559308310817556  0.246650797404051  0.6413319685743843  1.0000
  O   O4        1.0  0.2440577040695828  0.7533603867779063  0.3586634438058099  1.0000
  O   O5        1.0  0.5836513128471026  0.1623723794731546  0.1161809252508732  1.0000
  O   O6        1.0  0.41634197697866426  0.8376447247730779  0.883805607703053  1.0000
  O   O7        1.0  0.7739001356708711  0.8933163001891273  0.11812927918407472  1.0000
  O   O8        1.0  0.2261162355407151  0.1066934800306427  0.8818559339900534  1.0000
  O   O9        1.0  0.6491809432840654  0.936933801556769  0.6909889892356063  1.0000
  O   O10       1.0  0.3508269165454508  0.063061717088317  0.3089980970392929  1.0000
  O   O11       1.0  0.3452143965040478  0.2559008919419695  0.629319056480057  1.0000
  O   O12       1.0  0.6547543676838432  0.7441061470179804  0.3706787634731583  1.0000
