data_image0
_chemical_formula_structural       Zn8H56C64N4O34
_chemical_formula_sum              "Zn8 H56 C64 N4 O34"
_cell_length_a       17.884226203734915
_cell_length_b       18.58661150686284
_cell_length_c       20.07078497712609
_cell_angle_alpha    61.280104319814654
_cell_angle_beta     63.750077073129425
_cell_angle_gamma    89.95909467558796

_space_group_name_H-M_alt    "P 1"
_space_group_IT_number       1

loop_
  _space_group_symop_operation_xyz
  'x, y, z'

loop_
  _atom_site_type_symbol
  _atom_site_label
  _atom_site_symmetry_multiplicity
  _atom_site_fract_x
  _atom_site_fract_y
  _atom_site_fract_z
  _atom_site_occupancy
  Zn  Zn1       1.0  0.12794729416260242  0.5404356916204447  0.9277017638630201  1.0000
  Zn  Zn2       1.0  0.9611430620652113  0.5492690393647379  0.06955898767006372  1.0000
  Zn  Zn3       1.0  0.969578465294873  0.3810015971041949  0.06061730246736369  1.0000
  Zn  Zn4       1.0  0.9532642994762313  0.544038069005559  0.9120304020402159  1.0000
  Zn  Zn5       1.0  0.37799654038679614  0.9716201367092057  0.05918814634533479  1.0000
  Zn  Zn6       1.0  0.5405909403419427  0.126654102415749  0.9222095300340173  1.0000
  Zn  Zn7       1.0  0.5383630803857072  0.9584439210717267  0.9145937575109572  1.0000
  Zn  Zn8       1.0  0.5561556228220896  0.9621589117853661  0.068515886845141  1.0000
  H   H1        1.0  0.4293134504753269  0.8190860785606517  0.35242628622192035  1.0000
  H   H2        1.0  0.2094290293637115  0.846628097767649  0.3161253183525332  1.0000
  H   H3        1.0  0.08555582007453205  0.6809773446821196  0.6314571173395152  1.0000
  H   H4        1.0  0.305000171411102  0.6697787700558352  0.6682485679656053  1.0000
  H   H5        1.0  0.6789156373557504  0.08531890138216616  0.637570148845292  1.0000
  H   H6        1.0  0.658625389638871  0.3033733881640685  0.6605558152422975  1.0000
  H   H7        1.0  0.8261414790449704  0.4221178177119  0.34729033075595345  1.0000
  H   H8        1.0  0.8329044333212038  0.20423502092714332  0.32385667625164427  1.0000
  H   H9        1.0  0.21431477770292423  0.3156639020726288  0.8844037065772454  1.0000
  H   H10       1.0  0.12983322664072022  0.22971541190138114  0.9857731112396736  1.0000
  H   H11       1.0  0.22134747868176408  0.14032923280802825  0.980244468524525  1.0000
  H   H12       1.0  0.30595251994836997  0.22732814436521664  0.8800883192721045  1.0000
  H   H13       1.0  0.2003056824630107  0.10901215563207961  0.12482112297004021  1.0000
  H   H14       1.0  0.27175752451798013  0.17107709321425804  0.128205948490276  1.0000
  H   H15       1.0  0.11125468256651058  0.20088571074464312  0.1291543409570579  1.0000
  H   H16       1.0  0.1848194974063446  0.2639617559081771  0.1294433431145876  1.0000
  H   H17       1.0  0.31945710982945724  0.4081902780790402  0.8842269380170293  1.0000
  H   H18       1.0  0.3065744271697568  0.38862450604354143  0.9839357379083467  1.0000
  H   H19       1.0  0.395088559116232  0.29609563065648103  0.9843098189500877  1.0000
  H   H20       1.0  0.4101043415365878  0.3179067380814402  0.883198196001473  1.0000
  H   H21       1.0  0.9067608916184395  0.8155020236899233  0.8767047492001511  1.0000
  H   H22       1.0  0.8883845757365164  0.7901478698993075  0.9807706096781885  1.0000
  H   H23       1.0  0.7997832231288556  0.8823580673954936  0.9809607775466276  1.0000
  H   H24       1.0  0.8178959527752525  0.9065597707649858  0.8773350132979232  1.0000
  H   H25       1.0  0.6764252560695782  0.7600703471872308  0.12019075035328089  1.0000
  H   H26       1.0  0.6052317789476191  0.6977132209073531  0.1169719601671915  1.0000
  H   H27       1.0  0.7640715505400449  0.6668926960489686  0.1197682736903403  1.0000
  H   H28       1.0  0.69345073240369  0.6061011146711196  0.11454682260097832  1.0000
  H   H29       1.0  0.8070589111099267  0.7275121198009558  0.8680064066054883  1.0000
  H   H30       1.0  0.7204226486455098  0.6413494566282836  0.9645903218361411  1.0000
  H   H31       1.0  0.6304971132133655  0.7321748612374677  0.9671168337452514  1.0000
  H   H32       1.0  0.716825955844932  0.8179907816549559  0.8700129607262569  1.0000
  H   H33       1.0  0.17405212302197265  0.8059950387041043  0.9182987273872173  1.0000
  H   H34       1.0  0.26422026274764926  0.7751968662202771  0.864953463690661  1.0000
  H   H35       1.0  0.3545271600381098  0.8713273255597044  0.8590453472779345  1.0000
  H   H36       1.0  0.263579780347051  0.9006035359658565  0.913828380204592  1.0000
  H   H37       1.0  0.4010639507421915  0.7499186642138795  0.945551120416738  1.0000
  H   H38       1.0  0.3453294485979015  0.6940104294837683  0.06157352362689749  1.0000
  H   H39       1.0  0.3091137549822562  0.6523929830258343  0.9540193696281065  1.0000
  H   H40       1.0  0.2524019951820691  0.5986647659270686  0.0699220107366756  1.0000
  H   H41       1.0  0.09061578965548732  0.7265047265202256  0.0858186036738502  1.0000
  H   H42       1.0  0.12221613958705997  0.6414930395878429  0.14740245101016572  1.0000
  H   H43       1.0  0.2141669363894465  0.7361050301230563  0.1416196192292176  1.0000
  H   H44       1.0  0.1818508982201692  0.8209239436719501  0.0808425908439787  1.0000
  H   H45       1.0  0.912763925927855  0.2814898450390118  0.9050028023629437  1.0000
  H   H46       1.0  0.8749002252355847  0.36409590568928263  0.8472315656470855  1.0000
  H   H47       1.0  0.7892015395126676  0.26516629534307157  0.8520259485488212  1.0000
  H   H48       1.0  0.8247123441428953  0.18257788372588377  0.9128995016912002  1.0000
  H   H49       1.0  0.6590823896307468  0.3061069483484502  0.9303561399098259  1.0000
  H   H50       1.0  0.600176518486883  0.2501306174650963  0.046325522429768305  1.0000
  H   H51       1.0  0.7457951138457303  0.4023402099265639  0.9282563171474932  1.0000
  H   H52       1.0  0.6877449675058358  0.34436609964605225  0.0443468982838482  1.0000
  H   H53       1.0  0.8301979913020147  0.1964997316561252  0.0725238630463494  1.0000
  H   H54       1.0  0.7399930016776538  0.22306829183717275  0.13009574472081198  1.0000
  H   H55       1.0  0.6487064155121232  0.12924084739668024  0.1344583172277538  1.0000
  H   H56       1.0  0.7386661070561544  0.09972966382436252  0.080641381150734  1.0000
  C   C1        1.0  0.1391173912691031  0.6352774762062909  0.0059932064278100956  1.0000
  C   C2        1.0  0.880669633892161  0.37605179735621164  0.2284561643172083  1.0000
  C   C3        1.0  0.1457976334488009  0.36431726445324136  0.000279740472471699  1.0000
  C   C4        1.0  0.8640445490879145  0.36940836791536924  0.9841610358170456  1.0000
  C   C5        1.0  0.13054180431245035  0.6227478654794681  0.7569858651479534  1.0000
  C   C6        1.0  0.8621925707496773  0.6437892509346881  0.9872702805531758  1.0000
  C   C7        1.0  0.3634922033860448  0.14497900466634656  0.9951898181471962  1.0000
  C   C8        1.0  0.6122838148033265  0.131490660895878  0.7558716582141186  1.0000
  C   C9        1.0  0.3593305565052772  0.8642272887466831  0.9942251677642916  1.0000
  C   C10       1.0  0.6447919974948774  0.8659320173066336  0.9893943499168002  1.0000
  C   C11       1.0  0.3829041950755752  0.8871312972563461  0.2268878676393626  1.0000
  C   C12       1.0  0.6483895130164185  0.1393230125526729  0.992038371793299  1.0000
  C   C13       1.0  0.35947839143900506  0.8067975726332152  0.3808063372072326  1.0000
  C   C14       1.0  0.23528601450403394  0.8215298584353832  0.3603048453685958  1.0000
  C   C15       1.0  0.18058358598179322  0.7739053640277974  0.4497023622917666  1.0000
  C   C16       1.0  0.2110641355789724  0.741359739408523  0.5106940384125949  1.0000
  C   C17       1.0  0.15541245135798923  0.6963059636191957  0.6031753392858619  1.0000
  C   C18       1.0  0.27919571356228795  0.6892316189897941  0.6240754339961043  1.0000
  C   C19       1.0  0.3341342215694496  0.7312205637874456  0.5347611582738453  1.0000
  C   C20       1.0  0.3039653270761206  0.7597902123276368  0.4735095217705522  1.0000
  C   C21       1.0  0.3257120486126084  0.8372064260566462  0.32532653980305065  1.0000
  C   C22       1.0  0.1888051730884187  0.6706630311839846  0.6588525663424888  1.0000
  C   C23       1.0  0.6936341900891421  0.1542024640019692  0.6057728107528105  1.0000
  C   C24       1.0  0.6826269950726384  0.2773282646885065  0.6190520367816319  1.0000
  C   C25       1.0  0.7324429652285004  0.3303580240825923  0.5293320991081957  1.0000
  C   C26       1.0  0.7637754524680106  0.2994280847544104  0.471865359806678  1.0000
  C   C27       1.0  0.8093182065313725  0.3532728627625302  0.3789280439101291  1.0000
  C   C28       1.0  0.8137183554394483  0.23028374433117452  0.36543588267190336  1.0000
  C   C29       1.0  0.7712694323895947  0.17714802863553558  0.4553407991742091  1.0000
  C   C30       1.0  0.7430130479383692  0.2080067537507375  0.5129229304815368  1.0000
  C   C31       1.0  0.663721994323815  0.18829463231584503  0.65762393134397  1.0000
  C   C32       1.0  0.8331972269795643  0.3193335579067025  0.3268393218527094  1.0000
  C   C33       1.0  0.19770687418099436  0.2652069246658826  0.9513851838259697  1.0000
  C   C34       1.0  0.2582386703350393  0.20580427461499806  0.9485249041041612  1.0000
  C   C35       1.0  0.306574503077421  0.20555071041976436  0.9963136439050474  1.0000
  C   C36       1.0  0.23837404697918171  0.1741373816145924  0.09254360636992233  1.0000
  C   C37       1.0  0.1795383220107922  0.2352193525818649  0.09435458176025692  1.0000
  C   C38       1.0  0.20620176339087226  0.30686108519877553  0.9995160872933653  1.0000
  C   C39       1.0  0.30090067466733217  0.35703863023676524  0.9514050747464254  1.0000
  C   C40       1.0  0.36024626842768004  0.29663395754646155  0.9507399528509881  1.0000
  C   C41       1.0  0.8559606283537278  0.7929016148369998  0.944466381115724  1.0000
  C   C42       1.0  0.7967391263952021  0.8539637202269575  0.944887202467946  1.0000
  C   C43       1.0  0.7017809348214356  0.8047053721962314  0.9888018494001543  1.0000
  C   C44       1.0  0.6733304943352748  0.7322146979508444  0.08377420786250411  1.0000
  C   C45       1.0  0.7320486944027563  0.670978892468959  0.08285932808129101  1.0000
  C   C46       1.0  0.8018222107582031  0.7019292624212599  0.9874078144129185  1.0000
  C   C47       1.0  0.7575141529169472  0.7059114455010943  0.9357431203657497  1.0000
  C   C48       1.0  0.6979022477692779  0.7662802702917874  0.9370660522545863  1.0000
  C   C49       1.0  0.2298159909325292  0.782671643084747  0.9211581400686697  1.0000
  C   C50       1.0  0.28987664812314046  0.8460907817532471  0.9175705633541541  1.0000
  C   C51       1.0  0.2985148416588644  0.8008074884011265  0.0007671650899539007  1.0000
  C   C52       1.0  0.336553761530034  0.7253036847189094  0.004035714589967697  1.0000
  C   C53       1.0  0.27543390293028835  0.6615328594842893  0.0090728450213859  1.0000
  C   C54       1.0  0.19648651952718407  0.6943198101156797  0.007350298099979097  1.0000
  C   C55       1.0  0.14740489842186832  0.7042565875618224  0.0861590621298589  1.0000
  C   C56       1.0  0.2081097745047558  0.7670550487266184  0.0825030005708385  1.0000
  C   C57       1.0  0.8540583606950563  0.30082577054859894  0.9068674806194608  1.0000
  C   C58       1.0  0.7958976536184181  0.23546732708059184  0.910711562445421  1.0000
  C   C59       1.0  0.7047589974054418  0.19942738695672085  0.9933463676767857  1.0000
  C   C60       1.0  0.6658128535346534  0.274945951619003  0.9889742446636446  1.0000
  C   C61       1.0  0.7239599768856166  0.3384262508420834  0.9872256519387292  1.0000
  C   C62       1.0  0.8035258978916887  0.30736719942890994  0.9885899605500299  1.0000
  C   C63       1.0  0.7733052728492709  0.21825214016127606  0.0719912337214126  1.0000
  C   C64       1.0  0.7133200069187852  0.1548326611665729  0.07575190381133722  1.0000
  N   N1        1.0  0.42754180203857567  0.7451763201202438  0.5053151557927223  1.0000
  N   N2        1.0  0.08705451328011549  0.7576840091232313  0.47973843274834854  1.0000
  N   N3        1.0  0.7563451426372224  0.08489437372150377  0.4900041532403776  1.0000
  N   N4        1.0  0.7529919062568948  0.42252033079264345  0.4948659765499956  1.0000
  O   O1        1.0  0.0011729751352972928  0.505592958615118  0.9913460263687526  1.0000
  O   O2        1.0  0.177279813502679  0.6151195285303146  0.9490611224397938  1.0000
  O   O3        1.0  0.8948529266658484  0.4560798593355031  0.19535107091952142  1.0000
  O   O4        1.0  0.0647256037487836  0.3275351792332728  0.0476137151355402  1.0000
  O   O5        1.0  0.05790251832527821  0.6118791069268709  0.059444846264426594  1.0000
  O   O6        1.0  0.17985329456681842  0.4445290516226734  0.9527319705753923  1.0000
  O   O7        1.0  0.9024592818083477  0.3379203256666017  0.18712551308433234  1.0000
  O   O8        1.0  0.8971639365293309  0.3359110244274532  0.032951109503635216  1.0000
  O   O9        1.0  0.049122621147354564  0.6074193899260294  0.78730283216197  1.0000
  O   O10       1.0  0.8787974907615919  0.4492419482274813  0.931646748512165  1.0000
  O   O11       1.0  0.16935587935488877  0.6017691788369531  0.8008959180700828  1.0000
  O   O12       1.0  0.8889557552789569  0.6242723502510261  0.0416612556477958  1.0000
  O   O13       1.0  0.8823450765637869  0.6200537065916337  0.9329657220893921  1.0000
  O   O14       1.0  0.5045904310223079  0.002104707271854526  0.9925039723007245  1.0000
  O   O15       1.0  0.3256331112837145  0.06687406279523601  0.032569976922353305  1.0000
  O   O16       1.0  0.585725544227948  0.16933246164277452  0.7972661687366625  1.0000
  O   O17       1.0  0.43904329592677255  0.8884254937312123  0.9352401991128831  1.0000
  O   O18       1.0  0.4447702473441949  0.1760962035439562  0.9570830780913654  1.0000
  O   O19       1.0  0.32613822132240233  0.8891704415865647  0.047520325433779896  1.0000
  O   O20       1.0  0.6001310568354868  0.05156911702815146  0.7889198122169248  1.0000
  O   O21       1.0  0.6168561293780782  0.8889317840601765  0.9357634290942869  1.0000
  O   O22       1.0  0.4640941528175587  0.8961959420598615  0.19511034723556261  1.0000
  O   O23       1.0  0.6300845042710606  0.8900976261313076  0.04287924690335391  1.0000
  O   O24       1.0  0.3431494961230968  0.9158877207725312  0.18424460952696362  1.0000
  O   O25       1.0  0.6320850537949523  0.17363889732406076  0.9292078506786723  1.0000
  O   O26       1.0  0.622030137412679  0.06032943177629589  0.051986917306891214  1.0000
  O   O27       1.0  0.47494300284318314  0.7376944435164532  0.4427948795230208  1.0000
  O   O28       1.0  0.45175278493905313  0.7614871090391234  0.5467715775831579  1.0000
  O   O29       1.0  0.03954979621105535  0.6857197615060285  0.5430830803551318  1.0000
  O   O30       1.0  0.06285047076947592  0.8168388024754308  0.4380035289859947  1.0000
  O   O31       1.0  0.7649002193941213  0.039393851852665335  0.5545657109575614  1.0000
  O   O32       1.0  0.7382210433483961  0.05965392043965071  0.4506409210462294  1.0000
  O   O33       1.0  0.8271252009942174  0.4666826549405769  0.43294568046289333  1.0000
  O   O34       1.0  0.6951771133247107  0.4489678766895225  0.531837463516581  1.0000
