data_image0
_chemical_formula_structural       Zn2H40C60N12O14
_chemical_formula_sum              "Zn2 H40 C60 N12 O14"
_cell_length_a       7.477706100831093
_cell_length_b       10.8904624342403
_cell_length_c       19.046
_cell_angle_alpha    79.95048393772065
_cell_angle_beta     79.4706957150934
_cell_angle_gamma    73.21816198606611

_space_group_name_H-M_alt    "P 1"
_space_group_IT_number       1

loop_
  _space_group_symop_operation_xyz
  'x, y, z'

loop_
  _atom_site_type_symbol
  _atom_site_label
  _atom_site_symmetry_multiplicity
  _atom_site_fract_x
  _atom_site_fract_y
  _atom_site_fract_z
  _atom_site_occupancy
  Zn  Zn1       1.0  0.2770246124075299  0.7177078504595046  0.03369423229541719  1.0000
  Zn  Zn2       1.0  0.6212613450871984  0.21198981630201533  0.5530126097979745  1.0000
  H   H1        1.0  0.2701697506893339  0.9951947804332448  0.9150213950718608  1.0000
  H   H2        1.0  0.8481259880324216  0.8184701855137888  0.028740126753810106  1.0000
  H   H3        1.0  0.6779770370989127  0.0479655757879414  0.9463622865146775  1.0000
  H   H4        1.0  0.8128273529141552  0.5401620994293097  0.08978678221150461  1.0000
  H   H5        1.0  0.1350103103052191  0.0960317407814415  0.7808399012857308  1.0000
  H   H6        1.0  0.7629862939168532  0.27491997082425  0.9570689440026285  1.0000
  H   H7        1.0  0.5855364835353637  0.4187799444398977  0.1609201774696771  1.0000
  H   H8        1.0  0.6829129486789896  0.2565343918971479  0.2646330978906875  1.0000
  H   H9        1.0  0.8839689804818532  0.5085248598740719  0.7547909935641073  1.0000
  H   H10       1.0  0.4020660210657069  0.2080175098864459  0.71020946997821  1.0000
  H   H11       1.0  0.8959338566938299  0.4294627115107517  0.6298985392803758  1.0000
  H   H12       1.0  0.7890958847146123  0.6663928475673231  0.8099748629900176  1.0000
  H   H13       1.0  0.5276697340087111  0.44312930261180844  0.9835800467225652  1.0000
  H   H14       1.0  0.9624008291689422  0.0893590010782432  0.1932903561366359  1.0000
  H   H15       1.0  0.09650320393130578  0.0037498495186696  0.4106844333804744  1.0000
  H   H16       1.0  0.19185164642711774  0.400881836278181  0.5172920828749241  1.0000
  H   H17       1.0  0.5478863887703227  0.826076276980082  0.9010635627762652  1.0000
  H   H18       1.0  0.987631249661291  0.8563807095617052  0.19306580113241986  1.0000
  H   H19       1.0  0.14454427862174407  0.7683922364091701  0.40580387030383486  1.0000
  H   H20       1.0  0.6987001035691875  0.9219029705348163  0.49525718052296247  1.0000
  H   H21       1.0  0.4225251588850227  0.30491973417750984  0.41739379038182983  1.0000
  H   H22       1.0  0.2482722087739616  0.48439892580296373  0.3060272176356875  1.0000
  H   H23       1.0  0.3987107022498506  0.1445689340740373  0.32582068159887  1.0000
  H   H24       1.0  0.2738955964453496  0.059101961487698404  0.5868993762171968  1.0000
  H   H25       1.0  0.6436141127778965  0.7462277918464083  0.4621322247512012  1.0000
  H   H26       1.0  0.49988789388214616  0.0022767979796114  0.2682528832542346  1.0000
  H   H27       1.0  0.5228645802739037  0.9488154190406135  0.6674964493641937  1.0000
  H   H28       1.0  0.4453639770970879  0.8065029716642941  0.7774412716905132  1.0000
  H   H29       1.0  0.615961884046122  0.5879980698947095  0.27398993237459013  1.0000
  H   H30       1.0  0.9496973451585047  0.45878833374600003  0.3376715304854656  1.0000
  H   H31       1.0  0.47192343843325807  0.5294996436403494  0.49801137594993605  1.0000
  H   H32       1.0  0.44216421545855406  0.6385441456867299  0.1852942302604177  1.0000
  H   H33       1.0  0.49726206518010224  0.0238986411547089  0.1611615489543254  1.0000
  H   H34       1.0  0.3575956602201416  0.6293914951850113  0.7189119648381705  1.0000
  H   H35       1.0  0.05974205639724063  0.5965791028917807  0.9349490404720697  1.0000
  H   H36       1.0  0.9718203528994281  0.24184643347813053  0.4431252270073358  1.0000
  H   H37       1.0  0.3660677182478763  0.9872714460878882  0.04291314147589989  1.0000
  H   H38       1.0  0.5093623630409353  0.39345371032941057  0.73479388250945  1.0000
  H   H39       1.0  0.2061861880898306  0.3580685556632944  0.9486589703387764  1.0000
  H   H40       1.0  0.6360305348028205  0.07366031458416701  0.7964462251203771  1.0000
  C   C1        1.0  0.13596915940559023  0.9724761280360213  0.9344304196048158  1.0000
  C   C2        1.0  0.9092433249308343  0.8895867538420675  0.9933167868705014  1.0000
  C   C3        1.0  0.1627862507374473  0.520864447224902  0.10998422939454142  1.0000
  C   C4        1.0  0.8239382368011335  0.0023396662330839005  0.9541552983981276  1.0000
  C   C5        1.0  0.037971578722128606  0.439948168986092  0.151003666025403  1.0000
  C   C6        1.0  0.9480093929070107  0.17495171017151992  0.8727037218738899  1.0000
  C   C7        1.0  0.09806196951475947  0.3431958612994634  0.2077643771700224  1.0000
  C   C8        1.0  0.8546290411684152  0.46529181276677184  0.13425445356602952  1.0000
  C   C9        1.0  0.045428458020545265  0.18255393282221632  0.8030159798563756  1.0000
  C   C10       1.0  0.8299807851934203  0.2844314539727151  0.9013600831216593  1.0000
  C   C11       1.0  0.29223958060918415  0.301894320379624  0.2312644182947778  1.0000
  C   C12       1.0  0.9668304901453125  0.2787897536264694  0.2469670957411907  1.0000
  C   C13       1.0  0.727444275453216  0.39930142510626615  0.1742502541871218  1.0000
  C   C14       1.0  0.018968290582144203  0.3040328082015904  0.7618793215282054  1.0000
  C   C15       1.0  0.8062781403238546  0.40450691649380144  0.8587968238377995  1.0000
  C   C16       1.0  0.782660784474608  0.30693635430812805  0.23233841360982405  1.0000
  C   C17       1.0  0.8991103706004963  0.41516647067106766  0.7882056722940902  1.0000
  C   C18       1.0  0.030703546752946  0.059909576743848406  0.3017349536367746  1.0000
  C   C19       1.0  0.3065698480215743  0.2631307224922779  0.6723005232686816  1.0000
  C   C20       1.0  0.04474792666318448  0.3816257738414492  0.6290140043014105  1.0000
  C   C21       1.0  0.7029436945963708  0.6427350401836094  0.8599371973037933  1.0000
  C   C22       1.0  0.5672698115526771  0.524516609149714  0.9496753609198976  1.0000
  C   C23       1.0  0.9983105357103241  0.0196439112004612  0.2402574690273909  1.0000
  C   C24       1.0  0.07687949231329579  0.9702283461733999  0.36259515423709127  1.0000
  C   C25       1.0  0.19307738645040468  0.3666495886603657  0.5742152817836725  1.0000
  C   C26       1.0  0.5785893653428215  0.7218126638093239  0.905436956676688  1.0000
  C   C27       1.0  0.01386937013539582  0.8898624069534479  0.239947703122354  1.0000
  C   C28       1.0  0.10089347885615745  0.8393308392199189  0.35994002263278446  1.0000
  C   C29       1.0  0.06981655841065043  0.7977497763731024  0.2985951307126626  1.0000
  C   C30       1.0  0.09579237558332915  0.6607985402121558  0.2897808894171021  1.0000
  C   C31       1.0  0.6161667525821669  0.0037537183342664  0.4634934807630273  1.0000
  C   C32       1.0  0.4728507143447729  0.20057487587918393  0.4214164990326026  1.0000
  C   C33       1.0  0.9187053105331415  0.06052278401617881  0.6065985592684697  1.0000
  C   C34       1.0  0.45962938465949316  0.12209401705951  0.3752430080154951  1.0000
  C   C35       1.0  0.057033092824127586  0.988082930159635  0.6569734462500918  1.0000
  C   C36       1.0  0.5700631171098322  0.8866387163561457  0.36863916039425243  1.0000
  C   C37       1.0  0.009866800043383209  0.9089540447272456  0.7204999481407555  1.0000
  C   C38       1.0  0.24227356368032818  0.9994291991055988  0.6372791995154046  1.0000
  C   C39       1.0  0.6168821061606877  0.7627050774796373  0.4065166241027923  1.0000
  C   C40       1.0  0.5371553535047369  0.9050291313027472  0.29731859716322606  1.0000
  C   C41       1.0  0.8206482249479375  0.8779358156677333  0.742041095892759  1.0000
  C   C42       1.0  0.1548541157487476  0.8411946411344078  0.7612638074683602  1.0000
  C   C43       1.0  0.3802658816185413  0.9373308399370047  0.6811760155798083  1.0000
  C   C44       1.0  0.6329104759475326  0.6578350274638396  0.3707821098082604  1.0000
  C   C45       1.0  0.5478712630484278  0.7983861965390275  0.264007081664893  1.0000
  C   C46       1.0  0.3366076818833009  0.8571999312646454  0.7438083947708733  1.0000
  C   C47       1.0  0.5995558765041196  0.6728634416555082  0.2998453360341102  1.0000
  C   C48       1.0  0.19875870711751273  0.6276679378359589  0.8260699185832436  1.0000
  C   C49       1.0  0.8580445738963788  0.4390177188346911  0.3868494069048296  1.0000
  C   C50       1.0  0.6066137221926693  0.4793259413496643  0.4705950956774885  1.0000
  C   C51       1.0  0.4429086943925569  0.7366302275508758  0.16209629695910618  1.0000
  C   C52       1.0  0.47346570483721  0.9374236915113627  0.14787660067741365  1.0000
  C   C53       1.0  0.32457079314553977  0.570253747153025  0.7692260102101116  1.0000
  C   C54       1.0  0.1560620606221831  0.5508448665001637  0.8909127322025087  1.0000
  C   C55       1.0  0.8670478398552459  0.3340693253030338  0.43881669003195617  1.0000
  C   C56       1.0  0.40419471861538636  0.9190603582739456  0.09000374364939741  1.0000
  C   C57       1.0  0.40850744527993754  0.43777486182373343  0.7781986770820666  1.0000
  C   C58       1.0  0.23879047994179098  0.4181841468377527  0.8984780988764952  1.0000
  C   C59       1.0  0.36715955365914965  0.3592485444207796  0.8424856671515286  1.0000
  C   C60       1.0  0.4558949647121294  0.2170405550656227  0.8516715879463205  1.0000
  N   N1        1.0  0.10287620154944924  0.8726007189576493  0.9808948355368798  1.0000
  N   N2        1.0  0.38517467049869225  0.7939931564271347  0.0996559039388956  1.0000
  N   N3        1.0  0.4946112314052584  0.6470855233239163  0.9606823014140105  1.0000
  N   N4        1.0  0.969405626020375  0.05361307935758931  0.9169367346285497  1.0000
  N   N5        1.0  0.11865764097031219  0.315183701959846  0.6908385355092861  1.0000
  N   N6        1.0  0.6952411158318837  0.5175575770922408  0.88822343422315  1.0000
  N   N7        1.0  0.35563503899562215  0.2935357442794597  0.6020701955774115  1.0000
  N   N8        1.0  0.5697481126786244  0.12597443910461692  0.47626487389973693  1.0000
  N   N9        1.0  0.7093612333650937  0.3599458984323789  0.4905182455626259  1.0000
  N   N10       1.0  0.5507139835364256  0.997334235459114  0.4021174065327031  1.0000
  N   N11       1.0  0.6931705348746817  0.5303914056357614  0.4078301895392825  1.0000
  N   N12       1.0  0.49833793297643325  0.8207160329686118  0.1934264035581492  1.0000
  O   O1        1.0  0.08220111030063752  0.6233542084438355  0.0688893805226414  1.0000
  O   O2        1.0  0.33555696537832347  0.49287356637107393  0.11498256313250721  1.0000
  O   O3        1.0  0.40412372121576806  0.200658055414543  0.20962005303150727  1.0000
  O   O4        1.0  0.3245022024637975  0.3622284996353855  0.2775789516413383  1.0000
  O   O5        1.0  0.024746194114626995  0.1857882626624132  0.3052697403849507  1.0000
  O   O6        1.0  0.9739223418794154  0.07960378254708192  0.5403109830704906  1.0000
  O   O7        1.0  0.7438389452825476  0.10533140627589431  0.6347181286154111  1.0000
  O   O8        1.0  0.011129600794319603  0.6314255249858292  0.2479363255425895  1.0000
  O   O9        1.0  0.22029624361546496  0.5730392943838183  0.327533992366952  1.0000
  O   O10       1.0  0.8059840570604347  0.784747654351051  0.7147881659309192  1.0000
  O   O11       1.0  0.697008113358713  0.9393542304949278  0.7886782700253149  1.0000
  O   O12       1.0  0.10916050918770281  0.7573322598174741  0.8225054754834672  1.0000
  O   O13       1.0  0.5762434060927716  0.1761877967551868  0.7948110308570122  1.0000
  O   O14       1.0  0.41847579797414625  0.1453320579508031  0.907608536538099  1.0000
