data_image0
_chemical_formula_structural       Ag8H24C32N8O24
_chemical_formula_sum              "Ag8 H24 C32 N8 O24"
_cell_length_a       7.379657007053818
_cell_length_b       10.844766760048767
_cell_length_c       13.648289361381083
_cell_angle_alpha    89.99974104610634
_cell_angle_beta     102.53339727638814
_cell_angle_gamma    90.00027974125103

_space_group_name_H-M_alt    "P 1"
_space_group_IT_number       1

loop_
  _space_group_symop_operation_xyz
  'x, y, z'

loop_
  _atom_site_type_symbol
  _atom_site_label
  _atom_site_symmetry_multiplicity
  _atom_site_fract_x
  _atom_site_fract_y
  _atom_site_fract_z
  _atom_site_occupancy
  Ag  Ag1       1.0  0.19669710478755323  0.4711238648927606  0.490683620031092  1.0000
  Ag  Ag2       1.0  0.3032978161329751  0.9711218348148946  0.509315248490509  1.0000
  Ag  Ag3       1.0  0.8033050907217145  0.5288734205277096  0.5093170866520822  1.0000
  Ag  Ag4       1.0  0.6966932741123912  0.0288708400719315  0.4906841599786206  1.0000
  Ag  Ag5       1.0  0.5105362830821393  0.20938773188773047  0.5886687156483958  1.0000
  Ag  Ag6       1.0  0.9894617619636036  0.7093905727585864  0.4113289156619259  1.0000
  Ag  Ag7       1.0  0.4894603575086691  0.7906086314256983  0.41132987627237577  1.0000
  Ag  Ag8       1.0  0.010536267937005999  0.29060855686584824  0.5886705713591242  1.0000
  H   H1        1.0  0.7549951566794277  0.892278194116301  0.8044620397509589  1.0000
  H   H2        1.0  0.7450109287808289  0.3922737677855679  0.1955439354556106  1.0000
  H   H3        1.0  0.24500425565912556  0.10772370183163824  0.19553394541021868  1.0000
  H   H4        1.0  0.2549926583316092  0.6077272060454748  0.8044591319799039  1.0000
  H   H5        1.0  0.8770154682485013  0.5693903316665966  0.9916139060275881  1.0000
  H   H6        1.0  0.6229775871003654  0.0693967046175814  0.008388040029949233  1.0000
  H   H7        1.0  0.12298811544170007  0.43061525268940654  0.008386962921179  1.0000
  H   H8        1.0  0.37702044510730554  0.9306079576251349  0.9916129126364905  1.0000
  H   H9        1.0  0.9142577101885437  0.7943007884433229  0.9667363983961295  1.0000
  H   H10       1.0  0.5857450166311793  0.2943050505877808  0.0332695354201107  1.0000
  H   H11       1.0  0.08574170559690938  0.20570479591333424  0.0332617852397945  1.0000
  H   H12       1.0  0.41425579188631184  0.7056986895549217  0.9667317418028389  1.0000
  H   H13       1.0  0.5274511043044185  0.0354859880280713  0.7233839549669625  1.0000
  H   H14       1.0  0.9725459093907958  0.5354849286353345  0.2766156446187154  1.0000
  H   H15       1.0  0.47254276112188615  0.9645112973832825  0.2766150452239842  1.0000
  H   H16       1.0  0.027454897962194004  0.4645123567832671  0.7233848997868647  1.0000
  H   H17       1.0  0.7185304857961511  0.11932572448193923  0.7586716214516612  1.0000
  H   H18       1.0  0.7814656392124845  0.6193251469667446  0.24132830636615668  1.0000
  H   H19       1.0  0.2814647666356437  0.8806697167258761  0.241326808192845  1.0000
  H   H20       1.0  0.21853378112680133  0.3806712163441688  0.7586728085898642  1.0000
  H   H21       1.0  0.5228880603851991  0.16896123952594883  0.7864245781345858  1.0000
  H   H22       1.0  0.977111133669183  0.6689614764834175  0.21357406512571228  1.0000
  H   H23       1.0  0.4771085813509189  0.831035123785398  0.21357474661287768  1.0000
  H   H24       1.0  0.0228868962286839  0.3310367310372797  0.7864254218966735  1.0000
  C   C1        1.0  0.7408991791402072  0.7939551355374235  0.8168014803313212  1.0000
  C   C2        1.0  0.7590938296591644  0.29395359305029706  0.18320405137590257  1.0000
  C   C3        1.0  0.2591043988097397  0.2060458383102954  0.1831957244906448  1.0000
  C   C4        1.0  0.24090559069656342  0.7060483028830548  0.8167970635721247  1.0000
  C   C5        1.0  0.8118989023098492  0.6134715923352019  0.9211585392157102  1.0000
  C   C6        1.0  0.6880985795018688  0.11347317211660618  0.07884376627645652  1.0000
  C   C7        1.0  0.18810884240777168  0.3865321478251787  0.0788406180884067  1.0000
  C   C8        1.0  0.3118966763850324  0.8865287238111461  0.9211568618388026  1.0000
  C   C9        1.0  0.7036653542948343  0.5447813576860697  0.8435586397765604  1.0000
  C   C10       1.0  0.7963206048232152  0.044781936701305404  0.1564367034135046  1.0000
  C   C11       1.0  0.2963410045516568  0.4552205382607896  0.156441820906025  1.0000
  C   C12       1.0  0.20367325946873652  0.9552190371270938  0.8435615639454213  1.0000
  C   C13       1.0  0.6176620349636152  0.5955940042379454  0.7507572348179394  1.0000
  C   C14       1.0  0.8823297890909032  0.09558973291934339  0.2492452060693964  1.0000
  C   C15       1.0  0.3823457108910945  0.4044069696091271  0.24924265531686976  1.0000
  C   C16       1.0  0.11766408092212541  0.9044093966911577  0.75075672542566  1.0000
  C   C17       1.0  0.8299989857880306  0.7395379980822341  0.9069945392185729  1.0000
  C   C18       1.0  0.6699936972873815  0.2395394364735354  0.09300968410909864  1.0000
  C   C19       1.0  0.17000320745253822  0.26046666417233416  0.0930047018005524  1.0000
  C   C20       1.0  0.33000433606012075  0.7604633815596105  0.9069920013867047  1.0000
  C   C21       1.0  0.5171886374242404  0.5154466656119967  0.6654341408159395  1.0000
  C   C22       1.0  0.9828096453138996  0.015444089845274801  0.3345656789677989  1.0000
  C   C23       1.0  0.48281633326048723  0.4845533861255121  0.3345661575917163  1.0000
  C   C24       1.0  0.0171856105675303  0.9845559618749963  0.665434949150125  1.0000
  C   C25       1.0  0.6377638781489878  0.7230324979251179  0.7386252692688728  1.0000
  C   C26       1.0  0.8622259259133357  0.2230290121873607  0.2613757459086798  1.0000
  C   C27       1.0  0.3622410890998112  0.2769675538186505  0.2613728306587078  1.0000
  C   C28       1.0  0.1377707181271077  0.7769719616385231  0.7386250444855023  1.0000
  C   C29       1.0  0.5523547981491035  0.7836646430387405  0.6406157279255851  1.0000
  C   C30       1.0  0.9476450856741677  0.2836590416517026  0.3593877136105803  1.0000
  C   C31       1.0  0.44764878208051334  0.216332642389844  0.3593829425550936  1.0000
  C   C32       1.0  0.052351561791247996  0.716338243752965  0.6406152752690133  1.0000
  N   N1        1.0  0.6785219924449635  0.41408873491970166  0.8614932619520843  1.0000
  N   N2        1.0  0.8214828219189343  0.9140916434067493  0.1385044268351621  1.0000
  N   N3        1.0  0.3214829839745477  0.5859140831186097  0.1385107005850443  1.0000
  N   N4        1.0  0.17851659385555507  0.08591025253494422  0.861493756806091  1.0000
  N   N5        1.0  0.5777359940747501  0.12405595145087031  0.7337367315517936  1.0000
  N   N6        1.0  0.92226015790213  0.6240547822792166  0.2662624497687389  1.0000
  N   N7        1.0  0.4222578713488191  0.8759404118567387  0.2662622686404887  1.0000
  N   N8        1.0  0.07774065059617641  0.37594250313729555  0.733738827463533  1.0000
  O   O1        1.0  0.3449794365523147  0.539168502947483  0.6354339403852266  1.0000
  O   O2        1.0  0.15501846612560394  0.03916834493563931  0.3645646272150315  1.0000
  O   O3        1.0  0.6550255284140788  0.4608343151116684  0.36456269388497015  1.0000
  O   O4        1.0  0.8449754050382196  0.9608326288802548  0.635438037104052  1.0000
  O   O5        1.0  0.8157333507116462  0.35345683309275705  0.9045714177851565  1.0000
  O   O6        1.0  0.6842599865588427  0.8534567601518291  0.09541781975900682  1.0000
  O   O7        1.0  0.18427579132200123  0.6465459849490713  0.09543376441142469  1.0000
  O   O8        1.0  0.31573803418750407  0.1465451358005012  0.9045758046445016  1.0000
  O   O9        1.0  0.6114037639742165  0.43436264617364634  0.6328141237496254  1.0000
  O   O10       1.0  0.8885956262652996  0.9343589452092615  0.36718798712736594  1.0000
  O   O11       1.0  0.3885956586556958  0.565633717133089  0.367188456859779  1.0000
  O   O12       1.0  0.11140240592319368  0.06563926230725771  0.6328129655484035  1.0000
  O   O13       1.0  0.5196322116921834  0.3695961187098504  0.8341067873710415  1.0000
  O   O14       1.0  0.9803612226834986  0.8696067812326118  0.1658831363380244  1.0000
  O   O15       1.0  0.48037692805083754  0.6304066993361417  0.165896929172149  1.0000
  O   O16       1.0  0.0196381885152306  0.1303969589248979  0.8341121159937968  1.0000
  O   O17       1.0  0.5735804634632514  0.7280906321247471  0.5619858487341887  1.0000
  O   O18       1.0  0.9264232487796348  0.2280835897406206  0.43801457612513417  1.0000
  O   O19       1.0  0.4264258919390826  0.2719084975171384  0.43801241347231457  1.0000
  O   O20       1.0  0.0735733963951546  0.7719136956682107  0.5619869471010759  1.0000
  O   O21       1.0  0.46587593003114586  0.8837671434269796  0.6457269970729342  1.0000
  O   O22       1.0  0.0341323577998978  0.38376294995764954  0.3542766780156085  1.0000
  O   O23       1.0  0.5341234857241587  0.1162282977885241  0.3542711865776483  1.0000
  O   O24       1.0  0.9658684541370803  0.6162352575563546  0.64572679769541  1.0000
