data_image0
_chemical_formula_structural       Zn2H4C14S2N6O22
_chemical_formula_sum              "Zn2 H4 C14 S2 N6 O22"
_cell_length_a       10.380106670760693
_cell_length_b       10.46007951864152
_cell_length_c       11.441107546880328
_cell_angle_alpha    87.4884736611196
_cell_angle_beta     75.88217782903196
_cell_angle_gamma    84.67615198243752

_space_group_name_H-M_alt    "P 1"
_space_group_IT_number       1

loop_
  _space_group_symop_operation_xyz
  'x, y, z'

loop_
  _atom_site_type_symbol
  _atom_site_label
  _atom_site_symmetry_multiplicity
  _atom_site_fract_x
  _atom_site_fract_y
  _atom_site_fract_z
  _atom_site_occupancy
  Zn  Zn1       1.0  0.7052731724794513  0.4867397287524613  0.4691958862406052  1.0000
  Zn  Zn2       1.0  0.3992773181365833  0.5047897511634504  0.5341117244975351  1.0000
  H   H1        1.0  0.3612889936310069  0.14555697159129014  0.5448797970916885  1.0000
  H   H2        1.0  0.4845788059948004  0.8658731462372277  0.4852308537170558  1.0000
  H   H3        1.0  0.7798053174425303  0.18461014610990392  0.3338371201845193  1.0000
  H   H4        1.0  0.9610132837646006  0.9816861914455827  0.5054039788364122  1.0000
  C   C1        1.0  0.26823025430314834  0.7569467846171137  0.5399494562621356  1.0000
  C   C2        1.0  0.5773319473565266  0.2533620743942109  0.4930414927566957  1.0000
  C   C3        1.0  0.5757159274449322  0.5429951428257952  0.28746149240448904  1.0000
  C   C4        1.0  0.5514237413246335  0.5424405409205376  0.7144500036309367  1.0000
  C   C5        1.0  0.5767632693845498  0.5666177283608748  0.16293922404303632  1.0000
  C   C6        1.0  0.5595968640523594  0.5604826664899252  0.8361707522618147  1.0000
  C   C7        1.0  0.5715557315581062  0.5704135078479455  0.05717408245971001  1.0000
  C   C8        1.0  0.565248220939786  0.5683014408160716  0.9410771445339989  1.0000
  C   C9        1.0  0.2803418246197111  0.9007763110431456  0.5389982835425684  1.0000
  C   C10       1.0  0.5651365017228827  0.11328433007397361  0.47971520503982384  1.0000
  C   C11       1.0  0.4047933199093094  0.9422408630347195  0.5106314995166626  1.0000
  C   C12       1.0  0.4410606361714997  0.0711174039523002  0.5123900313047328  1.0000
  C   C13       1.0  0.14278522310164732  0.4309247352596373  0.4609532082061065  1.0000
  C   C14       1.0  0.9989126716759104  0.4273569625307517  0.46714440321554906  1.0000
  S   S1        1.0  0.7154135182262493  0.014778531713602706  0.422373231089118  1.0000
  S   S2        1.0  0.12882939589302106  0.001760856075385702  0.5859246053596223  1.0000
  N   N1        1.0  0.2013031716815732  0.45807486289811555  0.5405474463229396  1.0000
  N   N2        1.0  0.9102915827194877  0.5111122931608139  0.4475391694537834  1.0000
  N   N3        1.0  0.95728779138755  0.2898446846480241  0.48140729191764814  1.0000
  N   N4        1.0  0.23079912944384515  0.3925868603492688  0.33556239305389113  1.0000
  N   N5        1.0  0.946971195771134  0.6639020686455411  0.4419301835410181  1.0000
  N   N6        1.0  0.10525716613861387  0.47517771689134514  0.6752339366458742  1.0000
  O   O1        1.0  0.38075587440022934  0.6916569794916898  0.49964787326960897  1.0000
  O   O2        1.0  0.47749858365786924  0.31818346065686154  0.5542113945185179  1.0000
  O   O3        1.0  0.15797773129730794  0.7120994624427439  0.5788136283471559  1.0000
  O   O4        1.0  0.6892921833265078  0.2999709610264533  0.44055249726632434  1.0000
  O   O5        1.0  0.6754715582138928  0.5751843238368509  0.3244598316415832  1.0000
  O   O6        1.0  0.4369630052910055  0.5424720303661276  0.6950109283150069  1.0000
  O   O7        1.0  0.477967296985561  0.48713102976537215  0.35059650906563894  1.0000
  O   O8        1.0  0.6645144492767158  0.5266928156400821  0.6372645151634657  1.0000
  O   O9        1.0  0.793832687151223  0.016023502403250203  0.5114439111916553  1.0000
  O   O10       1.0  0.691063093500233  0.8938347931938682  0.3813748317728027  1.0000
  O   O11       1.0  0.7810478078283722  0.09485654332674902  0.30580308580180565  1.0000
  O   O12       1.0  0.056873398583441294  0.9611131717359741  0.7032962606388935  1.0000
  O   O13       1.0  0.15858723905216718  0.13508138860304802  0.5684899117870756  1.0000
  O   O14       1.0  0.06090996825096788  0.9653898352445296  0.48378445154078514  1.0000
  O   O15       1.0  0.99306183904492  0.22967613307013582  0.38729792979864897  1.0000
  O   O16       1.0  0.894088270615164  0.256990159240317  0.5807751188172715  1.0000
  O   O17       1.0  0.3063485566372037  0.29578001291572065  0.3337091642338664  1.0000
  O   O18       1.0  0.21210805611831765  0.4643055102308723  0.2527070585511737  1.0000
  O   O19       1.0  0.03121663075810937  0.6925265791294565  0.35533899571333194  1.0000
  O   O20       1.0  0.875739153577733  0.7200521494064847  0.5257466243920135  1.0000
  O   O21       1.0  0.17021491700690916  0.4652960264521369  0.7493193227266276  1.0000
  O   O22       1.0  0.9867538385386041  0.4896907280841135  0.682513094991556  1.0000
