data_image0
_chemical_formula_structural       Zn2H22C16S4N10
_chemical_formula_sum              "Zn2 H22 C16 S4 N10"
_cell_length_a       7.458422423487155
_cell_length_b       8.216225283591978
_cell_length_c       11.751529531458585
_cell_angle_alpha    98.97572133284496
_cell_angle_beta     107.66883599843295
_cell_angle_gamma    108.81767947094579

_space_group_name_H-M_alt    "P 1"
_space_group_IT_number       1

loop_
  _space_group_symop_operation_xyz
  'x, y, z'

loop_
  _atom_site_type_symbol
  _atom_site_label
  _atom_site_symmetry_multiplicity
  _atom_site_fract_x
  _atom_site_fract_y
  _atom_site_fract_z
  _atom_site_occupancy
  Zn  Zn1       1.0  0.6396534528116788  0.1700412576082685  0.735747560825999  1.0000
  Zn  Zn2       1.0  0.36034717611374134  0.8299587055231968  0.2642531701030464  1.0000
  H   H1        1.0  0.4942253378466502  0.7306492786021794  0.6842990830340128  1.0000
  H   H2        1.0  0.5057714222137263  0.26935465295961347  0.3156996108722865  1.0000
  H   H3        1.0  0.14608034337242515  0.7721956848054746  0.9052966235746069  1.0000
  H   H4        1.0  0.8539210957012597  0.22780294132724074  0.09470412645434576  1.0000
  H   H5        1.0  0.35014844722206817  0.10968713360096419  0.8866896892290868  1.0000
  H   H6        1.0  0.6498522416940844  0.8903129088886601  0.11331446531986694  1.0000
  H   H7        1.0  0.20980374557390752  0.48145381246531127  0.859072075052012  1.0000
  H   H8        1.0  0.7902038804829629  0.5185461055818195  0.14092742772737663  1.0000
  H   H9        1.0  0.3572899734357193  0.46579432070142  0.76791868255701  1.0000
  H   H10       1.0  0.6427137837561074  0.5342095657760311  0.23207878319963268  1.0000
  H   H11       1.0  0.06688276618837116  0.42828457560955263  0.5758839714657427  1.0000
  H   H12       1.0  0.9331178477393677  0.571715367682373  0.4241159035583238  1.0000
  H   H13       1.0  0.911601257456958  0.4351281692142522  0.6629412335501357  1.0000
  H   H14       1.0  0.08840018161672704  0.5648704569184632  0.33705951647880994  1.0000
  H   H15       1.0  0.8485386234334481  0.12613169424229653  0.5432581216524993  1.0000
  H   H16       1.0  0.15146199049429052  0.8738682490496289  0.45674175337156  1.0000
  H   H17       1.0  0.09949870454986612  0.15529132767731108  0.6355696509534924  1.0000
  H   H18       1.0  0.9004999176740184  0.8447072926816902  0.36443056324934275  1.0000
  H   H19       1.0  0.8602419095214557  0.9932230245658857  0.7100115944801573  1.0000
  H   H20       1.0  0.13975732597675256  0.0067769555182622  0.2899897244408081  1.0000
  H   H21       1.0  0.0016828037913825381  0.18554515698561155  0.8171827853766516  1.0000
  H   H22       1.0  0.9983184084129987  0.8144561261919279  0.18281733846055906  1.0000
  C   C1        1.0  0.4252351897679887  0.7900916061475415  0.739012253386683  1.0000
  C   C2        1.0  0.5747637888655462  0.2099109913023512  0.2609867275325826  1.0000
  C   C3        1.0  0.24624763169457253  0.8148035877878996  0.8558389302593811  1.0000
  C   C4        1.0  0.7537535955074827  0.18519771522917242  0.14416204948280856  1.0000
  C   C5        1.0  0.3461501298499884  0.9805088818393559  0.8449794232579536  1.0000
  C   C6        1.0  0.6538477272186823  0.019491135037014808  0.1550233395599108  1.0000
  C   C7        1.0  0.23118711741850015  0.5038263350021738  0.7735364316566233  1.0000
  C   C8        1.0  0.7688162833636765  0.496173574384386  0.22646226738358877  1.0000
  C   C9        1.0  0.037239551090117166  0.39598827761597033  0.6574935475942923  1.0000
  C   C10       1.0  0.9627612597115629  0.6040089689520515  0.3425052418115442  1.0000
  C   C11       1.0  0.9713919258737602  0.1945325101817943  0.6354079224141316  1.0000
  C   C12       1.0  0.02860810477502452  0.8054661130640641  0.36459255970176235  1.0000
  C   C13       1.0  0.3770110872919616  0.2517120632508068  0.5083416675558823  1.0000
  C   C14       1.0  0.6229881332085581  0.7482878969938015  0.4916587954601042  1.0000
  C   C15       1.0  0.7653650394592331  0.5429306300052232  0.9109953165013068  1.0000
  C   C16       1.0  0.23462976623550705  0.4570626080849466  0.0890027786308991  1.0000
  S   S1        1.0  0.2262442723093869  0.30292929749616354  0.40278429446248515  1.0000
  S   S2        1.0  0.7737511616573581  0.6970653201586928  0.5972157612928299  1.0000
  S   S3        1.0  0.8180540196319156  0.752580442459717  0.9667148251736464  1.0000
  S   S4        1.0  0.18194458759428758  0.24741815805974454  0.03328453312420979  1.0000
  N   N1        1.0  0.45758311318110156  0.9634434424490339  0.7720784022354367  1.0000
  N   N2        1.0  0.5424144720252142  0.0365591719535345  0.2279211666757561  1.0000
  N   N3        1.0  0.2984476227428843  0.6966200828458824  0.788623952723789  1.0000
  N   N4        1.0  0.7015535744638156  0.30338118049211726  0.21137531520844277  1.0000
  N   N5        1.0  0.8909844802470556  0.12877966616888162  0.728219192602964  1.0000
  N   N6        1.0  0.10901671695963708  0.8712215971691109  0.2717800753292678  1.0000
  N   N7        1.0  0.48633112332348805  0.2086300417085809  0.5830102145989429  1.0000
  N   N8        1.0  0.5136737308766256  0.7913699300834622  0.416991320069272  1.0000
  N   N9        1.0  0.7257600611873298  0.3884791950814305  0.869715202940256  1.0000
  N   N10       1.0  0.274239787585195  0.6115221447278645  0.1302872206988326  1.0000
