data_image0
_chemical_formula_structural       Co2H22C30N4O10
_chemical_formula_sum              "Co2 H22 C30 N4 O10"
_cell_length_a       8.021807147850053
_cell_length_b       9.264788120439771
_cell_length_c       10.050468353263271
_cell_angle_alpha    113.61938166797893
_cell_angle_beta     102.5552613222516
_cell_angle_gamma    102.73071011882413

_space_group_name_H-M_alt    "P 1"
_space_group_IT_number       1

loop_
  _space_group_symop_operation_xyz
  'x, y, z'

loop_
  _atom_site_type_symbol
  _atom_site_label
  _atom_site_symmetry_multiplicity
  _atom_site_fract_x
  _atom_site_fract_y
  _atom_site_fract_z
  _atom_site_occupancy
  Co  Co1       1.0  0.1282836083566323  0.15079034048017093  0.4608703746211873  1.0000
  Co  Co2       1.0  0.8717060916491092  0.849195589455775  0.5391395854955405  1.0000
  H   H1        1.0  0.33067900765072966  0.34379426000894847  0.3781445088399877  1.0000
  H   H2        1.0  0.6693194470404434  0.6561871645118701  0.6218394299467249  1.0000
  H   H3        1.0  0.4717108873789471  0.32495283459354607  0.5173062807897182  1.0000
  H   H4        1.0  0.5282948728275582  0.6750245297514398  0.4826973216574899  1.0000
  H   H5        1.0  0.1532199858207477  0.29343738938457165  0.97727974978703  1.0000
  H   H6        1.0  0.8467897495181447  0.7065576434459473  0.022724285648934108  1.0000
  H   H7        1.0  0.9683457618036185  0.9554136153458188  0.12060018146077323  1.0000
  H   H8        1.0  0.0316477543516527  0.04458911215944281  0.8793879615394572  1.0000
  H   H9        1.0  0.7519769708853232  0.9406379365556605  0.8984689112595137  1.0000
  H   H10       1.0  0.2480363384592579  0.059383802151366204  0.10152298705424559  1.0000
  H   H11       1.0  0.6703277590062057  0.375612174101228  0.2216580206443481  1.0000
  H   H12       1.0  0.32966248709807633  0.6243853368282827  0.7783385110051312  1.0000
  H   H13       1.0  0.8814892133980975  0.3622600769100047  0.4304251602405813  1.0000
  H   H14       1.0  0.11848946478783516  0.6377234596842883  0.569571981931432  1.0000
  H   H15       1.0  0.30748058060819966  0.37092461480416017  0.8056120354747662  1.0000
  H   H16       1.0  0.6925098064902712  0.6290767041671828  0.19438297818635414  1.0000
  H   H17       1.0  0.5160491146131816  0.3864799385656141  0.034568957216492814  1.0000
  H   H18       1.0  0.48395538641139507  0.613535352035271  0.9654268928857448  1.0000
  H   H19       1.0  0.5704299067879217  0.9281343870538877  0.7250975949599477  1.0000
  H   H20       1.0  0.4295708053357571  0.07187072913662011  0.2749016885674251  1.0000
  H   H21       1.0  0.3500413706365535  0.9239891671198426  0.514749421081838  1.0000
  H   H22       1.0  0.6499491533679418  0.07600573784998942  0.4852521436010448  1.0000
  C   C1        1.0  0.8814624028063848  0.4894460405237596  0.8668403259647803  1.0000
  C   C2        1.0  0.11855046578794769  0.5105540345846509  0.133165181379944  1.0000
  C   C3        1.0  0.9669787796159851  0.36949252866997995  0.8517334749183192  1.0000
  C   C4        1.0  0.033037527493114234  0.6305100176162171  0.14827656525696392  1.0000
  C   C5        1.0  0.08266601615039086  0.3825788925170174  0.9852009209991338  1.0000
  C   C6        1.0  0.9173520580945365  0.6174249503623203  0.014807934396145537  1.0000
  C   C7        1.0  0.7445034184638216  0.48375716045414674  0.7338222413286104  1.0000
  C   C8        1.0  0.2555025636200625  0.5162415886128785  0.26618352898042735  1.0000
  C   C9        1.0  0.9551114111405281  0.23140739257452486  0.7016531530820345  1.0000
  C   C10       1.0  0.04488652770524482  0.7685901799571301  0.2983437752351962  1.0000
  C   C11       1.0  0.8993226551560694  0.0464775547844596  0.13759801641279515  1.0000
  C   C12       1.0  0.1006841509265683  0.9535301693164585  0.8623993584623975  1.0000
  C   C13       1.0  0.7783099204071674  0.04097502070558791  0.012828758231343253  1.0000
  C   C14       1.0  0.22169832019285698  0.9590365362290074  0.987166343053623  1.0000
  C   C15       1.0  0.6928741970122515  0.16139736640280938  0.036226555502011606  1.0000
  C   C16       1.0  0.3071223292824712  0.8386102465122677  0.9637719339091789  1.0000
  C   C17       1.0  0.7338087668571021  0.2801783419954377  0.19067144492058222  1.0000
  C   C18       1.0  0.2661797121113523  0.719817872340926  0.8093262715089081  1.0000
  C   C19       1.0  0.8542970566080185  0.2751618756805884  0.31008490951423084  1.0000
  C   C20       1.0  0.14569224227103922  0.7248330916463248  0.689912480491529  1.0000
  C   C21       1.0  0.3680282592198337  0.2742367863565179  0.7934658677179414  1.0000
  C   C22       1.0  0.6319728581186864  0.7257695144863591  0.20653791691029263  1.0000
  C   C23       1.0  0.4877416137162739  0.2834371593313918  0.9213309447727838  1.0000
  C   C24       1.0  0.5122605192452454  0.7165717722630093  0.07866705122016533  1.0000
  C   C25       1.0  0.5660308941241752  0.15851808273071552  0.9036151631853712  1.0000
  C   C26       1.0  0.43397295125494395  0.8414920757376835  0.09638559225076185  1.0000
  C   C27       1.0  0.5161213241115875  0.029919452001784905  0.7521864524606628  1.0000
  C   C28       1.0  0.4838690493073229  0.9700818495397742  0.24780954725626708  1.0000
  C   C29       1.0  0.39157285007946996  0.027550252981797006  0.6305979684699635  1.0000
  C   C30       1.0  0.6084233805473359  0.9724497264198321  0.3694045429737329  1.0000
  N   N1        1.0  0.9389217272382168  0.16081625339291614  0.2852977446079734  1.0000
  N   N2        1.0  0.061077491451214876  0.839181326500807  0.714699414163185  1.0000
  N   N3        1.0  0.3156823328482119  0.14699444548791976  0.6490999741971422  1.0000
  N   N4        1.0  0.6843139840545615  0.8530092722363918  0.35090496348139766  1.0000
  O   O1        1.0  0.709885564166619  0.6181559147806087  0.7581879660582871  1.0000
  O   O2        1.0  0.2901170109602518  0.38184403171216996  0.24181964187823013  1.0000
  O   O3        1.0  0.6696842927259964  0.34541277655528557  0.6096897657204892  1.0000
  O   O4        1.0  0.3303057892236366  0.6545845252167909  0.390318598598583  1.0000
  O   O5        1.0  0.02108818485742599  0.27247843391421617  0.6123759981480106  1.0000
  O   O6        1.0  0.9789143134743907  0.7275141579416982  0.3876198549282179  1.0000
  O   O7        1.0  0.896159845601346  0.0822486785147305  0.6817351594399668  1.0000
  O   O8        1.0  0.10383648078234137  0.9177514228954  0.31826044961312766  1.0000
  O   O9        1.0  0.339739448105199  0.3011549132122441  0.4583004245566471  1.0000
  O   O10       1.0  0.6602661876807048  0.6988463546655268  0.5417052429979775  1.0000
