data_image0
_chemical_formula_structural       Cu6H32C48N40Cl4
_chemical_formula_sum              "Cu6 H32 C48 N40 Cl4"
_cell_length_a       12.17191519900585
_cell_length_b       15.668515599000248
_cell_length_c       15.370321731007287
_cell_angle_alpha    90.0000070143711
_cell_angle_beta     90.00011103259178
_cell_angle_gamma    89.99998086889562

_space_group_name_H-M_alt    "P 1"
_space_group_IT_number       1

loop_
  _space_group_symop_operation_xyz
  'x, y, z'

loop_
  _atom_site_type_symbol
  _atom_site_label
  _atom_site_symmetry_multiplicity
  _atom_site_fract_x
  _atom_site_fract_y
  _atom_site_fract_z
  _atom_site_occupancy
  Cu  Cu1       1.0  7.958000000000001e-13  3.5499999999999994e-14  6.506044699e-07  1.0000
  Cu  Cu2       1.0  0.49999988177744115  0.5000001055301339  0.5000003575070693  1.0000
  Cu  Cu3       1.0  0.1546757554164557  2.720213600999999e-07  0.18707043555459524  1.0000
  Cu  Cu4       1.0  0.8453237932166645  2.1992065060000005e-07  0.812929691443081  1.0000
  Cu  Cu5       1.0  0.3453243705745379  0.5000001367885574  0.6870711444100904  1.0000
  Cu  Cu6       1.0  0.6546745714161518  0.5000000742717816  0.31292891999896  1.0000
  H   H1        1.0  0.7694072145849234  0.7193258636353832  0.0837640071550538  1.0000
  H   H2        1.0  0.6626739075140834  0.5962510443619706  0.1450521599349059  1.0000
  H   H3        1.0  0.8414636359973928  0.5980616722532018  0.3738991655923058  1.0000
  H   H4        1.0  0.9578470376608195  0.7217447169060732  0.3216244945394564  1.0000
  H   H5        1.0  0.23059245469215742  0.7193259833486537  0.9162347835000091  1.0000
  H   H6        1.0  0.3373249931029748  0.5962517672760512  0.8549472659180211  1.0000
  H   H7        1.0  0.15853608540570724  0.5980617759180334  0.6261009110923224  1.0000
  H   H8        1.0  0.042152630577327  0.7217448570165318  0.6783749470228528  1.0000
  H   H9        1.0  0.7305922307279077  0.7806737648963773  0.5837658768030494  1.0000
  H   H10       1.0  0.8373248666557134  0.9037492297304296  0.6450529070912836  1.0000
  H   H11       1.0  0.6585365214042653  0.9019386292390196  0.8739002895629042  1.0000
  H   H12       1.0  0.5421529914410002  0.7782549401047305  0.8216254249504686  1.0000
  H   H13       1.0  0.26940987687133605  0.7806763675665706  0.4162348733467383  1.0000
  H   H14       1.0  0.16267554491096803  0.9037499380787322  0.3549452560453474  1.0000
  H   H15       1.0  0.3414647125059744  0.9019379873691874  0.1260991745565647  1.0000
  H   H16       1.0  0.45784829563432067  0.7782549125295545  0.178374674291284  1.0000
  H   H17       1.0  0.2305925489676994  0.28067370920221885  0.9162347560456466  1.0000
  H   H18       1.0  0.33732503447594553  0.40374852847578074  0.854947253869632  1.0000
  H   H19       1.0  0.15853612755669394  0.4019385388070305  0.6261008988173629  1.0000
  H   H20       1.0  0.04215272589246411  0.27825549415412343  0.6783749192657496  1.0000
  H   H21       1.0  0.7694073088603305  0.2806742277115006  0.08376397970072699  1.0000
  H   H22       1.0  0.662673948886777  0.4037490820067974  0.1450521478865952  1.0000
  H   H23       1.0  0.8414636781483794  0.40193843514219907  0.3738991533173531  1.0000
  H   H24       1.0  0.9578471329759567  0.27825535404365814  0.32162446678235307  1.0000
  H   H25       1.0  0.2694099975177195  0.21932389327336924  0.4162348382128158  1.0000
  H   H26       1.0  0.1626757184603136  0.09625034310706579  0.3549458561100422  1.0000
  H   H27       1.0  0.34146488527661495  0.09806158182099982  0.1260997748480293  1.0000
  H   H28       1.0  0.4578484152408181  0.22174463273277925  0.1783752900648921  1.0000
  H   H29       1.0  0.7305923513731969  0.21932639638358606  0.5837658416694467  1.0000
  H   H30       1.0  0.8373242186413847  0.09625091120397399  0.6450535071554312  1.0000
  H   H31       1.0  0.658536694174252  0.09806158546824412  0.8739002392498633  1.0000
  H   H32       1.0  0.5421522894832975  0.22174466030801906  0.8216253901189816  1.0000
  C   C1        1.0  0.9323668639426189  0.8047449155743677  0.1678703792297682  1.0000
  C   C2        1.0  0.8722136885339397  0.7303096672695019  0.19834854548098949  1.0000
  C   C3        1.0  0.7887107522408101  0.6934606196275936  0.1477477167559016  1.0000
  C   C4        1.0  0.7300421444295678  0.6250769975485184  0.18135464141050758  1.0000
  C   C5        1.0  0.8311685399123406  0.6265851119939754  0.3095023292122221  1.0000
  C   C6        1.0  0.8936007353059097  0.6950338325619967  0.2805192533984169  1.0000
  C   C7        1.0  0.0676327686185729  0.8047450674850156  0.8321290727221748  1.0000
  C   C8        1.0  0.12778515445923938  0.7303097999289393  0.8016508971528182  1.0000
  C   C9        1.0  0.2112889281548931  0.6934613749094679  0.8522517212659578  1.0000
  C   C10       1.0  0.2699567437978203  0.6250770953671178  0.8186454386551674  1.0000
  C   C11       1.0  0.16883034766613753  0.626584582476312  0.6904971004377244  1.0000
  C   C12       1.0  0.106398122850301  0.6950339609303172  0.7194801848197016  1.0000
  C   C13       1.0  0.5676327877944588  0.69525536124997  0.6678713382378731  1.0000
  C   C14       1.0  0.6277860380054038  0.7696906132039203  0.6983483046376051  1.0000
  C   C15       1.0  0.7112880285462708  0.8065390165650613  0.647749560104927  1.0000
  C   C16       1.0  0.7699567188386639  0.8749232808903784  0.6813552818790569  1.0000
  C   C17       1.0  0.6688306378743079  0.8734151817881114  0.8095034653640525  1.0000
  C   C18       1.0  0.6063991929106649  0.804965819527311  0.780520936060114  1.0000
  C   C19       1.0  0.43236771339401514  0.6952559969152932  0.3321287506137409  1.0000
  C   C20       1.0  0.37221525274961925  0.7696906225996613  0.3016504923231622  1.0000
  C   C21       1.0  0.2887132463718842  0.8065403301224522  0.3522511932818588  1.0000
  C   C22       1.0  0.23004370512021677  0.8749239674187378  0.31864417885819296  1.0000
  C   C23       1.0  0.33117060829636114  0.8734151885211149  0.19049599518501026  1.0000
  C   C24       1.0  0.3936029042464639  0.8049664517598174  0.2194791665258649  1.0000
  C   C25       1.0  0.06763289961067191  0.195255295485822  0.8321290345754375  1.0000
  C   C26       1.0  0.1277852534560893  0.2696899055682422  0.8016508683235486  1.0000
  C   C27       1.0  0.2112881897493537  0.3065383149876054  0.8522516970485937  1.0000
  C   C28       1.0  0.2699567975611217  0.37492321351182056  0.8186454229985358  1.0000
  C   C29       1.0  0.1688304020782141  0.37341573728891575  0.690497735196864  1.0000
  C   C30       1.0  0.1063982066839841  0.3049663784983068  0.7194801604061566  1.0000
  C   C31       1.0  0.9323669949347176  0.19525514357517437  0.1678703410830309  1.0000
  C   C32       1.0  0.8722137875306474  0.2696904111313643  0.19834851665175526  1.0000
  C   C33       1.0  0.7887108353982555  0.30653947437327395  0.1477476925392835  1.0000
  C   C34       1.0  0.7300421981928695  0.37492311569322107  0.1813546257538832  1.0000
  C   C35       1.0  0.8311685943240265  0.3734143521388873  0.309502313366778  1.0000
  C   C36       1.0  0.8936016407031246  0.3049656119073277  0.2805192289854617  1.0000
  C   C37       1.0  0.4323677973239555  0.3047442115876466  0.3321293767768623  1.0000
  C   C38       1.0  0.37221536867481564  0.23030895963351133  0.3016511091688159  1.0000
  C   C39       1.0  0.28871337813662024  0.19345927982737982  0.3522518055148183  1.0000
  C   C40       1.0  0.2300446878415556  0.12507629194704611  0.31864413192737107  1.0000
  C   C41       1.0  0.33116994724237975  0.12658502927197898  0.19049594844178594  1.0000
  C   C42       1.0  0.3936030353345501  0.19503375331009212  0.21947977895587203  1.0000
  C   C43       1.0  0.5676328717233333  0.3047448523673851  0.6678713137966026  1.0000
  C   C44       1.0  0.6277861539312611  0.23030958846035796  0.6983495720877714  1.0000
  C   C45       1.0  0.711288160309522  0.19346115738270697  0.6477495217336227  1.0000
  C   C46       1.0  0.7699568799971317  0.12507688186394011  0.6813558855521435  1.0000
  C   C47       1.0  0.6688307983838583  0.12658438431631677  0.8095034186214177  1.0000
  C   C48       1.0  0.6063985024344163  0.1950337593002018  0.7805208978850686  1.0000
  N   N1        1.0  0.9822175710094356  0.9088485759540673  0.0909715781282969  1.0000
  N   N2        1.0  0.03885913455876991  0.9106012618851056  0.1655411888881417  1.0000
  N   N3        1.0  0.009414377503425402  0.8460054878320943  0.21542300691616836  1.0000
  N   N4        1.0  0.9150210924898161  0.8430427338120622  0.0902779782378573  1.0000
  N   N5        1.0  0.7506059806677216  0.5923215036334851  0.2606991230448585  1.0000
  N   N6        1.0  0.0177828383670473  0.9088487500017094  0.9090278868555544  1.0000
  N   N7        1.0  0.9611404525016526  0.9106018205448692  0.8344589269189696  1.0000
  N   N8        1.0  0.9905860588855617  0.846006032882137  0.7845764502012571  1.0000
  N   N9        1.0  0.0849777020467783  0.8430428905139992  0.9097221291118913  1.0000
  N   N10       1.0  0.2493929216393482  0.5923215972858458  0.7393009529206154  1.0000
  N   N11       1.0  0.5177818919926552  0.5911516916631924  0.590973098433267  1.0000
  N   N12       1.0  0.4611401170283429  0.5893985061246384  0.6655414355391258  1.0000
  N   N13       1.0  0.4905866396391404  0.6539936479273294  0.7154246079164395  1.0000
  N   N14       1.0  0.5849783688094163  0.6569568954995688  0.590278958992414  1.0000
  N   N15       1.0  0.7493930773394979  0.9076787843053823  0.7607003867536761  1.0000
  N   N16       1.0  0.48221783238147253  0.5911516853831671  0.4090276279908664  1.0000
  N   N17       1.0  0.5388596080993793  0.5893984762251206  0.3344592906655421  1.0000
  N   N18       1.0  0.5094147008503428  0.6539942579153009  0.28457677697976186  1.0000
  N   N19       1.0  0.41502214884213373  0.6569575449540962  0.4097217756696168  1.0000
  N   N20       1.0  0.2506081541025793  0.907678179554793  0.2392984274798522  1.0000
  N   N21       1.0  0.017783014107386908  0.09115099688347067  0.9090278356774988  1.0000
  N   N22       1.0  0.9611406289954587  0.0893983109525749  0.8344588755214913  1.0000
  N   N23       1.0  0.9905853860500002  0.15399408500555012  0.7845764068889947  1.0000
  N   N24       1.0  0.08497784950087352  0.15695747724827666  0.909722086171186  1.0000
  N   N25       1.0  0.24939296132296823  0.40767870742685364  0.739300941364192  1.0000
  N   N26       1.0  0.9822177467503012  0.0911520992809685  0.09097217755478938  1.0000
  N   N27       1.0  0.038859311052299  0.0893990287379154  0.1655411374907487  1.0000
  N   N28       1.0  0.0094137046683898  0.1539948164006475  0.21542361420845418  1.0000
  N   N29       1.0  0.9150212399439184  0.15695732054633987  0.0902779352971592  1.0000
  N   N30       1.0  0.7506060203522723  0.40767797555198376  0.2606997620928624  1.0000
  N   N31       1.0  0.4822178715622344  0.4088485193970825  0.4090276165808788  1.0000
  N   N32       1.0  0.5388596465266814  0.4106010667130846  0.3344592794749772  1.0000
  N   N33       1.0  0.5094147670444116  0.34600528668770647  0.2845774083078183  1.0000
  N   N34       1.0  0.4150222163098007  0.34304267733808314  0.4097224066267842  1.0000
  N   N35       1.0  0.2506075077771897  0.09232142675470809  0.2392990270521551  1.0000
  N   N36       1.0  0.5177819311726138  0.40884852567706537  0.5909724364188094  1.0000
  N   N37       1.0  0.46114015545564513  0.410601096612602  0.6655414243485609  1.0000
  N   N38       1.0  0.49058588426859734  0.3460065913674555  0.7154245886395215  1.0000
  N   N39       1.0  0.5849784362760104  0.34304330432861707  0.5902789393451969  1.0000
  N   N40       1.0  0.7493932525768443  0.09232139328260301  0.760700335722106  1.0000
  Cl  Cl1       1.0  0.22297706652838659  2.542133898999999e-07  0.0375648339763188  1.0000
  Cl  Cl2       1.0  0.7770224821039378  2.3772858530000007e-07  0.9624346424168948  1.0000
  Cl  Cl3       1.0  0.27702269252513645  0.5000001366961797  0.5375654383242647  1.0000
  Cl  Cl4       1.0  0.7229770710281544  0.5000000743640102  0.4624339754809412  1.0000
