data_image0
_chemical_formula_structural       Cu8H30C18S6I2N24O6
_chemical_formula_sum              "Cu8 H30 C18 S6 I2 N24 O6"
_cell_length_a       10.265350930739517
_cell_length_b       10.265239309416312
_cell_length_c       10.265308939901173
_cell_angle_alpha    84.57839351475658
_cell_angle_beta     84.5778417793139
_cell_angle_gamma    84.5769221230423

_space_group_name_H-M_alt    "P 1"
_space_group_IT_number       1

loop_
  _space_group_symop_operation_xyz
  'x, y, z'

loop_
  _atom_site_type_symbol
  _atom_site_label
  _atom_site_symmetry_multiplicity
  _atom_site_fract_x
  _atom_site_fract_y
  _atom_site_fract_z
  _atom_site_occupancy
  Cu  Cu1       1.0  0.08164650145107541  0.0816583934059452  0.08165046640472443  1.0000
  Cu  Cu2       1.0  0.9183430743613884  0.9183517489259287  0.918345524972779  1.0000
  Cu  Cu3       1.0  0.10291584596488688  0.3485961725216599  0.026111491711461113  1.0000
  Cu  Cu4       1.0  0.02612249803804191  0.10294423992607449  0.3486049954987181  1.0000
  Cu  Cu5       1.0  0.3485981349892526  0.0261188841248057  0.10292853708281775  1.0000
  Cu  Cu6       1.0  0.8970650628205661  0.6513995899221853  0.9738717399700365  1.0000
  Cu  Cu7       1.0  0.9738793295172885  0.8970822307161087  0.6513991744553993  1.0000
  Cu  Cu8       1.0  0.6514007326581678  0.9738876096611475  0.8970696838702072  1.0000
  H   H1        1.0  0.4250747348178903  0.6561140127499386  0.38628342248473063  1.0000
  H   H2        1.0  0.386292859344188  0.4250509892887209  0.6561219623764176  1.0000
  H   H3        1.0  0.6561838082488264  0.3862543309646682  0.42506438160323523  1.0000
  H   H4        1.0  0.5749522394626966  0.34386079923952917  0.6137210880586111  1.0000
  H   H5        1.0  0.6137336152639179  0.5749144731795823  0.3438652381956049  1.0000
  H   H6        1.0  0.34386671505065886  0.6137112021994613  0.5749393460849818  1.0000
  H   H7        1.0  0.15855007702116816  0.5776502191551387  0.20404167008950222  1.0000
  H   H8        1.0  0.20403490321296397  0.1585373187699943  0.5776400836264275  1.0000
  H   H9        1.0  0.5775854966785089  0.2040910635803144  0.15855025684876278  1.0000
  H   H10       1.0  0.8414524953417413  0.4223970098795107  0.7959627760532658  1.0000
  H   H11       1.0  0.7959406575614738  0.8414510575682785  0.4223681140904958  1.0000
  H   H12       1.0  0.4223606875718886  0.7959418852066024  0.8414550944740855  1.0000
  H   H13       1.0  0.21949403224727598  0.514455590539562  0.35661141090206905  1.0000
  H   H14       1.0  0.35660718666567703  0.21947027857328294  0.5144501633120415  1.0000
  H   H15       1.0  0.514455130284695  0.3566555988179232  0.2195451008250729  1.0000
  H   H16       1.0  0.7805032135253641  0.4855567706944511  0.6433862871411622  1.0000
  H   H17       1.0  0.6433749002178076  0.7804803703834226  0.4855433542872448  1.0000
  H   H18       1.0  0.4855418748607718  0.6433728611748393  0.7805023136465652  1.0000
  H   H19       1.0  0.38756145322491153  0.5250017502293147  0.1578745738049392  1.0000
  H   H20       1.0  0.15788919271948743  0.3875586517308349  0.5249808215596803  1.0000
  H   H21       1.0  0.5249583417026572  0.1579082412007935  0.38757335621286887  1.0000
  H   H22       1.0  0.612431109231821  0.47503179894734154  0.842107442838625  1.0000
  H   H23       1.0  0.8421238850522528  0.6124300470885586  0.4750022424740267  1.0000
  H   H24       1.0  0.47501761103946183  0.8421048977894402  0.6124375926534785  1.0000
  H   H25       1.0  0.3660103181159613  0.6986239038825133  0.15161045109836385  1.0000
  H   H26       1.0  0.15160707488166741  0.36599961719382185  0.6986107598075507  1.0000
  H   H27       1.0  0.6985857157891288  0.1515466489111787  0.36597821812586784  1.0000
  H   H28       1.0  0.6340057131023259  0.30140450802029767  0.8484161027161508  1.0000
  H   H29       1.0  0.8484104959174202  0.6339953418259299  0.30138072873864286  1.0000
  H   H30       1.0  0.3013927871861597  0.8484054556768114  0.6339989883469886  1.0000
  C   C1        1.0  0.1495570130166116  0.838624803455289  0.2832501710591018  1.0000
  C   C2        1.0  0.283244221606978  0.1495484608531115  0.8386136641321118  1.0000
  C   C3        1.0  0.8386111451275723  0.2832496867413923  0.14955778352057797  1.0000
  C   C4        1.0  0.850452907241312  0.16140213034165637  0.7167636689328705  1.0000
  C   C5        1.0  0.716748980665372  0.8504448829045685  0.16137810021473348  1.0000
  C   C6        1.0  0.16137652364292882  0.7167516062365422  0.850441482507421  1.0000
  C   C7        1.0  0.22191231383300186  0.5961057088819784  0.27990720271882463  1.0000
  C   C8        1.0  0.2799025655789578  0.22189744595750938  0.5960975201579048  1.0000
  C   C9        1.0  0.5960856120563066  0.2799296013795995  0.22192573556908005  1.0000
  C   C10       1.0  0.77809263091428  0.4039188392991734  0.7200958451674853  1.0000
  C   C11       1.0  0.720089806216251  0.7780772323098973  0.4038985952684443  1.0000
  C   C12       1.0  0.4038970645805478  0.7200846748604377  0.7780842450211342  1.0000
  C   C13       1.0  0.3620828981677562  0.6082174487203815  0.21814055587307737  1.0000
  C   C14       1.0  0.21814386141856096  0.3620728911655178  0.608201112980133  1.0000
  C   C15       1.0  0.6082079865401654  0.21812691804798587  0.36208256125773647  1.0000
  C   C16       1.0  0.6379228221618193  0.39180133945389883  0.7818679804245863  1.0000
  C   C17       1.0  0.7818678326342549  0.6379097956996488  0.39177993727381755  1.0000
  C   C18       1.0  0.39178924209158345  0.7818577875631476  0.6379146455863495  1.0000
  S   S1        1.0  0.1890466304162715  0.882351600049958  0.12054958657805064  1.0000
  S   S2        1.0  0.1205464157321714  0.18904470969820858  0.8823437872466973  1.0000
  S   S3        1.0  0.8823473695742408  0.12055024421064792  0.1890660242282891  1.0000
  S   S4        1.0  0.8109421210906262  0.11765976101167303  0.8794561052120643  1.0000
  S   S5        1.0  0.8794480335881546  0.8109456595823443  0.11764624005966348  1.0000
  S   S6        1.0  0.11765144934990698  0.8794517082981983  0.8109473855487085  1.0000
  I   I1        1.0  0.23485988730813998  0.23486715701616834  0.23485782668210228  1.0000
  I   I2        1.0  0.7651397000741508  0.765149041763678  0.7651332608819748  1.0000
  N   N1        1.0  0.08668080164270722  0.9123665893605802  0.3760318739460119  1.0000
  N   N2        1.0  0.37602837425918517  0.08668093821778912  0.9123577989061719  1.0000
  N   N3        1.0  0.9123478834675964  0.3760292217457035  0.08667980487657455  1.0000
  N   N4        1.0  0.9133175488532501  0.0876569512456911  0.6239769847703871  1.0000
  N   N5        1.0  0.6239671019984173  0.9133205326300596  0.08764048354098718  1.0000
  N   N6        1.0  0.08763370027121914  0.6239706190613461  0.9133077158396719  1.0000
  N   N7        1.0  0.06285003381766073  0.8287732252726915  0.485592961496174  1.0000
  N   N8        1.0  0.48558828309432306  0.0628457886303266  0.8287612091006696  1.0000
  N   N9        1.0  0.8287496279471968  0.48559066135678125  0.0628447808023083  1.0000
  N   N10       1.0  0.9371695601295683  0.17125602376383853  0.5144242762878977  1.0000
  N   N11       1.0  0.514404180542023  0.9371466809549107  0.17123562839064022  1.0000
  N   N12       1.0  0.17122534349513777  0.5144059752332453  0.9371400494327136  1.0000
  N   N13       1.0  0.10899242755910882  0.7087465980489827  0.4661400460912405  1.0000
  N   N14       1.0  0.4661364722434414  0.10897757037313484  0.7087378807063376  1.0000
  N   N15       1.0  0.7087312465236549  0.46614430383546335  0.10899211281355292  1.0000
  N   N16       1.0  0.891034187323612  0.29128081746147677  0.5338755778346072  1.0000
  N   N17       1.0  0.5338578514235407  0.8909971523617556  0.29125798882480336  1.0000
  N   N18       1.0  0.2912506004437319  0.5338547109678657  0.8910013266103435  1.0000
  N   N19       1.0  0.1648118321481959  0.7136529865591897  0.341184969787797  1.0000
  N   N20       1.0  0.34118201334144527  0.16479951939853524  0.7136424204948356  1.0000
  N   N21       1.0  0.713639867233134  0.3411904585944896  0.16482202245112637  1.0000
  N   N22       1.0  0.8351992833003337  0.28637092089064714  0.6588251961421111  1.0000
  N   N23       1.0  0.6588145961360681  0.8351800743657947  0.2863486679358261  1.0000
  N   N24       1.0  0.28634782352429505  0.6588119456720065  0.8351819784879315  1.0000
  O   O1        1.0  0.45577709268807354  0.6019313801560102  0.31207832454669676  1.0000
  O   O2        1.0  0.3120908149925654  0.4557559403272932  0.6019349264615388  1.0000
  O   O3        1.0  0.602019349972849  0.31204797937723333  0.4557927580588912  1.0000
  O   O4        1.0  0.5442379589906636  0.39804404290227063  0.6879236796818518  1.0000
  O   O5        1.0  0.6879364579924286  0.5442082774762652  0.39804160518708903  1.0000
  O   O6        1.0  0.39804148507132453  0.6879161500518406  0.5442225460793539  1.0000
