data_image0
_chemical_formula_structural       Cd2H16C24S4N8O4
_chemical_formula_sum              "Cd2 H16 C24 S4 N8 O4"
_cell_length_a       8.925727182757333
_cell_length_b       9.516055826368621
_cell_length_c       9.516082544698154
_cell_angle_alpha    96.21625979216132
_cell_angle_beta     109.09738354910485
_cell_angle_gamma    109.09700186069443

_space_group_name_H-M_alt    "P 1"
_space_group_IT_number       1

loop_
  _space_group_symop_operation_xyz
  'x, y, z'

loop_
  _atom_site_type_symbol
  _atom_site_label
  _atom_site_symmetry_multiplicity
  _atom_site_fract_x
  _atom_site_fract_y
  _atom_site_fract_z
  _atom_site_occupancy
  Cd  Cd1       1.0  0.7500006902263368  0.21904574153587936  0.7809531865394561  1.0000
  Cd  Cd2       1.0  0.2500000344604488  0.7809546539888856  0.2190468538582522  1.0000
  H   H1        1.0  0.32926807331891456  0.5585789319993922  0.6465251362258613  1.0000
  H   H2        1.0  0.17073677045141986  0.3534725793219097  0.4414225704322519  1.0000
  H   H3        1.0  0.67072978262771  0.4414203136936622  0.35347285164881004  1.0000
  H   H4        1.0  0.8292639559159058  0.6465278175711549  0.558578521480726  1.0000
  H   H5        1.0  0.5273957589500713  0.4953638130650263  0.8656945357863748  1.0000
  H   H6        1.0  0.972601162645418  0.1343053216828878  0.5046355627692021  1.0000
  H   H7        1.0  0.47260209867708625  0.5046354339963273  0.1343045036035804  1.0000
  H   H8        1.0  0.027394127599379377  0.8656962145874304  0.4953639878685223  1.0000
  H   H9        1.0  0.7583846135215782  0.7125749131511371  0.08276461152120622  1.0000
  H   H10       1.0  0.7416113533131324  0.9172391378004509  0.28742352037008356  1.0000
  H   H11       1.0  0.241616107804127  0.2874254796370296  0.9172333258459416  1.0000
  H   H12       1.0  0.25838561446133207  0.08276354289866111  0.7125745650615514  1.0000
  H   H13       1.0  0.3669101331164982  0.8346501608083231  0.6610036700014986  1.0000
  H   H14       1.0  0.1330942723615821  0.3389938820197501  0.1653515667267556  1.0000
  H   H15       1.0  0.6330905898897471  0.16535023334814272  0.3389953188809259  1.0000
  H   H16       1.0  0.8669076384940766  0.6610065148030417  0.8346488368542352  1.0000
  C   C1        1.0  0.6838301539680604  0.883744059294287  0.9885556585546026  1.0000
  C   C2        1.0  0.8161674664640016  0.011443859294530501  0.11625715833570642  1.0000
  C   C3        1.0  0.3161693845498448  0.11625633493245859  0.011444018659815912  1.0000
  C   C4        1.0  0.18383039116315583  0.9885553877668231  0.8837418810542417  1.0000
  C   C5        1.0  0.42981288604333673  0.6475124584917468  0.745020501144431  1.0000
  C   C6        1.0  0.07018852899419414  0.2549767482654346  0.35248729611209473  1.0000
  C   C7        1.0  0.5701866524745681  0.3524879357349917  0.25497917606998743  1.0000
  C   C8        1.0  0.9298093286329705  0.7450224987959192  0.6475117432778603  1.0000
  C   C9        1.0  0.538689854665094  0.6128757369632538  0.8663733062031155  1.0000
  C   C10       1.0  0.9613081127530236  0.13362591534997395  0.38712314625850996  1.0000
  C   C11       1.0  0.46130968385281096  0.3871246572634917  0.13362637101130304  1.0000
  C   C12       1.0  0.03868668108937375  0.8663744736846796  0.6128750782227641  1.0000
  C   C13       1.0  0.6661120906252621  0.7327406118192102  0.9877914264544214  1.0000
  C   C14       1.0  0.833883918851491  0.012209069240093101  0.2672588289654314  1.0000
  C   C15       1.0  0.3338891271028502  0.26726092820462816  0.012207837069176728  1.0000
  C   C16       1.0  0.1661120594792394  0.9877913197242805  0.7327387071838416  1.0000
  C   C17       1.0  0.4469984609963263  0.797638469950563  0.7494092536043764  1.0000
  C   C18       1.0  0.05300282070419374  0.2505885971301964  0.20236185888561659  1.0000
  C   C19       1.0  0.5530015739239788  0.2023630715118401  0.25059174976649257  1.0000
  C   C20       1.0  0.946996221411304  0.7494106498608846  0.7976364921723444  1.0000
  C   C21       1.0  0.6209167533998043  0.8904566486155832  0.5119779406833871  1.0000
  C   C22       1.0  0.8790969753636234  0.4880340004471506  0.10955255818141306  1.0000
  C   C23       1.0  0.3790930789514703  0.1095483477448624  0.488032737985712  1.0000
  C   C24       1.0  0.12090711614626327  0.5119686935132893  0.8904519124110593  1.0000
  S   S1        1.0  0.5106714929740832  0.7181486416880248  0.39965718483261264  1.0000
  S   S2        1.0  0.9893257654898377  0.6003399844779552  0.2818433803212698  1.0000
  S   S3        1.0  0.4893262633815  0.28184487863255475  0.6003412077180242  1.0000
  S   S4        1.0  0.010673278306200077  0.399659263881425  0.7181560222519748  1.0000
  N   N1        1.0  0.5694051212196742  0.9135214411001443  0.8707461583673535  1.0000
  N   N2        1.0  0.9305957004681459  0.1292513756104583  0.08647835499561299  1.0000
  N   N3        1.0  0.43059629323358445  0.08647780848698261  0.12925291905717978  1.0000
  N   N4        1.0  0.06940334164735183  0.8707478713806228  0.913519996062348  1.0000
  N   N5        1.0  0.7038735877953924  0.015324497595699404  0.5918717068090941  1.0000
  N   N6        1.0  0.7961242751321508  0.4081244478479746  0.9846662746097151  1.0000
  N   N7        1.0  0.29612367383833077  0.9846678768575075  0.40812641110036907  1.0000
  N   N8        1.0  0.20387595315222748  0.5918748004411257  0.015332439631528465  1.0000
  O   O1        1.0  0.5726802736977064  0.052919038485377705  0.8769544544699456  1.0000
  O   O2        1.0  0.9273198986724652  0.12304467349596854  0.9470821600059622  1.0000
  O   O3        1.0  0.4273182753764646  0.9470790640066371  0.1230446734621183  1.0000
  O   O4        1.0  0.07268082937539354  0.8769557247653952  0.05291998342229939  1.0000
