data_image0
_chemical_formula_structural       Zn6H60C96N24O24
_chemical_formula_sum              "Zn6 H60 C96 N24 O24"
_cell_length_a       14.414966783178
_cell_length_b       14.439834933823494
_cell_length_c       14.442905986423849
_cell_angle_alpha    107.50115643801783
_cell_angle_beta     107.40237684675093
_cell_angle_gamma    107.41667075056134

_space_group_name_H-M_alt    "P 1"
_space_group_IT_number       1

loop_
  _space_group_symop_operation_xyz
  'x, y, z'

loop_
  _atom_site_type_symbol
  _atom_site_label
  _atom_site_symmetry_multiplicity
  _atom_site_fract_x
  _atom_site_fract_y
  _atom_site_fract_z
  _atom_site_occupancy
  Zn  Zn1       1.0  0.2805253384327173  0.7497262795341654  0.002527511582577704  1.0000
  Zn  Zn2       1.0  0.0027101399382374004  0.2806424098199328  0.7495396888760979  1.0000
  Zn  Zn3       1.0  0.7499022395743822  0.002866222904877852  0.28052982772360474  1.0000
  Zn  Zn4       1.0  0.7194987476899897  0.25020757999241994  0.9973316402802085  1.0000
  Zn  Zn5       1.0  0.9971786273816861  0.7191772190435088  0.25021314705504943  1.0000
  Zn  Zn6       1.0  0.2500889436010283  0.997054447630461  0.7193557369292803  1.0000
  H   H1        1.0  0.12883012936209326  0.5143537905777008  0.9411501119970039  1.0000
  H   H2        1.0  0.9413666641071148  0.12871330223597985  0.5143314069678979  1.0000
  H   H3        1.0  0.5143629644091092  0.9412446257924286  0.12863523643206068  1.0000
  H   H4        1.0  0.8710115328467083  0.4855410477793  0.058672107328277455  1.0000
  H   H5        1.0  0.0584123933869449  0.8710913221767311  0.4856099761925916  1.0000
  H   H6        1.0  0.485594551267603  0.058692265479343975  0.8712652272758205  1.0000
  H   H7        1.0  0.3521668929493202  0.7106225035633853  0.7939853319390834  1.0000
  H   H8        1.0  0.7937000883054921  0.35187831204090253  0.7104760003987067  1.0000
  H   H9        1.0  0.7107569399428186  0.7943967132299861  0.35212430528152067  1.0000
  H   H10       1.0  0.6477751610864075  0.28923303027828234  0.20589104741175385  1.0000
  H   H11       1.0  0.20604754118658516  0.6480258657804895  0.28928914845659637  1.0000
  H   H12       1.0  0.2892578154984022  0.20560666127812513  0.6478297055570295  1.0000
  H   H13       1.0  0.33140533833655883  0.6120982365966299  0.6092352110044104  1.0000
  H   H14       1.0  0.6087866565816143  0.33117107794079453  0.6119388253605109  1.0000
  H   H15       1.0  0.6121639995755217  0.6096535075046532  0.3312719444226175  1.0000
  H   H16       1.0  0.6685206941896737  0.38778024578090237  0.39063702527017335  1.0000
  H   H17       1.0  0.39092861338442486  0.6686525162489472  0.38778151164048313  1.0000
  H   H18       1.0  0.3878755689147724  0.3903284255478924  0.6686608914569588  1.0000
  H   H19       1.0  0.2089761568591868  0.41902863190217926  0.502323431520324  1.0000
  H   H20       1.0  0.502018862713257  0.20894064807556845  0.4188949965782811  1.0000
  H   H21       1.0  0.4190472338675093  0.5026651103806046  0.2087472214822768  1.0000
  H   H22       1.0  0.7908590313673969  0.5808496521387881  0.49748914007474093  1.0000
  H   H23       1.0  0.4977332606904881  0.7908267664526886  0.580840986258586  1.0000
  H   H24       1.0  0.5810131201416836  0.49728931710641433  0.7911641960382808  1.0000
  H   H25       1.0  0.10376074426178411  0.3160791761346218  0.5768344605167285  1.0000
  H   H26       1.0  0.5767947815049367  0.1038323307709632  0.315931560248508  1.0000
  H   H27       1.0  0.31594378023896036  0.5769920890698755  0.10344486982521765  1.0000
  H   H28       1.0  0.8960142754508099  0.6838330725308805  0.42297172608932937  1.0000
  H   H29       1.0  0.4230217896617745  0.8959901151309636  0.6838601549991096  1.0000
  H   H30       1.0  0.6840722392002049  0.4229129679531879  0.8964261159511935  1.0000
  H   H31       1.0  0.2219258736515926  0.7819946852314459  0.21792995530009307  1.0000
  H   H32       1.0  0.218044610481094  0.221728937240556  0.7818040261521161  1.0000
  H   H33       1.0  0.7827704258111297  0.21819229641138088  0.2218856857984831  1.0000
  H   H34       1.0  0.7780162250055298  0.21789350438393737  0.7819347371370781  1.0000
  H   H35       1.0  0.781797954826203  0.778106885337337  0.2176850904354311  1.0000
  H   H36       1.0  0.2176859048420852  0.7818053603630658  0.7780319928896089  1.0000
  H   H37       1.0  0.8190713663860123  0.6071948371424725  0.007549233856309514  1.0000
  H   H38       1.0  0.007205775648202499  0.8194190752330996  0.6073421719632888  1.0000
  H   H39       1.0  0.6077306477728897  0.007446589180837387  0.8195739363301727  1.0000
  H   H40       1.0  0.1808988268992664  0.39246757696215434  0.992108846482587  1.0000
  H   H41       1.0  0.992879332713173  0.18040820406186253  0.39309181861872133  1.0000
  H   H42       1.0  0.3921891203348978  0.9924858969420566  0.1803278126054407  1.0000
  H   H43       1.0  0.0584730237635469  0.6350369035783103  0.8151838211625133  1.0000
  H   H44       1.0  0.814638569892004  0.05863381170615858  0.634997298187457  1.0000
  H   H45       1.0  0.6357420126974204  0.8153183934179536  0.05855660675508989  1.0000
  H   H46       1.0  0.9416854081989642  0.3653909316460116  0.1847107219236932  1.0000
  H   H47       1.0  0.18523241816104982  0.9410601203534127  0.3648338264103543  1.0000
  H   H48       1.0  0.36407180258420624  0.18462720554195045  0.9413548871210367  1.0000
  H   H49       1.0  0.7428426313198456  0.5278485661946917  0.8076284003778297  1.0000
  H   H50       1.0  0.8070287589763651  0.7433055755121598  0.5281130170581888  1.0000
  H   H51       1.0  0.5284857773870186  0.807491630700724  0.7433835507240757  1.0000
  H   H52       1.0  0.25723586762885015  0.472142899527796  0.19205647012840632  1.0000
  H   H53       1.0  0.19303573412373956  0.2564299624717491  0.4725747415893195  1.0000
  H   H54       1.0  0.4711425293989038  0.19243332829059062  0.25654266950687804  1.0000
  H   H55       1.0  0.8602325744083287  0.5404056063257767  0.7138633534969401  1.0000
  H   H56       1.0  0.713143283058784  0.8605873359748842  0.5406024386561441  1.0000
  H   H57       1.0  0.5411969590552133  0.7138096584404678  0.8605673968029989  1.0000
  H   H58       1.0  0.13992414276569323  0.4600619454314697  0.28592415594911097  1.0000
  H   H59       1.0  0.28683932998279  0.1390793982859009  0.45972116698740706  1.0000
  H   H60       1.0  0.45839531992977806  0.2861522994717092  0.1393778469824269  1.0000
  C   C1        1.0  0.1546000866403077  0.5134822082112079  0.8777192012343704  1.0000
  C   C2        1.0  0.8778581700288157  0.154508085405972  0.5133975412725534  1.0000
  C   C3        1.0  0.513489202765733  0.8778644982335065  0.1543939650841465  1.0000
  C   C4        1.0  0.8452592423093606  0.4864078008494346  0.12210891442735057  1.0000
  C   C5        1.0  0.121932891901487  0.845331997826726  0.4864804729436685  1.0000
  C   C6        1.0  0.48648357597143393  0.12207451784939138  0.8455075266244378  1.0000
  C   C7        1.0  0.23551688334477916  0.5689628172478506  0.786831875831524  1.0000
  C   C8        1.0  0.7867442258002768  0.23537845377654068  0.568825240855915  1.0000
  C   C9        1.0  0.5690195339418125  0.7871004887625687  0.23531471427905604  1.0000
  C   C10       1.0  0.764400289840914  0.4309060918640882  0.21303624364057333  1.0000
  C   C11       1.0  0.21303876525573884  0.764505967587425  0.4309791547658648  1.0000
  C   C12       1.0  0.4309741897742044  0.21286122781767597  0.7645991119208801  1.0000
  C   C13       1.0  0.2970991033664987  0.6257944277170678  0.7465642605732512  1.0000
  C   C14       1.0  0.7463277198849738  0.29689053703803125  0.625658503653682  1.0000
  C   C15       1.0  0.6258751948820134  0.7469156045254975  0.2969474130721608  1.0000
  C   C16       1.0  0.7028293041263397  0.3740690918459606  0.2533055942947441  1.0000
  C   C17       1.0  0.2534432099922839  0.7030068651881434  0.37412194653339265  1.0000
  C   C18       1.0  0.3741322352591894  0.25306428651704493  0.7029773151074536  1.0000
  C   C19       1.0  0.2859814641749665  0.5697460114831827  0.6437788524635693  1.0000
  C   C20       1.0  0.6434631756202904  0.2858019096185628  0.5696055742443348  1.0000
  C   C21       1.0  0.5698106880391904  0.6441386921074113  0.2857998926847428  1.0000
  C   C22       1.0  0.7139220410845296  0.4301243338741614  0.3560780084092627  1.0000
  C   C23       1.0  0.3563012094025454  0.7140556588499435  0.43015132299867526  1.0000
  C   C24       1.0  0.4302183758925651  0.35582713607116284  0.7141139204963807  1.0000
  C   C25       1.0  0.21637728174509624  0.4593674474304449  0.5830530566917814  1.0000
  C   C26       1.0  0.58281880101201  0.2162871061335139  0.4592276269850828  1.0000
  C   C27       1.0  0.4593832527069068  0.5833577537072329  0.21611505008453236  1.0000
  C   C28       1.0  0.7834900570486454  0.5405157934902647  0.416771267286606  1.0000
  C   C29       1.0  0.4169615645800704  0.7835293479529071  0.5405307393058223  1.0000
  C   C30       1.0  0.5406569777209853  0.4165859280137809  0.7837809281315985  1.0000
  C   C31       1.0  0.1657512321801349  0.4574964680896869  0.7259328413956467  1.0000
  C   C32       1.0  0.725912091955145  0.16568688894545874  0.4573580941406448  1.0000
  C   C33       1.0  0.4574728666890381  0.7261258779130627  0.16547879337117175  1.0000
  C   C34       1.0  0.8341426785061258  0.5423966537462518  0.27392173960217997  1.0000
  C   C35       1.0  0.2738981787571362  0.8341873350331921  0.5424451480024003  1.0000
  C   C36       1.0  0.5425384626741233  0.273813538114311  0.8344259939073239  1.0000
  C   C37       1.0  0.1562932951515776  0.40160125208981157  0.6233733370107756  1.0000
  C   C38       1.0  0.6232759644211328  0.15626379141101412  0.4014495237697203  1.0000
  C   C39       1.0  0.4015562989807507  0.6235911627011248  0.15599108180321514  1.0000
  C   C40       1.0  0.8435556153843535  0.5982995751256867  0.37645421702055165  1.0000
  C   C41       1.0  0.37652935656763004  0.8435712629587255  0.5983232229896486  1.0000
  C   C42       1.0  0.5984734604883214  0.3763444300377187  0.8438958965937217  1.0000
  C   C43       1.0  0.1511308064133203  0.7411975110249429  0.1416979005784284  1.0000
  C   C44       1.0  0.14167301012522418  0.15104732426787854  0.7410585451891051  1.0000
  C   C45       1.0  0.7420669330790517  0.14190725873497462  0.1511732309310148  1.0000
  C   C46       1.0  0.8488458104804906  0.2587081825024243  0.8581407656201492  1.0000
  C   C47       1.0  0.8581978345526409  0.8487745849079288  0.2585456174784824  1.0000
  C   C48       1.0  0.2582946283514572  0.8580871833812437  0.848739487393935  1.0000
  C   C49       1.0  0.98387601366273  0.6600846924734894  0.024260614227174026  1.0000
  C   C50       1.0  0.0239759992063497  0.984046674678737  0.6600988809743809  1.0000
  C   C51       1.0  0.6608201846947137  0.024309483257596246  0.9841468352890458  1.0000
  C   C52       1.0  0.0161205576291152  0.339823531550266  0.9755065138469732  1.0000
  C   C53       1.0  0.975986258339461  0.015752369473887213  0.3399147974933572  1.0000
  C   C54       1.0  0.33920805601479026  0.975650905537847  0.015761644421189644  1.0000
  C   C55       1.0  0.8717056030259016  0.6102778502799354  0.9666857116166554  1.0000
  C   C56       1.0  0.9663053845999559  0.8720150841341835  0.6103814803668683  1.0000
  C   C57       1.0  0.6109290998381026  0.9666360439677533  0.8721218228814039  1.0000
  C   C58       1.0  0.128305957007818  0.38954736075623936  0.03302298079743337  1.0000
  C   C59       1.0  0.03373046029309279  0.12777582996331197  0.38993418205830466  1.0000
  C   C60       1.0  0.38894092731961644  0.03331018714600021  0.1277899888438867  1.0000
  C   C61       1.0  0.051203302967977  0.6693456393661207  0.9699449340152879  1.0000
  C   C62       1.0  0.9696264257042487  0.05133874034062562  0.6692618885413567  1.0000
  C   C63       1.0  0.6700628190763283  0.970056686456459  0.05134806661745721  1.0000
  C   C64       1.0  0.9488507940669492  0.3307627459618913  0.029886714388226033  1.0000
  C   C65       1.0  0.0302760540646432  0.9484266492715674  0.33058751976413686  1.0000
  C   C66       1.0  0.32994376645597623  0.02990831881923848  0.9485698821337891  1.0000
  C   C67       1.0  0.00768550488241  0.6273821360036818  0.8576312938381179  1.0000
  C   C68       1.0  0.8571359580071417  0.007881415259674967  0.6273714568983166  1.0000
  C   C69       1.0  0.6280888803662634  0.8576973350928225  0.007836315732824084  1.0000
  C   C70       1.0  0.9924397058278203  0.37293572013648213  0.14221839278088316  1.0000
  C   C71       1.0  0.1427738225453794  0.9918321022918446  0.3725788605139612  1.0000
  C   C72       1.0  0.3717193409764689  0.1422567865848307  0.9920809065278532  1.0000
  C   C73       1.0  0.8295552879185308  0.5665400820493288  0.8550002098350261  1.0000
  C   C74       1.0  0.8544528358356658  0.829919558520693  0.5666787581614514  1.0000
  C   C75       1.0  0.5672211436885419  0.854910634593878  0.8299828339088647  1.0000
  C   C76       1.0  0.1705201484633108  0.4334944209218392  0.1447208493286993  1.0000
  C   C77       1.0  0.1455847409297917  0.1698171796517229  0.4337700846778105  1.0000
  C   C78       1.0  0.4324722263802912  0.145029587730214  0.16993756034809596  1.0000
  C   C79       1.0  0.8963407403970791  0.5743734900847742  0.8012360892480004  1.0000
  C   C80       1.0  0.8006420727712822  0.8966505619190812  0.574500668515462  1.0000
  C   C81       1.0  0.5751406581266707  0.8012088477320134  0.8966405000011335  1.0000
  C   C82       1.0  0.10378919341573581  0.4259506122573241  0.19855248031797856  1.0000
  C   C83       1.0  0.1993340345866059  0.10304881875684661  0.425739365305887  1.0000
  C   C84       1.0  0.4245206334686741  0.19874969895018774  0.10328274037058084  1.0000
  C   C85       1.0  0.0774330491960242  0.61038246173554  0.5138215545189267  1.0000
  C   C86       1.0  0.5138905357095567  0.07737780040346817  0.6104289808541239  1.0000
  C   C87       1.0  0.6103659185713681  0.5138585262775022  0.07748838210781618  1.0000
  C   C88       1.0  0.9224827286206578  0.389530254749424  0.48611671494064995  1.0000
  C   C89       1.0  0.4861096210083105  0.9225475417532178  0.3895312769549689  1.0000
  C   C90       1.0  0.389536673691765  0.4860098688110098  0.9223080787044963  1.0000
  C   C91       1.0  0.9722965821588261  0.818089933279005  0.8124193689204517  1.0000
  C   C92       1.0  0.8137962884718064  0.9731897784004103  0.8195824009448102  1.0000
  C   C93       1.0  0.8210906024234105  0.8155590220428337  0.9747536378151123  1.0000
  C   C94       1.0  0.030685630591769094  0.18509365129506955  0.19098969583228606  1.0000
  C   C95       1.0  0.1859643714724726  0.0267325371454206  0.1807231107530782  1.0000
  C   C96       1.0  0.1781538114435293  0.18426558218479977  0.025253236865125882  1.0000
  N   N1        1.0  0.2269609453667911  0.6021303424936874  0.8835731940506903  1.0000
  N   N2        1.0  0.8835919960802556  0.22680499426596876  0.6020181820102338  1.0000
  N   N3        1.0  0.6022016079616038  0.8838068318008823  0.22677503459169657  1.0000
  N   N4        1.0  0.7729506009002379  0.397747040838695  0.11628193513173107  1.0000
  N   N5        1.0  0.1161902248616968  0.7730516148141148  0.3978365212364848  1.0000
  N   N6        1.0  0.397772003164711  0.1161427067252419  0.7731312359413636  1.0000
  N   N7        1.0  0.115604856893853  0.4244398857175823  0.7864575761251232  1.0000
  N   N8        1.0  0.7865934734924452  0.11558381177442825  0.424333801654207  1.0000
  N   N9        1.0  0.4243952742866668  0.7865804160867993  0.1153430008518938  1.0000
  N   N10       1.0  0.884247231064208  0.5754499390773018  0.21336278821804908  1.0000
  N   N11       1.0  0.21323451891865372  0.8842784214672574  0.5755147550130175  1.0000
  N   N12       1.0  0.5756015419248114  0.21334047993241964  0.8845491560349997  1.0000
  N   N13       1.0  0.15741064026626359  0.7214539226850576  0.04685332959450503  1.0000
  N   N14       1.0  0.0467233594858314  0.15740215224639797  0.7212567394623406  1.0000
  N   N15       1.0  0.7222392646474847  0.047059739005696814  0.15743056434813246  1.0000
  N   N16       1.0  0.842628221158769  0.2786241333953754  0.9530249492531696  1.0000
  N   N17       1.0  0.9531329530866091  0.8423831034065757  0.27834459790145166  1.0000
  N   N18       1.0  0.2779833481625573  0.9529214543603359  0.8424804188211323  1.0000
  N   N19       1.0  0.04976024169677369  0.7063648471723312  0.13386501231327935  1.0000
  N   N20       1.0  0.13374694929296987  0.0497686530408288  0.7063556853284182  1.0000
  N   N21       1.0  0.7072189836021252  0.13397589476065971  0.049947582994697426  1.0000
  N   N22       1.0  0.9501992255747853  0.2934427552724443  0.8659219072405123  1.0000
  N   N23       1.0  0.866193422262299  0.9500737763659614  0.29349204131504075  1.0000
  N   N24       1.0  0.2930486037173239  0.8660062462290199  0.9499660036954082  1.0000
  O   O1        1.0  0.06482001494538991  0.5424705911676424  0.43536210406409737  1.0000
  O   O2        1.0  0.4353899219397164  0.06471126620007082  0.5425020964508889  1.0000
  O   O3        1.0  0.5425085547097196  0.4353353863488038  0.06485797745672524  1.0000
  O   O4        1.0  0.9350515621202928  0.4574516139194598  0.5645450630560374  1.0000
  O   O5        1.0  0.5646087099095424  0.9352374145783457  0.4574778403298226  1.0000
  O   O6        1.0  0.4574435732274082  0.5644595753783291  0.9348793560734519  1.0000
  O   O7        1.0  0.0891600442241298  0.6776637099553258  0.5923526314423242  1.0000
  O   O8        1.0  0.5924572967098598  0.08914880906120003  0.6777159310381294  1.0000
  O   O9        1.0  0.6775697666742391  0.5924386731354475  0.08921206307477557  1.0000
  O   O10       1.0  0.9107991386119707  0.3222406370013148  0.4076196074233707  1.0000
  O   O11       1.0  0.40754035551507434  0.9107478518964452  0.3222225424332236  1.0000
  O   O12       1.0  0.3222856960399412  0.40749765325323745  0.9106481358444112  1.0000
  O   O13       1.0  0.0585717650726636  0.8804353850970444  0.8797537147008966  1.0000
  O   O14       1.0  0.878702054201156  0.06085935857647241  0.8807251113191086  1.0000
  O   O15       1.0  0.8813929349885612  0.8813371712171046  0.06227321690198546  1.0000
  O   O16       1.0  0.9455074215180588  0.1215558377070139  0.12230942659820702  1.0000
  O   O17       1.0  0.12130587590023371  0.9389192086907768  0.11971286583907657  1.0000
  O   O18       1.0  0.11873530212834278  0.11983792359841057  0.9369543483618088  1.0000
  O   O19       1.0  0.8857995688520858  0.7563401438664384  0.7453171751345804  1.0000
  O   O20       1.0  0.7491459820237337  0.885275288984765  0.7590352493146142  1.0000
  O   O21       1.0  0.7613820108315607  0.7500289905495945  0.8869829443969052  1.0000
  O   O22       1.0  0.11606727050435238  0.2480527067561127  0.2594581573438859  1.0000
  O   O23       1.0  0.25035775757555007  0.114780879378749  0.24114096440357  1.0000
  O   O24       1.0  0.23699867526279664  0.24844713682030323  0.11381259794372768  1.0000
