data_image0
_chemical_formula_structural       Cd2H36C66N10O12F18
_chemical_formula_sum              "Cd2 H36 C66 N10 O12 F18"
_cell_length_a       10.797254225693187
_cell_length_b       12.354490780507854
_cell_length_c       13.71364000386466
_cell_angle_alpha    110.17619857781614
_cell_angle_beta     96.41884054335533
_cell_angle_gamma    99.72551519471338

_space_group_name_H-M_alt    "P 1"
_space_group_IT_number       1

loop_
  _space_group_symop_operation_xyz
  'x, y, z'

loop_
  _atom_site_type_symbol
  _atom_site_label
  _atom_site_symmetry_multiplicity
  _atom_site_fract_x
  _atom_site_fract_y
  _atom_site_fract_z
  _atom_site_occupancy
  Cd  Cd1       1.0  0.9966788625340969  0.2834301608154064  0.21647442959792323  1.0000
  Cd  Cd2       1.0  0.003323429740746151  0.7165679816705294  0.7835244477865189  1.0000
  H   H1        1.0  0.732162210668335  0.2842191554520852  0.10087388447774256  1.0000
  H   H2        1.0  0.26784065437733773  0.715781628928589  0.8991243923820917  1.0000
  H   H3        1.0  0.8897590183319579  0.44408023417059866  0.4205046774533726  1.0000
  H   H4        1.0  0.11023837576701108  0.5559125378867975  0.579495757422734  1.0000
  H   H5        1.0  0.5331792854853035  0.35481936674496234  0.12937309329500116  1.0000
  H   H6        1.0  0.46682433602700957  0.645180545783532  0.8706235292620761  1.0000
  H   H7        1.0  0.6978043997916075  0.5207022894502414  0.4625295704309166  1.0000
  H   H8        1.0  0.3021939467909717  0.4792904842801418  0.5374680359719618  1.0000
  H   H9        1.0  0.3932237481868768  0.4189923623356434  0.2757608488217898  1.0000
  H   H10       1.0  0.6067753947847123  0.5810082927674998  0.7242319405068682  1.0000
  H   H11       1.0  0.47289337650306607  0.5233412870168976  0.40195873326312886  1.0000
  H   H12       1.0  0.5270997388921614  0.47665309581051934  0.5980359637173932  1.0000
  H   H13       1.0  0.5554719503109311  0.0595894148596088  0.10640298932737118  1.0000
  H   H14       1.0  0.44453559865469566  0.9404202963349775  0.8936006277925371  1.0000
  H   H15       1.0  0.6157343862551629  0.1610565703647779  0.236902031121268  1.0000
  H   H16       1.0  0.3842682721746228  0.8389477597416573  0.763101682496895  1.0000
  H   H17       1.0  0.4259698707654281  0.18829581810278026  0.35954585232193637  1.0000
  H   H18       1.0  0.574034100760656  0.811705900103931  0.640456457357885  1.0000
  H   H19       1.0  0.3655064013286662  0.09358146941004722  0.020467559970327905  1.0000
  H   H20       1.0  0.6344979507713049  0.9064220118364187  0.9795345928586554  1.0000
  H   H21       1.0  0.22234203369877997  0.2563487363197083  0.3580393422190156  1.0000
  H   H22       1.0  0.7776583727089273  0.7436493761712126  0.6419615396283901  1.0000
  H   H23       1.0  0.1685957375956235  0.1707960659328407  0.0335854466189218  1.0000
  H   H24       1.0  0.8314063595233703  0.8292056062894272  0.9664166760337589  1.0000
  H   H25       1.0  0.9588762717740237  0.43450593519457215  0.06715629566230769  1.0000
  H   H26       1.0  0.0411233811259422  0.5654886405572127  0.9328434388933927  1.0000
  H   H27       1.0  0.9206654928548372  0.07494647153740168  0.9931930643947168  1.0000
  H   H28       1.0  0.07933605737230215  0.9250481182199694  0.006802474207923077  1.0000
  H   H29       1.0  0.8822435100410999  0.4037977524416121  0.8768432435645933  1.0000
  H   H30       1.0  0.11775182977498841  0.5961984820484574  0.12315732756581346  1.0000
  H   H31       1.0  0.849604479525233  0.030241393666180696  0.8014819594885764  1.0000
  H   H32       1.0  0.15039575378559533  0.9697558133207309  0.19851571354910638  1.0000
  H   H33       1.0  0.7962606706786772  0.27475076614247473  0.7010471929205834  1.0000
  H   H34       1.0  0.20373692411838817  0.7252472773717995  0.2989534083861186  1.0000
  H   H35       1.0  0.7161764283693797  0.1303807915428479  0.6847242931156572  1.0000
  H   H36       1.0  0.2838247345049609  0.8696164490958934  0.31527493442899157  1.0000
  C   C1        1.0  0.7211656976617532  0.33786078716501317  0.17975616996749005  1.0000
  C   C2        1.0  0.2788384766602121  0.6621373906457393  0.8202414334506969  1.0000
  C   C3        1.0  0.8089049379227403  0.4260559628940613  0.35774737131827544  1.0000
  C   C4        1.0  0.19109171880966608  0.5739376543664747  0.6422510653770885  1.0000
  C   C5        1.0  0.6098447199354524  0.3774612148430307  0.19630623060922395  1.0000
  C   C6        1.0  0.3901566427758709  0.622536893991075  0.8036910922682522  1.0000
  C   C7        1.0  0.6998364972069737  0.4689750619126373  0.3806328819733409  1.0000
  C   C8        1.0  0.3001586610110962  0.531015874471528  0.6193638702429779  1.0000
  C   C9        1.0  0.5974585465001709  0.44511259633505773  0.29882304301181506  1.0000
  C   C10       1.0  0.4025398162235803  0.5548845593376086  0.701173712502033  1.0000
  C   C11       1.0  0.4772596706177125  0.4910991132177641  0.3175810974836323  1.0000
  C   C12       1.0  0.5227386997460712  0.5088980317952831  0.682414197036813  1.0000
  C   C13       1.0  0.4723182295091418  0.5899568388046673  0.27746495272256766  1.0000
  C   C14       1.0  0.5276816240889204  0.4100430084039886  0.7225349482637284  1.0000
  C   C15       1.0  0.4236947110281832  0.5674292649825433  0.1709088049877181  1.0000
  C   C16       1.0  0.5763049550540558  0.43257410130284046  0.8290928802734142  1.0000
  C   C17       1.0  0.5185492986709548  0.7069813182107723  0.34245259787294907  1.0000
  C   C18       1.0  0.4814514959506653  0.29301854666029925  0.6575466661302157  1.0000
  C   C19       1.0  0.4257703745803383  0.6559685788829056  0.13136974828996975  1.0000
  C   C20       1.0  0.5742244209272511  0.34403378292680026  0.8686304520836926  1.0000
  C   C21       1.0  0.5221865112051985  0.8026971449291264  0.30744681564064524  1.0000
  C   C22       1.0  0.47780809974546656  0.197304327365984  0.6925523674133842  1.0000
  C   C23       1.0  0.4755351986144234  0.7761199129550744  0.1969793770597547  1.0000
  C   C24       1.0  0.5244635417243159  0.22388341434866985  0.8030200231977174  1.0000
  C   C25       1.0  0.5690745443391377  0.9228965435765275  0.3738563664275602  1.0000
  C   C26       1.0  0.4309211845519839  0.0771058465551988  0.6261446579563666  1.0000
  C   C27       1.0  0.48077227251069843  0.8722285984238524  0.16248089750272496  1.0000
  C   C28       1.0  0.5192270291388255  0.1277773867640448  0.8375200937202293  1.0000
  C   C29       1.0  0.573784422603083  0.011707575816259896  0.3345259024063266  1.0000
  C   C30       1.0  0.4262142986355855  0.9882957781365176  0.665477150334638  1.0000
  C   C31       1.0  0.5295353753775486  0.9889847222980986  0.22718003115853236  1.0000
  C   C32       1.0  0.470467486709225  0.011020470673891197  0.7728210472957641  1.0000
  C   C33       1.0  0.5353989563551877  0.08860768671159039  0.18689946020825937  1.0000
  C   C34       1.0  0.4646048391151183  0.91139753458242  0.8131024422563086  1.0000
  C   C35       1.0  0.4138414569142057  0.13426044560765857  0.1895165230622098  1.0000
  C   C36       1.0  0.5861645935370845  0.86574658471055  0.8104854095786463  1.0000
  C   C37       1.0  0.3720870479908669  0.1822869213137821  0.28512088248667306  1.0000
  C   C38       1.0  0.6279169273552299  0.8177147915631197  0.7148806966964542  1.0000
  C   C39       1.0  0.3390343260691324  0.1300362065143901  0.0975786427852725  1.0000
  C   C40       1.0  0.6609692772042307  0.8699681359246512  0.9024237033530581  1.0000
  C   C41       1.0  0.258683005579705  0.22122844501480182  0.28519117586159126  1.0000
  C   C42       1.0  0.7413196596289922  0.7787714711705078  0.7148090056654154  1.0000
  C   C43       1.0  0.2276473414397202  0.1726643828862677  0.1043037611896054  1.0000
  C   C44       1.0  0.7723547594992866  0.8273372840062049  0.8956976309663743  1.0000
  C   C45       1.0  0.9341128806173272  0.34645007273631007  0.005225323452819479  1.0000
  C   C46       1.0  0.0658865877257213  0.6535436135008793  0.994773393783248  1.0000
  C   C47       1.0  0.9137596478735333  0.1456009373062273  0.9637818215480181  1.0000
  C   C48       1.0  0.08624752557489054  0.8543937904044512  0.036214278136036185  1.0000
  C   C49       1.0  0.892026632870035  0.3292772021046274  0.9001724914525012  1.0000
  C   C50       1.0  0.10797434162737571  0.670719154349328  0.09982644926922289  1.0000
  C   C51       1.0  0.8727597612257371  0.12135321702665179  0.8573672671649746  1.0000
  C   C52       1.0  0.12723821710411443  0.878642180936062  0.14263037569641304  1.0000
  C   C53       1.0  0.8596858916964791  0.2144971267926863  0.8237039916782862  1.0000
  C   C54       1.0  0.14031320839384165  0.7854991836768338  0.17629476201629762  1.0000
  C   C55       1.0  0.8099447773156567  0.19225227434822756  0.7096336748363328  1.0000
  C   C56       1.0  0.19005507628240534  0.8077475728604281  0.2903662261499631  1.0000
  C   C57       1.0  0.8955667213851796  0.1386309699984025  0.6359495983511181  1.0000
  C   C58       1.0  0.10443275927902113  0.8613671035108795  0.36404899849262057  1.0000
  C   C59       1.0  0.8805206079446464  0.017943702212505696  0.5883187646378971  1.0000
  C   C60       1.0  0.11947512390537444  0.9820542793279046  0.4116794581515676  1.0000
  C   C61       1.0  0.9512024960721561  0.9623588124502902  0.512739662049263  1.0000
  C   C62       1.0  0.048800181457700396  0.037645491007104695  0.4872603990854074  1.0000
  C   C63       1.0  0.9316311285977648  0.8384182386320801  0.46032271906108946  1.0000
  C   C64       1.0  0.068371702067779  0.16158259371685801  0.5396821322690357  1.0000
  C   C65       1.0  0.9941708665339631  0.20945702657684254  0.6112680389897918  1.0000
  C   C66       1.0  0.005826724443089406  0.7905410222672343  0.3887332928136046  1.0000
  N   N1        1.0  0.8199122541142359  0.36169902177125113  0.25882720061751024  1.0000
  N   N2        1.0  0.1800879715565671  0.6382981958752723  0.741171933413568  1.0000
  N   N3        1.0  0.18693968289759508  0.21662273953531747  0.19623976652287914  1.0000
  N   N4        1.0  0.8130626025983361  0.7833798168717433  0.8037626429527335  1.0000
  N   N5        1.0  0.9442653653536865  0.2562995737158856  0.03713925959042538  1.0000
  N   N6        1.0  0.05573504019290002  0.7436941355135218  0.9628595511592124  1.0000
  N   N7        1.0  0.16647991169632087  0.5115669531581302  0.3403944037107108  1.0000
  N   N8        1.0  0.8335216241118815  0.488432061179985  0.6596061279764952  1.0000
  N   N9        1.0  0.8819644301563229  0.06558821915018599  0.24038964993858505  1.0000
  N   N10       1.0  0.11803765932263845  0.9344134637317083  0.7596139337074986  1.0000
  O   O1        1.0  0.8547999393953488  0.0724808197231184  0.1491642020978077  1.0000
  O   O2        1.0  0.14520646698750284  0.9275191990906746  0.8508378144768683  1.0000
  O   O3        1.0  0.9572058014841217  0.1559341031989234  0.3141416025565107  1.0000
  O   O4        1.0  0.04279291211451414  0.8440692614134734  0.6858629111778426  1.0000
  O   O5        1.0  0.8373587086520331  0.9754542207106096  0.25702680373628767  1.0000
  O   O6        1.0  0.16263982802971097  0.024548243727579695  0.742975231685044  1.0000
  O   O7        1.0  0.1356607276213637  0.4849872169271662  0.24067862153101766  1.0000
  O   O8        1.0  0.8643398709832866  0.5150117744187312  0.7593218166426183  1.0000
  O   O9        1.0  0.11878144939927177  0.43590804430161256  0.37936365389798954  1.0000
  O   O10       1.0  0.8812172824383211  0.5640908904002302  0.6206351362551104  1.0000
  O   O11       1.0  0.2409392594262272  0.6062626978499208  0.3986406405040767  1.0000
  O   O12       1.0  0.7590624685789251  0.3937371953431709  0.6013594475093527  1.0000
  F   F1        1.0  0.37259173839724014  0.45427808620284094  0.10387852221739993  1.0000
  F   F2        1.0  0.627411691779237  0.5457253507321838  0.8961206151112149  1.0000
  F   F3        1.0  0.5626672785023175  0.7306764042671786  0.44599746676713176  1.0000
  F   F4        1.0  0.4373357749202924  0.2693252642982813  0.554001096915627  1.0000
  F   F5        1.0  0.3781766287294842  0.6245640091190267  0.027262225935146392  1.0000
  F   F6        1.0  0.6218232448297627  0.37544021470210254  0.9727360936654179  1.0000
  F   F7        1.0  0.6111478920038563  0.9536508808963118  0.47816772442092753  1.0000
  F   F8        1.0  0.38884052085692383  0.0463566234035895  0.5218363707685398  1.0000
  F   F9        1.0  0.43605242334687233  0.8491642164767371  0.05834562907864429  1.0000
  F   F10       1.0  0.5639391808373091  0.15084071657805959  0.9416565187029207  1.0000
  F   F11       1.0  0.6232727936965858  0.124816749284328  0.4014271666934235  1.0000
  F   F12       1.0  0.3767186144706329  0.8751873102453088  0.5985761552586125  1.0000
  F   F13       1.0  0.791081180457411  0.9487529392932996  0.6169500491990617  1.0000
  F   F14       1.0  0.20891306519943237  0.051246748642825  0.3830463687190218  1.0000
  F   F15       1.0  0.838199125723797  0.7632258623302732  0.4781846292916825  1.0000
  F   F16       1.0  0.16180577832470525  0.2367714809369516  0.5218164333006426  1.0000
  F   F17       1.0  0.01756908240049881  0.3287812300652035  0.6604193210134071  1.0000
  F   F18       1.0  0.9824346731474305  0.6712152380038603  0.33958574422261717  1.0000
