data_image0
_chemical_formula_structural       Al2H24C48O12F6
_chemical_formula_sum              "Al2 H24 C48 O12 F6"
_cell_length_a       3.9573474671846425
_cell_length_b       28.565170466636026
_cell_length_c       28.56679425126877
_cell_angle_alpha    119.99539771007107
_cell_angle_beta     90.01154859866993
_cell_angle_gamma    89.96549280328323

_space_group_name_H-M_alt    "P 1"
_space_group_IT_number       1

loop_
  _space_group_symop_operation_xyz
  'x, y, z'

loop_
  _atom_site_type_symbol
  _atom_site_label
  _atom_site_symmetry_multiplicity
  _atom_site_fract_x
  _atom_site_fract_y
  _atom_site_fract_z
  _atom_site_occupancy
  Al  Al1       1.0  0.008990406387944502  0.5000045284034728  0.49998902969176845  1.0000
  Al  Al2       1.0  0.009038268081418702  0.16667019118322912  0.8333475204630078  1.0000
  H   H1        1.0  0.2915517295906724  0.18518727840845642  0.6999037670572364  1.0000
  H   H2        1.0  0.28747848001326304  0.23740047472028192  0.6518933610596849  1.0000
  H   H3        1.0  0.6814950996335442  0.3757430574525813  0.7960935577400506  1.0000
  H   H4        1.0  0.6816392819508081  0.29088696720425145  0.5372447271241827  1.0000
  H   H5        1.0  0.287953789332434  0.4293298352189511  0.6814593274344602  1.0000
  H   H6        1.0  0.29213104875903884  0.4815294224595307  0.6334521609862662  1.0000
  H   H7        1.0  0.5093655908983266  0.38666461039474603  0.7209439551654172  1.0000
  H   H8        1.0  0.5092222450648336  0.2800035569046104  0.6123934081192105  1.0000
  H   H9        1.0  0.2922361379836431  0.014715732527200537  0.8148160519860073  1.0000
  H   H10       1.0  0.28839493146249146  0.9145359890549897  0.7626378167939264  1.0000
  H   H11       1.0  0.6825332652330474  0.9203610868845549  0.6242458075508639  1.0000
  H   H12       1.0  0.6818277688430426  0.7462530652761714  0.7090563673646103  1.0000
  H   H13       1.0  0.2880592373633988  0.7522262433802426  0.5707108024096712  1.0000
  H   H14       1.0  0.2915172730921256  0.6520395442105598  0.5185020546832321  1.0000
  H   H15       1.0  0.5103018617682977  0.8343058046078156  0.6133298486167719  1.0000
  H   H16       1.0  0.510083681276484  0.832367173505631  0.7199807953675762  1.0000
  H   H17       1.0  0.29176386134053445  0.30015851748319705  0.985316941222287  1.0000
  H   H18       1.0  0.28795129522124097  0.348128709295402  0.08551000499655707  1.0000
  H   H19       1.0  0.6818459417728776  0.20384871053230572  0.07964982296127938  1.0000
  H   H20       1.0  0.6816871766420219  0.4627547742287704  0.25366355442866256  1.0000
  H   H21       1.0  0.2881324934050157  0.3185484796913088  0.24784779665687046  1.0000
  H   H22       1.0  0.2920023705208834  0.36653387756174294  0.34805065763936943  1.0000
  H   H23       1.0  0.5098254891201747  0.2790391758637227  0.16574103247785396  1.0000
  H   H24       1.0  0.5096766453293284  0.38758785875457147  0.1676041469806435  1.0000
  C   C1        1.0  0.5086935761057063  0.4657178351751412  0.4172324474347633  1.0000
  C   C2        1.0  0.5089470560766856  0.451511868887522  0.5342534387677134  1.0000
  C   C3        1.0  0.5084156373958209  0.5827611780430999  0.5484632162723173  1.0000
  C   C4        1.0  0.5084707905010646  0.2151628911969965  0.7990844160490556  1.0000
  C   C5        1.0  0.5090704013852303  0.08391819548743469  0.7848497409035461  1.0000
  C   C6        1.0  0.5086990297436317  0.200941813496577  0.9161016094420165  1.0000
  C   C7        1.0  0.5034032093743264  0.24907945139363358  0.7731241257642979  1.0000
  C   C8        1.0  0.3838524484390291  0.22667572778185993  0.7197763782862555  1.0000
  C   C9        1.0  0.38370647543409586  0.25597895990073743  0.693105417886912  1.0000
  C   C10       1.0  0.4935183689628602  0.31022742535241604  0.7196034334692673  1.0000
  C   C11       1.0  0.6012163094262704  0.33360846389201987  0.7735998151536237  1.0000
  C   C12       1.0  0.6114892411901139  0.30295929041481157  0.7988829366565541  1.0000
  C   C13       1.0  0.49563744747524646  0.342946212108707  0.6936143791909047  1.0000
  C   C14       1.0  0.49565937952169753  0.32372431180370137  0.6397280628256325  1.0000
  C   C15       1.0  0.6015328196838752  0.33304020229476095  0.5597432349078204  1.0000
  C   C16       1.0  0.49380103805010833  0.3564486579327165  0.6137428193247629  1.0000
  C   C17       1.0  0.3841400998428668  0.41072194481131424  0.6402413048533333  1.0000
  C   C18       1.0  0.38432516200447964  0.4400183246566059  0.6135610743694786  1.0000
  C   C19       1.0  0.5039018131829707  0.41759003984465454  0.560213373956252  1.0000
  C   C20       1.0  0.6119909373918232  0.36369375876482485  0.53445993935199  1.0000
  C   C21       1.0  0.5041565614741543  0.02404492322985157  0.7509149936127674  1.0000
  C   C22       1.0  0.3845735956633262  0.9931130790878274  0.7733228401431733  1.0000
  C   C23       1.0  0.3845052736395687  0.9371396733955566  0.7440220656510732  1.0000
  C   C24       1.0  0.494282888704376  0.9093837424567184  0.6897656934669811  1.0000
  C   C25       1.0  0.602043057518131  0.9399911460447329  0.6663701284685575  1.0000
  C   C26       1.0  0.612334341856581  0.9959282984300942  0.6970355444814444  1.0000
  C   C27       1.0  0.49648616962175407  0.8506796404008413  0.6570457505136532  1.0000
  C   C28       1.0  0.49638851023229347  0.8159979464622753  0.6762649401647353  1.0000
  C   C29       1.0  0.6014753108612538  0.7266552839996621  0.6669302225872045  1.0000
  C   C30       1.0  0.494030644158059  0.7572984539680334  0.6435441992417879  1.0000
  C   C31       1.0  0.3840852466535267  0.7295782605843899  0.5892984008871593  1.0000
  C   C32       1.0  0.383938580124827  0.6736046115961046  0.5599880809803466  1.0000
  C   C33       1.0  0.503388461465839  0.6426340754551774  0.5823843159693213  1.0000
  C   C34       1.0  0.6114855036682557  0.6707187637376464  0.636264908759749  1.0000
  C   C35       1.0  0.5036830259675824  0.22689085436000062  0.9759759341286414  1.0000
  C   C36       1.0  0.38409966080719476  0.280251213365034  0.006914784315050302  1.0000
  C   C37       1.0  0.38408657567205756  0.3069007312610737  0.06288687145836748  1.0000
  C   C38       1.0  0.4939198058728351  0.2803856828214251  0.0906406562661033  1.0000
  C   C39       1.0  0.6015493839481891  0.22636912917030835  0.060023794182775696  1.0000
  C   C40       1.0  0.6117810033810683  0.2011111185551044  0.0040929312557764965  1.0000
  C   C41       1.0  0.4961371924282716  0.3063613666998037  0.14934064208723896  1.0000
  C   C42       1.0  0.4960916169097516  0.3602675034920751  0.1840038392593755  1.0000
  C   C43       1.0  0.6014696126892715  0.4402530261134104  0.2732992249246493  1.0000
  C   C44       1.0  0.49393736977221175  0.3862508599865749  0.24270205468120312  1.0000
  C   C45       1.0  0.38423713755736344  0.3597585105952704  0.2704675266663586  1.0000
  C   C46       1.0  0.3842391884636386  0.38641969534104  0.3264391566875062  1.0000
  C   C47       1.0  0.5036826736266988  0.439763909628681  0.35736017647747803  1.0000
  C   C48       1.0  0.6116607457953195  0.4655220460863418  0.32923451111170005  1.0000
  O   O1        1.0  0.7459635855288766  0.5569275839444217  0.5557085582440138  1.0000
  O   O2        1.0  0.7460879150180091  0.4987838256855285  0.4430444316779401  1.0000
  O   O3        1.0  0.7464921923684288  0.444263680491389  0.5012010402432168  1.0000
  O   O4        1.0  0.2750598721216022  0.5613335497052034  0.5130732763215278  1.0000
  O   O5        1.0  0.27556697371769456  0.4869288467415701  0.5482107650884487  1.0000
  O   O6        1.0  0.2754806866702708  0.4517632653745878  0.4386844030014885  1.0000
  O   O7        1.0  0.7462769037725819  0.16787312572135002  0.8902806625857524  1.0000
  O   O8        1.0  0.745908009551819  0.2224051102104099  0.8321549027964111  1.0000
  O   O9        1.0  0.7464517383865257  0.10974023303963773  0.7776063834053347  1.0000
  O   O10       1.0  0.2752634582142548  0.21490296921467683  0.8946611695023635  1.0000
  O   O11       1.0  0.2757524398344984  0.1053557694210668  0.8202618345633967  1.0000
  O   O12       1.0  0.27523775186723043  0.17976244091141072  0.7851230803696368  1.0000
  F   F1        1.0  0.7197181635093698  0.32763097758986237  0.8509687377032193  1.0000
  F   F2        1.0  0.7203263286940924  0.33900039894628986  0.4823763163948201  1.0000
  F   F3        1.0  0.7206473667770084  0.02333852028385053  0.6723636039480071  1.0000
  F   F4        1.0  0.7195133544313846  0.6432752717706551  0.6609339420949285  1.0000
  F   F5        1.0  0.7200217808829733  0.14901426676939156  0.9766823639815742  1.0000
  F   F6        1.0  0.7197422156956748  0.5176060213069533  0.3566346058669084  1.0000
