data_image0
_chemical_formula_structural       HgH30C34N6Cl2O4
_chemical_formula_sum              "Hg1 H30 C34 N6 Cl2 O4"
_cell_length_a       4.982933345696188
_cell_length_b       12.065432780083501
_cell_length_c       15.40223392521147
_cell_angle_alpha    82.57699688677512
_cell_angle_beta     80.68653193135248
_cell_angle_gamma    78.08278790430593

_space_group_name_H-M_alt    "P 1"
_space_group_IT_number       1

loop_
  _space_group_symop_operation_xyz
  'x, y, z'

loop_
  _atom_site_type_symbol
  _atom_site_label
  _atom_site_symmetry_multiplicity
  _atom_site_fract_x
  _atom_site_fract_y
  _atom_site_fract_z
  _atom_site_occupancy
  Hg  Hg1       1.0  0.3661284836747644  0.9999974514521244  0.9999945409062646  1.0000
  H   H1        1.0  0.9733823096548093  0.2540217347801601  0.9503417003952848  1.0000
  H   H2        1.0  0.17774876278529925  0.7460573556682915  0.04964468237248103  1.0000
  H   H3        1.0  0.6334905105753846  0.3525365611613864  0.8506533155349558  1.0000
  H   H4        1.0  0.8367532118004847  0.6475156078539187  0.1493525687657353  1.0000
  H   H5        1.0  0.7359966745688169  0.033777287494665104  0.7376670930618943  1.0000
  H   H6        1.0  0.5074532178938682  0.9662397730425738  0.2623834529248015  1.0000
  H   H7        1.0  0.06162396835601672  0.9488396570399759  0.8442093724988169  1.0000
  H   H8        1.0  0.8545900654393108  0.051189850583099904  0.15583660577555486  1.0000
  H   H9        1.0  0.3999276389994435  0.0980005717283987  0.6795116638442877  1.0000
  H   H10       1.0  0.176994958177062  0.9019323100181464  0.3202757201606302  1.0000
  H   H11       1.0  0.9649780144156923  0.4003966773139567  0.5472604145866811  1.0000
  H   H12       1.0  0.912753786371894  0.5995273567002641  0.4527752420351234  1.0000
  H   H13       1.0  0.483303148724055  0.4297442087209618  0.7365225546798086  1.0000
  H   H14       1.0  0.6496911810757882  0.570243776771143  0.263467279063974  1.0000
  H   H15       1.0  0.47934578596369454  0.25262008391172236  0.4386878373440766  1.0000
  H   H16       1.0  0.17075675449801536  0.7473623282049359  0.5613219631560185  1.0000
  H   H17       1.0  0.4051496263940138  0.2630862336126185  0.2631343500828152  1.0000
  H   H18       1.0  0.9313987514300026  0.7369351574674994  0.7368705929599031  1.0000
  H   H19       1.0  0.5308936387599843  0.13182175382637953  0.3239129380794381  1.0000
  H   H20       1.0  0.9866584499603877  0.8682032138358695  0.6760762185696407  1.0000
  H   H21       1.0  0.9256846033623135  0.22832473379089888  0.2986760544376921  1.0000
  H   H22       1.0  0.4526888247303875  0.7716745606346151  0.701318293749672  1.0000
  H   H23       1.0  0.12084520550541095  0.09504728952534693  0.2699488995628272  1.0000
  H   H24       1.0  0.4858533966536954  0.9049521112758327  0.7300750667181928  1.0000
  H   H25       1.0  0.8033742376457839  0.10435372753690332  0.4337308965428973  1.0000
  H   H26       1.0  0.34161623433000443  0.8956530058639418  0.5662793739926499  1.0000
  H   H27       1.0  0.14404760133685807  0.0238536800381084  0.4264935712352411  1.0000
  H   H28       1.0  0.5945679571570043  0.9761594710824967  0.573531366859619  1.0000
  H   H29       1.0  0.5482515846927143  0.41901692946854047  0.37820971855478547  1.0000
  H   H30       1.0  0.34553986117763463  0.5809486670816641  0.6217244310940657  1.0000
  C   C1        1.0  0.9142896493858073  0.2091417684847059  0.9013804344626521  1.0000
  C   C2        1.0  0.024796928626336992  0.7909371156437643  0.0986097567338717  1.0000
  C   C3        1.0  0.7250777773375031  0.2632030911153933  0.8449413980314944  1.0000
  C   C4        1.0  0.833206074586329  0.736859370817271  0.1550408859572912  1.0000
  C   C5        1.0  0.6534457436666017  0.20215560151892484  0.7831081999165334  1.0000
  C   C6        1.0  0.6386031382218393  0.797874253517108  0.2168824095679511  1.0000
  C   C7        1.0  0.7766617533044526  0.08646435531209562  0.7840978215947202  1.0000
  C   C8        1.0  0.6471530892135535  0.9135477654561797  0.2159295348209156  1.0000
  C   C9        1.0  0.9638206235593715  0.038628408776745005  0.8424379164769673  1.0000
  C   C10       1.0  0.8448319027513376  0.9613960129324826  0.15760480341593555  1.0000
  C   C11       1.0  0.4631780433480444  0.25613132070993316  0.7186167823726137  1.0000
  C   C12       1.0  0.4378901224349222  0.7438377040761354  0.2813597445866804  1.0000
  C   C13       1.0  0.35341041210312363  0.1903358263748203  0.6695753526741013  1.0000
  C   C14       1.0  0.21307832585156194  0.8095979457652406  0.3303432426039521  1.0000
  C   C15       1.0  0.18305053818050956  0.24130089353946  0.6060315531277638  1.0000
  C   C16       1.0  0.03037576007246681  0.7586419340959552  0.3939859342420817  1.0000
  C   C17       1.0  0.10721725379200121  0.3598039397507621  0.5935287292059641  1.0000
  C   C18       1.0  0.060677511051359746  0.6401346004308621  0.40652501054744755  1.0000
  C   C19       1.0  0.21633645588764935  0.4263737952805188  0.6417296854321322  1.0000
  C   C20       1.0  0.28454557151375354  0.5735914388540593  0.35826442527893215  1.0000
  C   C21       1.0  0.394192508573596  0.3750519940920967  0.7028782137475034  1.0000
  C   C22       1.0  0.47222255546387276  0.6249348820237445  0.29711986755377495  1.0000
  C   C23       1.0  0.08283934174232875  0.1651558837571585  0.5538190616716461  1.0000
  C   C24       1.0  0.8018030484758114  0.8348242095619088  0.44620482157912983  1.0000
  C   C25       1.0  0.2908589089151833  0.2577955619778863  0.4086979884592594  1.0000
  C   C26       1.0  0.9574427637251118  0.7422078717437376  0.59132366322266  1.0000
  C   C27       1.0  0.35435400017512114  0.20298499400363576  0.3202406563003706  1.0000
  C   C28       1.0  0.8776382385389854  0.7970337393541345  0.6797605615931559  1.0000
  C   C29       1.0  0.09072159189807398  0.15802606024089272  0.31764633109866475  1.0000
  C   C30       1.0  0.5664408109973996  0.841973390693184  0.6823794727991482  1.0000
  C   C31       1.0  0.02152683446127674  0.10966834923858933  0.4130997467913957  1.0000
  C   C32       1.0  0.5444081341156701  0.8903361215132011  0.5869298686533782  1.0000
  C   C33       1.0  0.15645945741503917  0.3833695548621421  0.3920756346231968  1.0000
  C   C34       1.0  0.9319412069598412  0.6166286038513819  0.6079178739267873  1.0000
  N   N1        1.0  0.03426310722105831  0.09889510899574824  0.8996807065856416  1.0000
  N   N2        1.0  0.032844489564368445  0.901168460456333  0.10034048012266078  1.0000
  N   N3        1.0  0.10663772069241897  0.18844769906910136  0.4642458830843096  1.0000
  N   N4        1.0  0.7593988851506877  0.8115604708541113  0.5357836485948866  1.0000
  N   N5        1.0  0.34243117938640927  0.45342486675823324  0.375085560843317  1.0000
  N   N6        1.0  0.17101298967201503  0.5465378031471103  0.6248482824560212  1.0000
  Cl  Cl1       1.0  0.5778913214675331  0.8347940409335735  0.9236474927607929  1.0000
  Cl  Cl2       1.0  0.33650651336346027  0.16518606781176712  0.0763398731258533  1.0000
  O   O1        1.0  0.9827385245645888  0.081819630346601  0.5908918505469529  1.0000
  O   O2        1.0  0.6554531276477034  0.9181816421668575  0.40915820808279335  1.0000
  O   O3        1.0  0.9029962012922751  0.41588260061022464  0.3912365610889736  1.0000
  O   O4        1.0  0.7101383453277994  0.5841169272190997  0.6087668202695298  1.0000
