data_image0
_chemical_formula_structural       Ag2H16C12N6O6
_chemical_formula_sum              "Ag2 H16 C12 N6 O6"
_cell_length_a       6.811029254901786
_cell_length_b       7.914877991630887
_cell_length_c       8.170851928540763
_cell_angle_alpha    108.23697661566013
_cell_angle_beta     90.26618196266445
_cell_angle_gamma    97.62976994642055

_space_group_name_H-M_alt    "P 1"
_space_group_IT_number       1

loop_
  _space_group_symop_operation_xyz
  'x, y, z'

loop_
  _atom_site_type_symbol
  _atom_site_label
  _atom_site_symmetry_multiplicity
  _atom_site_fract_x
  _atom_site_fract_y
  _atom_site_fract_z
  _atom_site_occupancy
  Ag  Ag1       1.0  0.7023375076884973  0.0178183925584463  0.9171486490055397  1.0000
  Ag  Ag2       1.0  0.2976628436880234  0.9821794307874754  0.08285972159826828  1.0000
  H   H1        1.0  0.4775013483283034  0.7002339570557296  0.9450883191575341  1.0000
  H   H2        1.0  0.5225118338746881  0.29976116581982376  0.05491446505767779  1.0000
  H   H3        1.0  0.240678175007389  0.6104179661290414  0.8970171419969262  1.0000
  H   H4        1.0  0.7593195214987319  0.3895717322136604  0.1029789991271244  1.0000
  H   H5        1.0  0.12495880851611221  0.5062912123280441  0.6104556632781665  1.0000
  H   H6        1.0  0.8750228939216811  0.4937374099911836  0.38954946040653476  1.0000
  H   H7        1.0  0.19723197902568762  0.5002990349294264  0.3049129653410815  1.0000
  H   H8        1.0  0.802766278240057  0.4997229222407711  0.69509521718804  1.0000
  H   H9        1.0  0.49381900648626953  0.6955263148457078  0.257083550365067  1.0000
  H   H10       1.0  0.5061929799895283  0.3044794704964886  0.7429089298318841  1.0000
  H   H11       1.0  0.8866978038635126  0.8402432935355437  0.4888144536379854  1.0000
  H   H12       1.0  0.11330409595658612  0.15976383722470902  0.5111807862985528  1.0000
  H   H13       1.0  0.7525059112154011  0.9608888102322196  0.3884007890408228  1.0000
  H   H14       1.0  0.24748546479266764  0.039117001263498694  0.6116000864725988  1.0000
  H   H15       1.0  0.8022123309633288  0.04097229924509092  0.6166010313457376  1.0000
  H   H16       1.0  0.1977876705620147  0.9590321573157963  0.38339584495151496  1.0000
  C   C1        1.0  0.37452861684848676  0.7086835179622072  0.7177914814405496  1.0000
  C   C2        1.0  0.6254724160175087  0.29131827584291875  0.2822082840758924  1.0000
  C   C3        1.0  0.24730463204296171  0.594425061990492  0.5821034100106103  1.0000
  C   C4        1.0  0.7526869505078153  0.40559148220795294  0.41789820971865765  1.0000
  C   C5        1.0  0.2894491900645448  0.5901242239100383  0.41492053235045023  1.0000
  C   C6        1.0  0.7105515596802692  0.40989508002117253  0.5850917788744354  1.0000
  C   C7        1.0  0.4557169752217477  0.6989950875437431  0.3872087692326005  1.0000
  C   C8        1.0  0.5442857189644243  0.3010080670942444  0.6127938630784939  1.0000
  C   C9        1.0  0.5768363933819602  0.8103655859760508  0.5278941707697483  1.0000
  C   C10       1.0  0.42316820745514155  0.18963084629483257  0.472105256093478  1.0000
  C   C11       1.0  0.7636485978573829  0.9202951465761373  0.5043492313888578  1.0000
  C   C12       1.0  0.2363482370579817  0.07970798517461473  0.49565089520532263  1.0000
  N   N1        1.0  0.13465837839169845  0.28043094947506114  0.9108780573576494  1.0000
  N   N2        1.0  0.8653416555607337  0.7195453097965157  0.08911288558346803  1.0000
  N   N3        1.0  0.5333824883306095  0.8167849543976757  0.691412909641201  1.0000
  N   N4        1.0  0.46662922437779036  0.18321955552757874  0.3085902041845898  1.0000
  N   N5        1.0  0.3454811066135477  0.7135628873118308  0.8895527912211492  1.0000
  N   N6        1.0  0.6545303838374039  0.2864402940670843  0.11045237357063797  1.0000
  O   O1        1.0  0.08124766842562542  0.12140065192486561  0.9172209162043712  1.0000
  O   O2        1.0  0.9187499329138546  0.8785688108898314  0.08275574629099222  1.0000
  O   O3        1.0  0.02403937823441991  0.3496435223889661  0.8340805152426823  1.0000
  O   O4        1.0  0.9759633925302185  0.6503313894202165  0.16590882714412203  1.0000
  O   O5        1.0  0.2997107935550929  0.3674719247317597  0.9820584097609311  1.0000
  O   O6        1.0  0.7002748086197316  0.6325071697018174  0.017960175891346443  1.0000
