data_image0
_chemical_formula_structural       Zn2H13C36N6Cl7O8
_chemical_formula_sum              "Zn2 H13 C36 N6 Cl7 O8"
_cell_length_a       13.268625602719409
_cell_length_b       13.593185606008904
_cell_length_c       14.368871183729102
_cell_angle_alpha    82.81315154836213
_cell_angle_beta     64.57066872577832
_cell_angle_gamma    77.25629768781292

_space_group_name_H-M_alt    "P 1"
_space_group_IT_number       1

loop_
  _space_group_symop_operation_xyz
  'x, y, z'

loop_
  _atom_site_type_symbol
  _atom_site_label
  _atom_site_symmetry_multiplicity
  _atom_site_fract_x
  _atom_site_fract_y
  _atom_site_fract_z
  _atom_site_occupancy
  Zn  Zn1       1.0  0.6288287274642314  0.49443885604132015  0.46009199401193274  1.0000
  Zn  Zn2       1.0  0.3966344840198416  0.47800577454233917  0.5681393504307408  1.0000
  H   H1        1.0  0.810931800177222  0.45106389925210516  0.5213324424700616  1.0000
  H   H2        1.0  0.06434517894255258  0.306968325965208  0.6674131083546159  1.0000
  H   H3        1.0  0.693783412990058  0.2474948089913837  0.30100396187241063  1.0000
  H   H4        1.0  0.5744347281325445  0.9730117534385413  0.3178924545886234  1.0000
  H   H5        1.0  0.4535168494116275  0.1963507498695947  0.6603903613003866  1.0000
  H   H6        1.0  0.23921416839008447  0.7031096856186636  0.6421978028065568  1.0000
  H   H7        1.0  0.15247806720022078  0.7963793354995518  0.7345519195646517  1.0000
  H   H8        1.0  0.9213493871094868  0.6864721099652371  0.147680989840822  1.0000
  H   H9        1.0  0.04549012829291128  0.6980099633668999  0.1574019626598897  1.0000
  H   H10       1.0  0.6516357930034573  0.8679311212375537  0.39560873205413577  1.0000
  H   H11       1.0  0.615731934076301  0.7489632744865631  0.4149026117560696  1.0000
  H   H12       1.0  0.7055315980694343  0.1711545721747143  0.1510483027722317  1.0000
  H   H13       1.0  0.6634895378504663  0.0609787690302497  0.15807456257005018  1.0000
  C   C1        1.0  0.5784794659471328  0.29782285237324413  0.49140508256105164  1.0000
  C   C2        1.0  0.47396783158978895  0.458852296249219  0.25546008038643464  1.0000
  C   C3        1.0  0.2906594134200446  0.9210516070185191  0.6723505058328455  1.0000
  C   C4        1.0  0.41372269183401034  0.7902110207586617  0.5490607614752392  1.0000
  C   C5        1.0  0.6466268417790814  0.1888082444868431  0.3458581682164167  1.0000
  C   C6        1.0  0.6401965061010414  0.10841010699300571  0.29668579187082145  1.0000
  C   C7        1.0  0.5817425548683345  0.0332378107266109  0.3567650796658484  1.0000
  C   C8        1.0  0.5249429275901036  0.03723261016099141  0.4653362067750991  1.0000
  C   C9        1.0  0.5206896062699258  0.12522939241136297  0.5131957906761714  1.0000
  C   C10       1.0  0.4620784793626169  0.9603702922502462  0.5281018698788671  1.0000
  C   C11       1.0  0.3719653074322123  0.9844690603077949  0.62794492712505  1.0000
  C   C12       1.0  0.5162685797421815  0.48242918978289845  0.694905875522018  1.0000
  C   C13       1.0  0.3773038699812119  0.07073186789813239  0.6740987162667268  1.0000
  C   C14       1.0  0.45100498616111634  0.1349059257121752  0.6203406912558762  1.0000
  C   C15       1.0  0.48958462617972737  0.8582005276560876  0.4966396173947132  1.0000
  C   C16       1.0  0.3055972502592821  0.8277202682233163  0.6304906958663353  1.0000
  C   C17       1.0  0.5853128374335768  0.1990313187269734  0.45144434759939145  1.0000
  C   C18       1.0  0.9404223283137508  0.6132087530160604  0.27347144186772004  1.0000
  C   C19       1.0  0.13367679827492646  0.44504212362586776  0.6146536236210524  1.0000
  C   C20       1.0  0.06807193355594164  0.3755135776272669  0.6190547527812386  1.0000
  C   C21       1.0  0.009764957464469069  0.3964100442136315  0.5561964481064834  1.0000
  C   C22       1.0  0.019380174308132308  0.48418582173993485  0.4894631149202624  1.0000
  C   C23       1.0  0.44653813201657033  0.6821096950102542  0.5257966213292563  1.0000
  C   C24       1.0  0.10019346952703494  0.5402987594595317  0.48557681650707013  1.0000
  C   C25       1.0  0.9584486069804328  0.5188895476418479  0.4248524327380709  1.0000
  C   C26       1.0  0.0007693440591510168  0.5875649777357735  0.33864609705281623  1.0000
  C   C27       1.0  0.09565466835341838  0.630468063002269  0.32785563541033014  1.0000
  C   C28       1.0  0.13618911866284827  0.615033755316844  0.40361231592247293  1.0000
  C   C29       1.0  0.85264024399153  0.493050830358932  0.4506409543747552  1.0000
  C   C30       1.0  0.836515580968992  0.5791291323354814  0.3074329502067173  1.0000
  C   C31       1.0  0.474370568348263  0.4679934551435422  0.3543352275511254  1.0000
  C   C32       1.0  0.5221396990530563  0.47219257355219196  0.7938776880542308  1.0000
  C   C33       1.0  0.5164269492274298  0.46490402788420226  0.8819625362298069  1.0000
  C   C34       1.0  0.5068906648329584  0.4589202233370599  0.9791814294272289  1.0000
  C   C35       1.0  0.4950810638085129  0.455810665140568  0.06950419401429289  1.0000
  C   C36       1.0  0.4833725219583583  0.4560052030240271  0.16695106132017654  1.0000
  N   N1        1.0  0.7926061518460585  0.5245961775075472  0.39440733750607393  1.0000
  N   N2        1.0  0.150854488893863  0.5235118831443798  0.5514012954930293  1.0000
  N   N3        1.0  0.22102853306155607  0.7736050353069005  0.6690563800775281  1.0000
  N   N4        1.0  0.9738257156958666  0.6691037774092409  0.18414019707859097  1.0000
  N   N5        1.0  0.5909060587634014  0.8255909223946176  0.4157661994837981  1.0000
  N   N6        1.0  0.6933218907999572  0.10401541499938818  0.1897490683051757  1.0000
  Cl  Cl1       1.0  0.16197683442129576  0.7072451806294634  0.22350335825020556  1.0000
  Cl  Cl2       1.0  0.2046725501159798  0.42427800874386895  0.6959276400962652  1.0000
  Cl  Cl3       1.0  0.9357773094050897  0.30620392838678606  0.5581371555916023  1.0000
  Cl  Cl4       1.0  0.2358121805644087  0.6776956726916552  0.3994991465753516  1.0000
  Cl  Cl5       1.0  0.3017538135194187  0.09168019629268541  0.805569050991551  1.0000
  Cl  Cl6       1.0  0.1595712192889279  0.9583923374188855  0.7744151448167004  1.0000
  Cl  Cl7       1.0  0.7582724909417136  0.6131005479570885  0.23514752246273937  1.0000
  O   O1        1.0  0.6635997375297576  0.3421125570181546  0.4465788159780787  1.0000
  O   O2        1.0  0.4846909748033282  0.3356387973606232  0.5637687381928204  1.0000
  O   O3        1.0  0.6087382076575094  0.4803451756634373  0.6144982239223254  1.0000
  O   O4        1.0  0.4161854931775791  0.49303416292853086  0.6998481871670919  1.0000
  O   O5        1.0  0.5527099977802405  0.6428314672180877  0.4822968710975887  1.0000
  O   O6        1.0  0.36847288773365255  0.6290602080301751  0.5515887855125429  1.0000
  O   O7        1.0  0.561923761852597  0.4950366934605555  0.3502696669802888  1.0000
  O   O8        1.0  0.3885987510996216  0.4491886224713041  0.4350466187177419  1.0000
