data_image0
_chemical_formula_structural       Cd4H36C40N20O12
_chemical_formula_sum              "Cd4 H36 C40 N20 O12"
_cell_length_a       7.089931971360826
_cell_length_b       10.015853386167509
_cell_length_c       17.27406528801126
_cell_angle_alpha    89.99934388669881
_cell_angle_beta     104.81932423357108
_cell_angle_gamma    90.00025995282418

_space_group_name_H-M_alt    "P 1"
_space_group_IT_number       1

loop_
  _space_group_symop_operation_xyz
  'x, y, z'

loop_
  _atom_site_type_symbol
  _atom_site_label
  _atom_site_symmetry_multiplicity
  _atom_site_fract_x
  _atom_site_fract_y
  _atom_site_fract_z
  _atom_site_occupancy
  Cd  Cd1       1.0  0.0081030824015755  0.9761114745638512  0.1081122778033361  1.0000
  Cd  Cd2       1.0  0.9918893794170813  0.4761118844665334  0.39188881454817454  1.0000
  Cd  Cd3       1.0  0.9918980105262633  0.023890854639297705  0.8918883272916959  1.0000
  Cd  Cd4       1.0  0.008107439804561498  0.5238914431282923  0.6081136876691886  1.0000
  H   H1        1.0  0.19991853167568513  0.3819230390351294  0.08066544452840672  1.0000
  H   H2        1.0  0.8000663176681327  0.8819239603160014  0.41933378747344824  1.0000
  H   H3        1.0  0.8000911343041325  0.618077293378967  0.9193319478266845  1.0000
  H   H4        1.0  0.1999318833861849  0.11807637204532992  0.580667113203724  1.0000
  H   H5        1.0  0.3954356920344679  0.5584859099334099  0.03278956309122088  1.0000
  H   H6        1.0  0.6045454351769735  0.0584846076445373  0.46721202138213175  1.0000
  H   H7        1.0  0.604563942145788  0.4415224097718919  0.9672108990202872  1.0000
  H   H8        1.0  0.3954513327603805  0.941514726293029  0.5327893178384713  1.0000
  H   H9        1.0  0.3250313680917288  0.7988425182288027  0.05640923535999321  1.0000
  H   H10       1.0  0.6749636331092644  0.2988429034515576  0.4435950147712902  1.0000
  H   H11       1.0  0.6749682917242624  0.20116280621927266  0.9435918082657722  1.0000
  H   H12       1.0  0.3250360266990385  0.7011564304934907  0.5564060288735251  1.0000
  H   H13       1.0  0.6316153763200631  0.0102730192806391  0.1707202856272332  1.0000
  H   H14       1.0  0.36838297835871  0.5102743616594623  0.3292798319913928  1.0000
  H   H15       1.0  0.36837844846459694  0.9897243178265286  0.8292801861660453  1.0000
  H   H16       1.0  0.6316108207914937  0.4897269691220956  0.6707200582844666  1.0000
  H   H17       1.0  0.45495738767334604  0.8938910120653107  0.26103580654400826  1.0000
  H   H18       1.0  0.5450450743729505  0.3938910421137792  0.23896680943854423  1.0000
  H   H19       1.0  0.5450393033362885  0.10610133296919597  0.7389637881846269  1.0000
  H   H20       1.0  0.45495161665077427  0.6061122855096029  0.7610327852551748  1.0000
  H   H21       1.0  0.5574410478674565  0.6590510522635002  0.30367246999919933  1.0000
  H   H22       1.0  0.4425520588157211  0.15905060435844123  0.19633078165567505  1.0000
  H   H23       1.0  0.44256283436147476  0.3409422912154412  0.6963255135296933  1.0000
  H   H24       1.0  0.557450492867389  0.8409517248456027  0.803669966403824  1.0000
  H   H25       1.0  0.8963199612284497  0.2641523629888384  0.1292629523335265  1.0000
  H   H26       1.0  0.10367326140586638  0.7641480574605026  0.3707361419166233  1.0000
  H   H27       1.0  0.10367665287396481  0.7358489678173329  0.8707348978523444  1.0000
  H   H28       1.0  0.8963263214811263  0.23584927966733463  0.6292631572203433  1.0000
  H   H29       1.0  0.7067816465171219  0.1847563672351882  0.08547194361631938  1.0000
  H   H30       1.0  0.29321124411053034  0.6847517927373516  0.4145247480274819  1.0000
  H   H31       1.0  0.2932120244377288  0.8152469604092758  0.9145250391295436  1.0000
  H   H32       1.0  0.7067897975368638  0.3152495380600584  0.5854746940612616  1.0000
  H   H33       1.0  0.8759059892144022  0.4636722908579145  0.20328153759699322  1.0000
  H   H34       1.0  0.12407781634934173  0.963680496415137  0.2967216835731676  1.0000
  H   H35       1.0  0.12409942869111029  0.5363230494391189  0.7967183334042076  1.0000
  H   H36       1.0  0.8759189772340008  0.0363238296025727  0.7032802371362906  1.0000
  C   C1        1.0  0.1758763488889201  0.48759937822259064  0.0897595784795513  1.0000
  C   C2        1.0  0.8241059567701327  0.9875985583121076  0.41024102157233955  1.0000
  C   C3        1.0  0.8241260745962721  0.512402951010003  0.9102382620563036  1.0000
  C   C4        1.0  0.17588927549576278  0.012402772476050901  0.5897584301632577  1.0000
  C   C5        1.0  0.2837590880909531  0.5844882095039525  0.0632483893325073  1.0000
  C   C6        1.0  0.716226533418073  0.0844908569069531  0.4367546216703175  1.0000
  C   C7        1.0  0.7162405460829008  0.41551511811548647  0.9367520727948744  1.0000
  C   C8        1.0  0.28377317767452587  0.9155124706953544  0.5632475849712578  1.0000
  C   C9        1.0  0.245381658929297  0.7180692510246587  0.0760413274075731  1.0000
  C   C10       1.0  0.7546130323729089  0.21807227245058408  0.4239611103715576  1.0000
  C   C11       1.0  0.7546163626505022  0.28193307821099733  0.923955502730138  1.0000
  C   C12       1.0  0.24538962186725405  0.7819290583134377  0.5760419637100328  1.0000
  C   C13       1.0  0.0009063600569519017  0.6624134591956974  0.14057382024504514  1.0000
  C   C14       1.0  0.9990883165730368  0.1624145338836556  0.3594318790052498  1.0000
  C   C15       1.0  0.9990932484734714  0.3375868731779406  0.8594260603871291  1.0000
  C   C16       1.0  0.000911420156583593  0.8375867968786037  0.6405709091474066  1.0000
  C   C17       1.0  0.0323380313132304  0.5240589628627391  0.12893095545218367  1.0000
  C   C18       1.0  0.9676548314095826  0.024061705009998505  0.37107548068957646  1.0000
  C   C19       1.0  0.9676645460081803  0.47594236791841377  0.8710703741152204  1.0000
  C   C20       1.0  0.0323462615169774  0.975939625775986  0.6289251244086246  1.0000
  C   C21       1.0  0.6612781541110523  0.9064571347025847  0.18849813058334064  1.0000
  C   C22       1.0  0.33871405198910765  0.4064590733440028  0.3115016602137857  1.0000
  C   C23       1.0  0.3387170525062828  0.09353720717108874  0.8115007396697466  1.0000
  C   C24       1.0  0.6612870922153392  0.5935412590133852  0.6885001078970563  1.0000
  C   C25       1.0  0.567560583601164  0.8424838974977787  0.2398327377623488  1.0000
  C   C26       1.0  0.43243432451365044  0.3424871469642525  0.26016658278596344  1.0000
  C   C27       1.0  0.43243613304420603  0.15750545227950852  0.7601674384805437  1.0000
  C   C28       1.0  0.5675653096601962  0.657516180655186  0.7398338793414256  1.0000
  C   C29       1.0  0.6223031811352585  0.7127174866833742  0.2621313816233979  1.0000
  C   C30       1.0  0.3776870432425524  0.21271900790153359  0.2378689167872921  1.0000
  C   C31       1.0  0.3776978092214307  0.2872748583709211  0.7378668974844589  1.0000
  C   C32       1.0  0.6223140496891305  0.7872863165531357  0.7621316882982114  1.0000
  C   C33       1.0  0.7660615785669125  0.6469263005864363  0.23328888486804544  1.0000
  C   C34       1.0  0.23392410066513486  0.1469317903136869  0.2667114030336749  1.0000
  C   C35       1.0  0.23394092183063006  0.3530710365431703  0.7667107001978695  1.0000
  C   C36       1.0  0.766072718555222  0.8530705388639676  0.7332910991868645  1.0000
  C   C37       1.0  0.8496529581406521  0.7170787640871411  0.1780738339742456  1.0000
  C   C38       1.0  0.150340323143034  0.21708189970902236  0.32192963014848897  1.0000
  C   C39       1.0  0.15034514035405516  0.28292056987986314  0.8219247406871802  1.0000
  C   C40       1.0  0.8496608979827232  0.7829204294655768  0.6780738824701942  1.0000
  N   N1        1.0  0.10883026786708432  0.7537900419355239  0.1127894278116841  1.0000
  N   N2        1.0  0.8911661533598833  0.2537912253195742  0.3872169963055826  1.0000
  N   N3        1.0  0.8911722068947158  0.24621029045130882  0.8872095757399807  1.0000
  N   N4        1.0  0.1088350934003302  0.7462071101806347  0.6127870978305197  1.0000
  N   N5        1.0  0.7959500559756094  0.8453055805023767  0.1594917366102635  1.0000
  N   N6        1.0  0.20404644633264724  0.3453065209467354  0.3405106164890981  1.0000
  N   N7        1.0  0.20405096002451026  0.15468975979771224  0.8405071239928008  1.0000
  N   N8        1.0  0.7959576410206353  0.654692812989545  0.6594920190585827  1.0000
  N   N9        1.0  0.2078742212406937  0.0480019403992671  0.0291036330079564  1.0000
  N   N10       1.0  0.7921228228109881  0.5480028150425865  0.47089726472120935  1.0000
  N   N11       1.0  0.7921225467017833  0.9520013872069844  0.9708977061999493  1.0000
  N   N12       1.0  0.20788548696548756  0.45199252526192885  0.5291023107042037  1.0000
  N   N13       1.0  0.3308285931705797  0.1327187438201705  0.037764006547305905  1.0000
  N   N14       1.0  0.6691672095821486  0.6327114149946882  0.4622362094895252  1.0000
  N   N15       1.0  0.6691738559606079  0.867288577492566  0.9622344154774042  1.0000
  N   N16       1.0  0.33082958399094053  0.36728492368565213  0.5377657112453278  1.0000
  N   N17       1.0  0.4503931433203475  0.2156234371713808  0.0441560195092165  1.0000
  N   N18       1.0  0.5495912022101946  0.7156198516865048  0.4558425255700698  1.0000
  N   N19       1.0  0.5496034195067451  0.7843808888977293  0.9558406676576754  1.0000
  N   N20       1.0  0.4504099932631576  0.2843724933220955  0.5441604055756246  1.0000
  O   O1        1.0  0.8434815244628808  0.1721232965044805  0.117183272100938  1.0000
  O   O2        1.0  0.15651123117906002  0.6721199169849754  0.38281117385977137  1.0000
  O   O3        1.0  0.1565149870812022  0.8278780343245419  0.8828122520660173  1.0000
  O   O4        1.0  0.8434883260709186  0.32787941698291695  0.6171875437661215  1.0000
  O   O5        1.0  0.8211057323235736  0.5243614304175567  0.2599230218031395  1.0000
  O   O6        1.0  0.1788664778483238  0.024366275134021002  0.24007617736325673  1.0000
  O   O7        1.0  0.1789010674248672  0.475638901983352  0.7400752476324683  1.0000
  O   O8        1.0  0.821134538159484  0.9756350556690947  0.7599226832207578  1.0000
  O   O9        1.0  0.9272724242563158  0.42718672808057084  0.15137772898912522  1.0000
  O   O10       1.0  0.07271865834051282  0.9271917481693778  0.3486281835565351  1.0000
  O   O11       1.0  0.07273294237131721  0.5728096106450593  0.8486209789994421  1.0000
  O   O12       1.0  0.9272765739253757  0.07280958261878111  0.6513712681790553  1.0000
