data_image0
_chemical_formula_structural       Cd4H32C40S8N8
_chemical_formula_sum              "Cd4 H32 C40 S8 N8"
_cell_length_a       7.245765552782695
_cell_length_b       9.393783141369076
_cell_length_c       18.098479490755743
_cell_angle_alpha    79.20622626959782
_cell_angle_beta     78.46649795863621
_cell_angle_gamma    67.33608662253546

_space_group_name_H-M_alt    "P 1"
_space_group_IT_number       1

loop_
  _space_group_symop_operation_xyz
  'x, y, z'

loop_
  _atom_site_type_symbol
  _atom_site_label
  _atom_site_symmetry_multiplicity
  _atom_site_fract_x
  _atom_site_fract_y
  _atom_site_fract_z
  _atom_site_occupancy
  Cd  Cd1       1.0  0.7498928897299064  0.49243649376856524  0.5305411875660084  1.0000
  Cd  Cd2       1.0  0.7730001799595243  0.007458783563400601  0.969408383125142  1.0000
  Cd  Cd3       1.0  0.25010739965796347  0.5075664312100587  0.4694574017138606  1.0000
  Cd  Cd4       1.0  0.2270004500664058  0.9925383204337095  0.03059153175085782  1.0000
  H   H1        1.0  0.15037859345519414  0.36002576987878143  0.7010886642475995  1.0000
  H   H2        1.0  0.21116905689388688  0.13980652670969823  0.7989834770189361  1.0000
  H   H3        1.0  0.8496279259075125  0.6399690288026109  0.29890939973420666  1.0000
  H   H4        1.0  0.7888277309898158  0.8601952106518526  0.2010178292871814  1.0000
  H   H5        1.0  0.09185464716808386  0.5096135099028628  0.8098854402284845  1.0000
  H   H6        1.0  0.4105554996062961  0.9902725213743437  0.6901907512223389  1.0000
  H   H7        1.0  0.9081500195334798  0.4903789493738842  0.19011430200698948  1.0000
  H   H8        1.0  0.5894420365516878  0.009730377390162904  0.30981060171777136  1.0000
  H   H9        1.0  0.3065359228204229  0.6684434153190753  0.8064519274292437  1.0000
  H   H10       1.0  0.7805923277969735  0.8316042477158875  0.6934985631639634  1.0000
  H   H11       1.0  0.6934669035996067  0.33155137461722023  0.1935470153656738  1.0000
  H   H12       1.0  0.2194024190819802  0.1683974966290336  0.306501963759125  1.0000
  H   H13       1.0  0.5743176685494119  0.6658288162581414  0.692412069444643  1.0000
  H   H14       1.0  0.9320611465175116  0.8342278022424596  0.8075034679722037  1.0000
  H   H15       1.0  0.4256816718409624  0.33417062364134154  0.3075864932587535  1.0000
  H   H16       1.0  0.0679346985584957  0.1657727850720576  0.19249657291034342  1.0000
  H   H17       1.0  0.342046259070173  0.004979765986767901  0.4526325705603825  1.0000
  H   H18       1.0  0.7993431950550516  0.4950607796287444  0.04762345758763326  1.0000
  H   H19       1.0  0.6579558675043268  0.9950196608162545  0.5473674375835885  1.0000
  H   H20       1.0  0.2006555915944403  0.5049374875118673  0.9523762772713624  1.0000
  H   H21       1.0  0.3440541631070174  0.8169104039802308  0.5694540842886724  1.0000
  H   H22       1.0  0.7299139829948659  0.683144942126397  0.9308372976861747  1.0000
  H   H23       1.0  0.6559468621755329  0.1830890123371489  0.4305470293193991  1.0000
  H   H24       1.0  0.27008370545757987  0.3168544820446187  0.06916292321336209  1.0000
  H   H25       1.0  0.09950424340521383  0.9056456324630988  0.6860474661571203  1.0000
  H   H26       1.0  0.6909424116529616  0.5943691545937213  0.8141765033301597  1.0000
  H   H27       1.0  0.9004971833237576  0.09435843120664343  0.31395360733591093  1.0000
  H   H28       1.0  0.30904974048036116  0.4056314239756988  0.18582441636549163  1.0000
  H   H29       1.0  0.855130162640769  0.18326194456862052  0.6788053464587521  1.0000
  H   H30       1.0  0.717079116876768  0.3166755815030413  0.8213680921031852  1.0000
  H   H31       1.0  0.1448679272580902  0.8167421269547648  0.32119483432575896  1.0000
  H   H32       1.0  0.2829187661090843  0.683323831312066  0.17863334758594365  1.0000
  C   C1        1.0  0.3993942748290777  0.42717503493658887  0.6422640626611766  1.0000
  C   C2        1.0  0.46860632792561324  0.0727475918077616  0.857755539628144  1.0000
  C   C3        1.0  0.6006095067782622  0.5728255751109472  0.3577336678631013  1.0000
  C   C4        1.0  0.531390459958082  0.9272541455537892  0.1422457666779735  1.0000
  C   C5        1.0  0.24242714611933977  0.42741494022823184  0.7024445523774574  1.0000
  C   C6        1.0  0.37190330822815526  0.0724728528025196  0.7976077161828529  1.0000
  C   C7        1.0  0.7575756803006896  0.5725798497080704  0.29755439041745996  1.0000
  C   C8        1.0  0.628093479655547  0.9275288845590384  0.20239359012326472  1.0000
  C   C9        1.0  0.2096167527316976  0.5122307800893183  0.7621029554872294  1.0000
  C   C10       1.0  0.4833043856596287  0.9876680627316219  0.7379478139032046  1.0000
  C   C11       1.0  0.7903868250575243  0.4877663387659867  0.23789541451812113  1.0000
  C   C12       1.0  0.5166931566881631  0.012337171064991999  0.26205230018980075  1.0000
  C   C13       1.0  0.32868008580184943  0.6003276046001462  0.7605401829975378  1.0000
  C   C14       1.0  0.6888892455917244  0.8996305604279514  0.739452614769526  1.0000
  C   C15       1.0  0.6713219892489947  0.3996648564171467  0.23945933258693938  1.0000
  C   C16       1.0  0.31111049005526326  0.1003711917918011  0.2605471466659424  1.0000
  C   C17       1.0  0.47743026125387883  0.5982415212733586  0.6985109156389556  1.0000
  C   C18       1.0  0.7736761664954056  0.9017310970941068  0.8014523835386457  1.0000
  C   C19       1.0  0.5225753544451875  0.4017544230825294  0.3014888531729767  1.0000
  C   C20       1.0  0.22632062448319348  0.0982718077835045  0.19854830334392662  1.0000
  C   C21       1.0  0.1018535917465257  0.19550693317616213  0.5048666744782296  1.0000
  C   C22       1.0  0.802085192453944  0.30442718724088286  0.9953519921974633  1.0000
  C   C23       1.0  0.8981487355511889  0.8044948173030447  0.4951333136082212  1.0000
  C   C24       1.0  0.19791139470654429  0.6955722264444902  0.004649334166174405  1.0000
  C   C25       1.0  0.23952509951504888  0.0416722443080744  0.504102906004917  1.0000
  C   C26       1.0  0.7849413916300702  0.45831848761564936  0.9961582664823326  1.0000
  C   C27       1.0  0.7604746268472344  0.9583260053635244  0.4958987137012159  1.0000
  C   C28       1.0  0.21505924149076347  0.5416797838975073  0.003841028970107598  1.0000
  C   C29       1.0  0.23985019151841372  0.9370924709718127  0.5694552267960589  1.0000
  C   C30       1.0  0.7460341980183144  0.5629353323539805  0.93079802931301  1.0000
  C   C31       1.0  0.7601499393852008  0.06291159356820938  0.4305457333714812  1.0000
  C   C32       1.0  0.2539647862594875  0.4370640909467625  0.0692023049120252  1.0000
  C   C33       1.0  0.10398932408040173  0.9859857215954339  0.6345551762311672  1.0000
  C   C34       1.0  0.724329307971999  0.514003347702399  0.8656530471879124  1.0000
  C   C35       1.0  0.896012653294548  0.014018347317133403  0.36544534452981736  1.0000
  C   C36       1.0  0.27567316852526597  0.4859937606672561  0.1343464282815319  1.0000
  C   C37       1.0  0.9701760906628676  0.13924601377603812  0.631002409327955  1.0000
  C   C38       1.0  0.7403829375299225  0.3606883581275753  0.8691729988328804  1.0000
  C   C39       1.0  0.02982588671208202  0.8607580551365361  0.36899811143302946  1.0000
  C   C40       1.0  0.2596204817750446  0.6393099002891277  0.1308277420601414  1.0000
  S   S1        1.0  0.08051950278424164  0.3359576980838952  0.4254377600806194  1.0000
  S   S2        1.0  0.8421254370344187  0.1638996928339438  0.07473153611233123  1.0000
  S   S3        1.0  0.9194813279649026  0.6640417295893999  0.5745621347378602  1.0000
  S   S4        1.0  0.15787205069481292  0.8360974076608869  0.9252687048447258  1.0000
  S   S5        1.0  0.46269670048131667  0.31478208323515844  0.5681516117784541  1.0000
  S   S6        1.0  0.34561416701789893  0.18515053181939586  0.9318602728128695  1.0000
  S   S7        1.0  0.5373068834977132  0.6852173706522394  0.43184551937978455  1.0000
  S   S8        1.0  0.6543831684168709  0.8148500432689332  0.0681411001847607  1.0000
  N   N1        1.0  0.5130801569988251  0.5133612466024076  0.641566322834187  1.0000
  N   N2        1.0  0.6677230947173454  0.986603353387182  0.8584107346253873  1.0000
  N   N3        1.0  0.48692177504226913  0.48663819155652993  0.358432466520199  1.0000
  N   N4        1.0  0.33227479445830715  0.013398394460018904  0.1415894662166295  1.0000
  N   N5        1.0  0.969881424580521  0.2409086825624414  0.5680973116245909  1.0000
  N   N6        1.0  0.7788278435109389  0.25901848744236844  0.9320743670930584  1.0000
  N   N7        1.0  0.030120355166118683  0.7590942301899875  0.4319026097703542  1.0000
  N   N8        1.0  0.2211716883179377  0.7409797735851458  0.06792603382348261  1.0000
