data_image0
_chemical_formula_structural       Al6H33C83N5O28
_chemical_formula_sum              "Al6 H33 C83 N5 O28"
_cell_length_a       12.441740605378364
_cell_length_b       12.676202630158398
_cell_length_c       27.981418194440153
_cell_angle_alpha    90.4826277732531
_cell_angle_beta     89.61685474782239
_cell_angle_gamma    120.27632773794899

_space_group_name_H-M_alt    "P 1"
_space_group_IT_number       1

loop_
  _space_group_symop_operation_xyz
  'x, y, z'

loop_
  _atom_site_type_symbol
  _atom_site_label
  _atom_site_symmetry_multiplicity
  _atom_site_fract_x
  _atom_site_fract_y
  _atom_site_fract_z
  _atom_site_occupancy
  Al  Al1       1.0  0.8097417967964231  0.4029164022868912  0.5044782229331588  1.0000
  Al  Al2       1.0  0.06638806967178826  0.658083094801242  0.5015500674255904  1.0000
  Al  Al3       1.0  0.07971888694355306  0.42784100537306113  0.5024775222101567  1.0000
  Al  Al4       1.0  0.8433007095155601  0.903769770787065  0.0138831801759878  1.0000
  Al  Al5       1.0  0.5903287013972187  0.9161148400499072  0.01804192344213359  1.0000
  Al  Al6       1.0  0.5687250640307795  0.6687010828898324  0.0167637480870013  1.0000
  H   H1        1.0  0.5059923749414139  0.7965321743667529  0.7030945600486687  1.0000
  H   H2        1.0  0.7338609249785505  0.4344808580146093  0.3691817293483836  1.0000
  H   H3        1.0  0.9590598291349366  0.8063729380740342  0.13012325265704308  1.0000
  H   H4        1.0  0.5695573022600017  0.5517758288896532  0.1507274152280687  1.0000
  H   H5        1.0  0.9888125548322363  0.8192219911113054  0.3837164375658446  1.0000
  H   H6        1.0  0.11651486216430844  0.5401639488244214  0.7274391593172851  1.0000
  H   H7        1.0  0.7350594770275408  0.2551141240347121  0.8095072575194207  1.0000
  H   H8        1.0  0.9986641898933754  0.6609043742386476  0.7261741207801292  1.0000
  H   H9        1.0  0.6551973026169763  0.6563970528948958  0.7001580337781731  1.0000
  H   H10       1.0  0.19583481973719322  0.771920904786988  0.37418522535627824  1.0000
  H   H11       1.0  0.24151702492389412  0.7951771608218012  0.2874734490345928  1.0000
  H   H12       1.0  0.9604346735864197  0.6541400035026256  0.8138946741932854  1.0000
  H   H13       1.0  0.4556938076723823  0.9024673371055131  0.1452600855830468  1.0000
  H   H14       1.0  0.5421439795773823  0.8171669158575979  0.7906818281014694  1.0000
  H   H15       1.0  0.3182459379933533  0.5105942546238964  0.3827957701366316  1.0000
  H   H16       1.0  0.0749078193541024  0.28396334386165023  0.3745184139475839  1.0000
  H   H17       1.0  0.04642000862752837  0.23101141549656745  0.2882447423484464  1.0000
  H   H18       1.0  0.6911785152004768  0.18498473123926124  0.38653570469358556  1.0000
  H   H19       1.0  0.15275870604064318  0.560507976265086  0.8150874260178965  1.0000
  H   H20       1.0  0.9981382591968709  0.7952825520993868  0.21613922681920877  1.0000
  H   H21       1.0  0.702883055971128  0.4625245250016691  0.2833465052559205  1.0000
  H   H22       1.0  0.60603692796915  0.5431750555637507  0.2377276120362097  1.0000
  H   H23       1.0  0.616915197506863  0.6500064554489172  0.7878154018424793  1.0000
  H   H24       1.0  0.9457971762031148  0.07837978381940762  0.7132877892742754  1.0000
  H   H25       1.0  0.9142256833997066  0.0394447643257152  0.800854452549288  1.0000
  H   H26       1.0  0.2752452475354302  0.4946656799474596  0.22098457590087145  1.0000
  H   H27       1.0  0.3273114944561613  0.5187117777411957  0.13436240244333666  1.0000
  H   H28       1.0  0.37321380309503377  0.5393361496650185  0.2963835051582109  1.0000
  H   H29       1.0  0.6833133407860286  0.18397582498485582  0.227014348959969  1.0000
  H   H30       1.0  0.9813172765820538  0.1035809863523625  0.23157068929697996  1.0000
  H   H31       1.0  0.6586150202178371  0.1265802491084145  0.3006168686682642  1.0000
  H   H32       1.0  0.6073521978081331  0.25105956715594147  0.4839305284193286  1.0000
  H   H33       1.0  0.048146126415993265  0.9966649584429846  0.04198348757763879  1.0000
  C   C1        1.0  0.8895139393712127  0.6230413239022566  0.5679696596209993  1.0000
  C   C2        1.0  0.8996490986551464  0.11647525464019279  0.7345372177909296  1.0000
  C   C3        1.0  0.8821308941360329  0.09487306807095308  0.7832548206579304  1.0000
  C   C4        1.0  0.2168662353057513  0.6179530573106505  0.5686864793043894  1.0000
  C   C5        1.0  0.7813402349694768  0.21670999361246857  0.7885524381232756  1.0000
  C   C6        1.0  0.7988325123358988  0.23856166055271188  0.7394823538274975  1.0000
  C   C7        1.0  0.858946485594444  0.1885503880474673  0.7115962849779648  1.0000
  C   C8        1.0  0.8228628287893898  0.14485900332675783  0.8109184450407055  1.0000
  C   C9        1.0  0.8045080151444138  0.121076526508844  0.8604246559614309  1.0000
  C   C10       1.0  0.8774000169604577  0.21352030002249478  0.6622419021160653  1.0000
  C   C11       1.0  0.7893274629322348  0.0970520535405228  0.9028393986553167  1.0000
  C   C12       1.0  0.22966047064137018  0.6122108132888611  0.7904370464025376  1.0000
  C   C13       1.0  0.865117425062003  0.6502600429406015  0.615268153994819  1.0000
  C   C14       1.0  0.9157408092677598  0.6592374462075271  0.7399803721387384  1.0000
  C   C15       1.0  0.8941615987775435  0.6547004756160889  0.7887717468263773  1.0000
  C   C16       1.0  0.9074322098009729  0.2907991229840974  0.5728280542432884  1.0000
  C   C17       1.0  0.700440916761579  0.6527424836902682  0.7740948464631713  1.0000
  C   C18       1.0  0.7220460311045683  0.6571004193395992  0.7252936143374312  1.0000
  C   C19       1.0  0.8297515433913671  0.6599852352704615  0.7075608381956328  1.0000
  C   C20       1.0  0.7860537221864803  0.6513100841789735  0.8065541758382792  1.0000
  C   C21       1.0  0.7657610483085763  0.6514194988753416  0.8562952685051357  1.0000
  C   C22       1.0  0.8492740193824416  0.6575391158945934  0.6578972058159209  1.0000
  C   C23       1.0  0.2094902483795592  0.6010153673864663  0.7414458364457842  1.0000
  C   C24       1.0  0.750598160176203  0.6570793899325409  0.8991117298705901  1.0000
  C   C25       1.0  0.255821652062501  0.6412189811002733  0.3839485842570198  1.0000
  C   C26       1.0  0.2353759323231088  0.7219624532502422  0.35680026264980563  1.0000
  C   C27       1.0  0.26186525083939927  0.7350346002460028  0.3081959951043345  1.0000
  C   C28       1.0  0.887218882857695  0.601757704679727  0.43138676628375083  1.0000
  C   C29       1.0  0.31236070144139205  0.670154702358829  0.2855221602992017  1.0000
  C   C30       1.0  0.3327683498801192  0.5894165721897834  0.3131176830777562  1.0000
  C   C31       1.0  0.30380746138801124  0.5741283874113634  0.36162144900663407  1.0000
  C   C32       1.0  0.31718796908292995  0.5848250497420294  0.2047775106199481  1.0000
  C   C33       1.0  0.3440440258087136  0.5973116460744237  0.15608210051740903  1.0000
  C   C34       1.0  0.3087769400655915  0.6674582254357232  0.7092497344914932  1.0000
  C   C35       1.0  0.41657131138462217  0.8133216521915257  0.16204147280514283  1.0000
  C   C36       1.0  0.39384463587583685  0.8013564883812306  0.21140773378113656  1.0000
  C   C37       1.0  0.34136358675661427  0.6854271202750651  0.2338450044866889  1.0000
  C   C38       1.0  0.3930464672195199  0.7118208472986963  0.1343092465427986  1.0000
  C   C39       1.0  0.8848438554900823  0.23772448984782807  0.3855822256140655  1.0000
  C   C40       1.0  0.21469078112161816  0.6200225412267671  0.4347063073196153  1.0000
  C   C41       1.0  0.9843814037980039  0.24932347352575582  0.35780938120363703  1.0000
  C   C42       1.0  0.9677744958608088  0.21989142845950477  0.3094985669113299  1.0000
  C   C43       1.0  0.8512066888578715  0.1774421339163794  0.287865238738938  1.0000
  C   C44       1.0  0.750931250495654  0.1636334513282733  0.3162159006051724  1.0000
  C   C45       1.0  0.34977240719214114  0.6902772016451876  0.8089265403092796  1.0000
  C   C46       1.0  0.7679252997275937  0.19416008156112238  0.3644800596997158  1.0000
  C   C47       1.0  0.7433788735229286  0.15542126352924163  0.20991921990927404  1.0000
  C   C48       1.0  0.7249005050318759  0.12388623048997258  0.1612740755807138  1.0000
  C   C49       1.0  0.8961133266504928  0.0850131290828315  0.16329899572063764  1.0000
  C   C50       1.0  0.9113575588321152  0.1135619657467757  0.2121674579282669  1.0000
  C   C51       1.0  0.8349061951249576  0.14840360983735928  0.2363077328070915  1.0000
  C   C52       1.0  0.9060018792103076  0.28136388690160885  0.43591568728244556  1.0000
  C   C53       1.0  0.8000865867018233  0.08632815648395821  0.1370386062938209  1.0000
  C   C54       1.0  0.8637590039552376  0.6247516741675483  0.38143118842726403  1.0000
  C   C55       1.0  0.7811389043296513  0.5248972558012283  0.3531485153773062  1.0000
  C   C56       1.0  0.37156603790070614  0.7016207141355792  0.8588873904733703  1.0000
  C   C57       1.0  0.763400616898231  0.5414022657452193  0.30551309853698416  1.0000
  C   C58       1.0  0.8249995228022654  0.6574151687853131  0.2843147685155429  1.0000
  C   C59       1.0  0.9057917065886371  0.7583865176820341  0.3136828904248573  1.0000
  C   C60       1.0  0.9257663093073702  0.741289093545241  0.36166780157367373  1.0000
  C   C61       1.0  0.9036974537322563  0.7422903889186402  0.20233733607116727  1.0000
  C   C62       1.0  0.8828494925301128  0.7476140571392166  0.15391859457928797  1.0000
  C   C63       1.0  0.6628725498560752  0.6040590911339833  0.1655832234371459  1.0000
  C   C64       1.0  0.26508341971286586  0.644948375816476  0.6165641723239048  1.0000
  C   C65       1.0  0.6839155877765674  0.5993302290436658  0.21401476636994224  1.0000
  C   C66       1.0  0.8045212980844666  0.6684382666859322  0.23317005015483963  1.0000
  C   C67       1.0  0.286756282485747  0.6560394724281051  0.6593169551793139  1.0000
  C   C68       1.0  0.7623153013812498  0.6789423147221001  0.13530275705516456  1.0000
  C   C69       1.0  0.7665296498608429  0.04710211888566819  0.9502208678839776  1.0000
  C   C70       1.0  0.439023099088267  0.7306918449632461  0.9497790476878334  1.0000
  C   C71       1.0  0.7379996852607533  0.6916029726978365  0.9469592099758372  1.0000
  C   C72       1.0  0.7737595376068  0.0384962230192158  0.08707461283169239  1.0000
  C   C73       1.0  0.43485129725994637  0.7311401117387177  0.08351109396824088  1.0000
  C   C74       1.0  0.7396147457175742  0.6956050061766276  0.0845661413306829  1.0000
  C   C75       1.0  0.4289480619570512  0.7451176352599447  0.7277255315439035  1.0000
  C   C76       1.0  0.4490589685469502  0.7565372460991142  0.7767260087926358  1.0000
  C   C77       1.0  0.4330906223579659  0.9109693366038059  0.2383070092849167  1.0000
  C   C78       1.0  0.3924647874182697  0.7116356108382861  0.9016975319425736  1.0000
  C   C79       1.0  0.6259081014297436  0.13151227064636117  0.1389549593891601  1.0000
  C   C80       1.0  0.9834264757356976  0.055487680330521996  0.1427547197340644  1.0000
  C   C81       1.0  0.9663182600978217  0.880800103164198  0.2964293934740993  1.0000
  C   C82       1.0  0.7558441472688884  0.31155088344435455  0.7175114341398156  1.0000
  C   C83       1.0  0.8910551181228782  0.24045052302631834  0.6200711670168034  1.0000
  N   N1        1.0  0.46964118827929  0.0031057510927112978  0.25906733517285824  1.0000
  N   N2        1.0  0.5420044841288103  0.14080872547658171  0.1259730756053585  1.0000
  N   N3        1.0  0.0634176428228344  0.0372954893895638  0.1317281505272661  1.0000
  N   N4        1.0  0.01709764355403804  0.9827152676685669  0.2842803464232659  1.0000
  N   N5        1.0  0.7196805833042532  0.37172071543105983  0.7005714857624168  1.0000
  O   O1        1.0  0.8281489942480891  0.3187730129688404  0.5599550456828695  1.0000
  O   O2        1.0  0.4541260575136405  0.6465942412393559  0.9676977446624306  1.0000
  O   O3        1.0  0.6404701895350585  0.616574049808655  0.9710626573344712  1.0000
  O   O4        1.0  0.8115377209731347  0.5219371280390915  0.5495903990194435  1.0000
  O   O5        1.0  0.825821440560247  0.7842390762420165  0.062176210612051384  1.0000
  O   O6        1.0  0.8450539254083294  0.005505469004347701  0.0689766463921657  1.0000
  O   O7        1.0  0.6764515059383526  0.028882492750881297  0.0670238756636081  1.0000
  O   O8        1.0  0.4678740874078215  0.8355881457445591  0.0654491550818435  1.0000
  O   O9        1.0  0.4432059517703307  0.6459893228931434  0.062314701652581996  1.0000
  O   O10       1.0  0.6303390253370935  0.6217063424768058  0.0674031167078866  1.0000
  O   O11       1.0  0.6648318556933149  0.8291613492545056  0.0167024081902554  1.0000
  O   O12       1.0  0.18687074120403216  0.6955200653177088  0.45385823866148906  1.0000
  O   O13       1.0  0.9937650341423351  0.7035488598618046  0.5487857958431306  1.0000
  O   O14       1.0  0.19121086854710964  0.6928307277628177  0.5488955591185416  1.0000
  O   O15       1.0  0.19719766541233236  0.5165370334605156  0.5506231483117503  1.0000
  O   O16       1.0  0.003371177760378389  0.30682152885778885  0.5488211094493565  1.0000
  O   O17       1.0  0.8209644107328559  0.2892573082119441  0.45768871660268917  1.0000
  O   O18       1.0  0.8157014462112427  0.49659641589256154  0.4477195978744319  1.0000
  O   O19       1.0  0.9811622009805631  0.6890312002812422  0.4534997034741791  1.0000
  O   O20       1.0  0.2023330697770119  0.5250826404784021  0.45543802064109673  1.0000
  O   O21       1.0  0.014400544739700627  0.3143966607065849  0.4535679324609489  1.0000
  O   O22       1.0  0.9877424945061577  0.4973148083618213  0.5027505704016306  1.0000
  O   O23       1.0  0.8221444315686312  0.7958607299908989  0.9606661138959253  1.0000
  O   O24       1.0  0.8400440945270446  0.014211866178868597  0.9653928726704633  1.0000
  O   O25       1.0  0.6693901411349542  0.0355283531473063  0.9721543284555876  1.0000
  O   O26       1.0  0.46787035188761184  0.832442120270805  0.9698608169933606  1.0000
  O   O27       1.0  0.6470122168516992  0.3192427390206376  0.5058840032928771  1.0000
  O   O28       1.0  0.005212018683266632  0.9774942113618933  0.011636196993045198  1.0000
