data_image0
_chemical_formula_structural       Cd2H24C24O12
_chemical_formula_sum              "Cd2 H24 C24 O12"
_cell_length_a       5.3568083142833816
_cell_length_b       6.459510893429047
_cell_length_c       19.426407661512613
_cell_angle_alpha    92.78159965260701
_cell_angle_beta     90.04245726111706
_cell_angle_gamma    114.47422668366234

_space_group_name_H-M_alt    "P 1"
_space_group_IT_number       1

loop_
  _space_group_symop_operation_xyz
  'x, y, z'

loop_
  _atom_site_type_symbol
  _atom_site_label
  _atom_site_symmetry_multiplicity
  _atom_site_fract_x
  _atom_site_fract_y
  _atom_site_fract_z
  _atom_site_occupancy
  Cd  Cd1       1.0  0.3185757381055865  0.00033521891567290135  0.2501126363293835  1.0000
  Cd  Cd2       1.0  0.681437621533945  0.9996631907758697  0.7498807025007181  1.0000
  H   H1        1.0  0.08407245618730746  0.5641081387108927  0.370557721114146  1.0000
  H   H2        1.0  0.5207578077419512  0.4363617118867964  0.129371029203547  1.0000
  H   H3        1.0  0.9158960530020508  0.435871497158999  0.6294362668753735  1.0000
  H   H4        1.0  0.47918826914504825  0.563625255413534  0.8706514175592232  1.0000
  H   H5        1.0  0.6630480210272579  0.09405239436982532  0.41195533140248125  1.0000
  H   H6        1.0  0.5685751540126207  0.9064652182329527  0.0881579550222042  1.0000
  H   H7        1.0  0.3369421199491143  0.9059219552757796  0.5880426713776643  1.0000
  H   H8        1.0  0.43145399048988503  0.09355356485652071  0.9118373377485868  1.0000
  H   H9        1.0  0.3187564108192902  0.07912682954913922  0.4879768505466373  1.0000
  H   H10       1.0  0.23889968662475533  0.9210246719625916  0.011857853113184503  1.0000
  H   H11       1.0  0.6812267862014993  0.9208373656790273  0.5120194037987744  1.0000
  H   H12       1.0  0.7611067828896054  0.07899728346202292  0.9881431637249918  1.0000
  H   H13       1.0  0.9003201936419102  0.742841363083258  0.4323618074306808  1.0000
  H   H14       1.0  0.1581715402575625  0.2578060279263354  0.0678471846445561  1.0000
  H   H15       1.0  0.09965086131426663  0.2571209360228509  0.5676390409593637  1.0000
  H   H16       1.0  0.8418150808213057  0.7422247931307313  0.9321457708148772  1.0000
  H   H17       1.0  0.7982498895905223  0.36772414213490384  0.199878260229319  1.0000
  H   H18       1.0  0.4309679090738002  0.6324925331980042  0.30030494761707877  1.0000
  H   H19       1.0  0.20176256911183546  0.6323098009098658  0.8001214528236531  1.0000
  H   H20       1.0  0.5690407548846681  0.3675039360509943  0.699694014735563  1.0000
  H   H21       1.0  0.815578910023163  0.12489306743164973  0.1791099803815683  1.0000
  H   H22       1.0  0.6911211644174176  0.8754355954265592  0.3209960447870301  1.0000
  H   H23       1.0  0.18444509698048256  0.8751341036272323  0.8208885686430207  1.0000
  H   H24       1.0  0.3088967494794872  0.12456445213479843  0.6789988717135316  1.0000
  C   C1        1.0  0.10802311095058313  0.2504958083046064  0.3335176992709989  1.0000
  C   C2        1.0  0.8576899719762566  0.7498760959138551  0.16670570213088348  1.0000
  C   C3        1.0  0.891979520931429  0.7494923394557134  0.6664764626109871  1.0000
  C   C4        1.0  0.1423997526127536  0.2501928718943702  0.8333122234048531  1.0000
  C   C5        1.0  0.9817066540364792  0.37977033631592866  0.3733487477617885  1.0000
  C   C6        1.0  0.6024036160047146  0.6207682619680669  0.1266916037807775  1.0000
  C   C7        1.0  0.01824557796363991  0.6201991465062804  0.6266434908729366  1.0000
  C   C8        1.0  0.3975553364925021  0.3792706693854484  0.873311292546397  1.0000
  C   C9        1.0  0.7574174757966716  0.28003878636231155  0.41184166892195156  1.0000
  C   C10       1.0  0.47744271243021813  0.7205014286126857  0.08820959249737828  1.0000
  C   C11       1.0  0.24254675684436228  0.7199322900092329  0.5881531768611481  1.0000
  C   C12       1.0  0.5225095461720244  0.2795316412126496  0.9117705343822421  1.0000
  C   C13       1.0  0.6286793234230146  0.3960544902755674  0.4551273908881655  1.0000
  C   C14       1.0  0.23265290664843272  0.6042102574723175  0.04491698661179559  1.0000
  C   C15       1.0  0.3713043966492507  0.6039182217741726  0.5448690340374966  1.0000
  C   C16       1.0  0.7673467438335919  0.3957382807167988  0.9550866779828127  1.0000
  C   C17       1.0  0.399573746658362  0.2643700561689642  0.4938294775984886  1.0000
  C   C18       1.0  0.13480808440753136  0.7356258982368262  0.006093958153449803  1.0000
  C   C19       1.0  0.6004184048701193  0.7356008431945897  0.5061694859122241  1.0000
  C   C20       1.0  0.8652398976959574  0.2643595452524253  0.99392383520194  1.0000
  C   C21       1.0  0.7260891376211873  0.6350923735389176  0.46199547919415807  1.0000
  C   C22       1.0  0.09143883614449781  0.3652315563176529  0.0381280051345314  1.0000
  C   C23       1.0  0.2738982450326972  0.364880186676558  0.5380045466960368  1.0000
  C   C24       1.0  0.9085833491624058  0.6347695239680677  0.9618828914225404  1.0000
  O   O1        1.0  0.312065950002662  0.3578741692547141  0.2954007998677284  1.0000
  O   O2        1.0  0.9538150229201321  0.6423820585523928  0.2050149803351786  1.0000
  O   O3        1.0  0.6879568164841885  0.6421393101074315  0.7045990193044389  1.0000
  O   O4        1.0  0.0462044562141415  0.3575762431144227  0.7949996926589762  1.0000
  O   O5        1.0  0.0191857645341358  0.03267483795855951  0.3363453825885969  1.0000
  O   O6        1.0  0.9868082308098565  0.9676774019531325  0.1638441335529848  1.0000
  O   O7        1.0  0.9808193298194824  0.9672995527200998  0.6636515929217808  1.0000
  O   O8        1.0  0.013203372920571612  0.03241836000300682  0.8361449766680167  1.0000
  O   O9        1.0  0.6883352201653566  0.1990214860786708  0.189893593315702  1.0000
  O   O10       1.0  0.4897504041893868  0.8012533101119175  0.3101754192478268  1.0000
  O   O11       1.0  0.3116786124373335  0.8010040047075793  0.8101044062282411  1.0000
  O   O12       1.0  0.5102525058218178  0.1987465883546947  0.6898230963771467  1.0000
