data_image0
_chemical_formula_structural       Tb2Zn3H36C30N12O30
_chemical_formula_sum              "Tb2 Zn3 H36 C30 N12 O30"
_cell_length_a       10.819027689381592
_cell_length_b       12.591402733239637
_cell_length_c       12.591396424277749
_cell_angle_alpha    90.85825421209316
_cell_angle_beta     114.33977986594208
_cell_angle_gamma    114.33978243443963

_space_group_name_H-M_alt    "P 1"
_space_group_IT_number       1

loop_
  _space_group_symop_operation_xyz
  'x, y, z'

loop_
  _atom_site_type_symbol
  _atom_site_label
  _atom_site_symmetry_multiplicity
  _atom_site_fract_x
  _atom_site_fract_y
  _atom_site_fract_z
  _atom_site_occupancy
  Tb  Tb1       1.0  0.4999998909296505  0.7927653719572515  0.20723418325310652  1.0000
  Tb  Tb2       1.0  0.5000000624577509  0.20723286122630916  0.7927682342100867  1.0000
  Zn  Zn1       1.0  0.4999996995726759  0.9999997787281031  2.4429110102316995e-07  1.0000
  Zn  Zn2       1.0  0.5000000678861054  0.5000002817237144  0.9999992822336452  1.0000
  Zn  Zn3       1.0  0.4999982552939244  2.4500984400612763e-08  0.5000001399588144  1.0000
  H   H1        1.0  0.3888022259034615  0.1457710635251814  0.26352821750678157  1.0000
  H   H2        1.0  0.9527508920882042  0.5673677893297934  0.056967283182245844  1.0000
  H   H3        1.0  0.23319743533436807  0.8968769301310784  0.8067697043985474  1.0000
  H   H4        1.0  0.2343793300826889  0.21980721290523772  0.0026808780413248127  1.0000
  H   H5        1.0  0.2783779703932652  0.347894931932359  0.7899942677539329  1.0000
  H   H6        1.0  0.047248563832795236  0.4326313647652071  0.9430318057607181  1.0000
  H   H7        1.0  0.6547047605506078  0.524900416228533  0.23253756620976418  1.0000
  H   H8        1.0  0.04724674318892136  0.9430321805877925  0.432630119537734  1.0000
  H   H9        1.0  0.7656206354277584  0.9973199993654587  0.7801928835995042  1.0000
  H   H10       1.0  0.778555919562045  0.7576601981181597  0.6013963348835886  1.0000
  H   H11       1.0  0.9907691795635003  0.7103685286298073  0.11970491989365672  1.0000
  H   H12       1.0  0.7668070720749681  0.19322958014202382  0.10312628956056363  1.0000
  H   H13       1.0  0.7785592763862325  0.601398280930276  0.7576599034623898  1.0000
  H   H14       1.0  0.7216217997599017  0.21000469163980992  0.6521036594767509  1.0000
  H   H15       1.0  0.2331934006074404  0.8067695694546586  0.896873949685613  1.0000
  H   H16       1.0  0.6111995014641919  0.7364728715252155  0.8542293324761516  1.0000
  H   H17       1.0  0.2214415045919296  0.2423389426407425  0.39860283620853926  1.0000
  H   H18       1.0  0.22144377445417254  0.3986035687419757  0.2423397169470789  1.0000
  H   H19       1.0  0.6547037305834706  0.23253701568292234  0.5249003233938723  1.0000
  H   H20       1.0  0.766803559569361  0.1031230986574982  0.19323232788989492  1.0000
  H   H21       1.0  0.278378672922507  0.7899944579568724  0.3478965797694187  1.0000
  H   H22       1.0  0.9527522170214623  0.05696787208590592  0.5673680236405829  1.0000
  H   H23       1.0  0.14544411903806778  0.1678102678689228  0.4916436174546632  1.0000
  H   H24       1.0  0.3452942008303026  0.475099621556673  0.7674621654722671  1.0000
  H   H25       1.0  0.6111987684150009  0.8542289727076379  0.7364730205298002  1.0000
  H   H26       1.0  0.009231956898815993  0.880294718926166  0.2896300739432078  1.0000
  H   H27       1.0  0.14544571429733102  0.49164362155231345  0.1678099624528002  1.0000
  H   H28       1.0  0.009233350226111214  0.2896324269620648  0.8802944959772603  1.0000
  H   H29       1.0  0.9907670033115678  0.1197053337475396  0.7103680692351091  1.0000
  H   H30       1.0  0.7656222117972786  0.7801954951785461  0.997321411811427  1.0000
  H   H31       1.0  0.8545517938144013  0.8321897610785026  0.5083550460733264  1.0000
  H   H32       1.0  0.34529369415576355  0.7674621176317229  0.47509964195010906  1.0000
  H   H33       1.0  0.38880201390506386  0.26352805878798335  0.14577211009898147  1.0000
  H   H34       1.0  0.854555799316138  0.5083573310936343  0.8321890973667649  1.0000
  H   H35       1.0  0.2343783253678922  0.0026800458639968006  0.21980605383066626  1.0000
  H   H36       1.0  0.721621486112994  0.6521042147183919  0.21000561544089885  1.0000
  C   C1        1.0  0.6738959589925314  0.9398633098849556  0.8011320692820618  1.0000
  C   C2        1.0  0.8133335827772042  0.8425309080930742  0.572650614409433  1.0000
  C   C3        1.0  0.3282984179600844  0.49277730652055846  0.13913922990261088  1.0000
  C   C4        1.0  0.9934420365863728  0.3371410626833296  0.9436579174386637  1.0000
  C   C5        1.0  0.32829813730710095  0.13914035322147097  0.49278024724576847  1.0000
  C   C6        1.0  0.8227506843168795  0.8977755845722724  0.2939384429109423  1.0000
  C   C7        1.0  0.8133335961271797  0.5726504348178878  0.8425289313383361  1.0000
  C   C8        1.0  0.9801833202014835  0.9150517818767199  0.7890626333866778  1.0000
  C   C9        1.0  0.18666488406361734  0.15747001338233696  0.4273497600116584  1.0000
  C   C10       1.0  0.019816850800907563  0.21093707900993047  0.08494780670178409  1.0000
  C   C11       1.0  0.17725010612192443  0.7060599991048875  0.10222352601802949  1.0000
  C   C12       1.0  0.0065589559763024686  0.6628589958822315  0.056340937842350065  1.0000
  C   C13       1.0  0.5704727524154974  0.7761832374163548  0.9990590387762524  1.0000
  C   C14       1.0  0.019815640008900497  0.08494827079697842  0.2109355097916392  1.0000
  C   C15       1.0  0.9801816136988601  0.7890638722424722  0.9150493907118785  1.0000
  C   C16       1.0  0.17724929382544016  0.10222444871462237  0.7060624390742943  1.0000
  C   C17       1.0  0.8561021855623635  0.013273945416450793  0.013274399994294674  1.0000
  C   C18       1.0  0.6717005157395944  0.5072209683825547  0.8608580659980873  1.0000
  C   C19       1.0  0.4295276701718223  0.22381231941791668  0.0009434771739761765  1.0000
  C   C20       1.0  0.18666638025934645  0.42734962080174194  0.1574695678913258  1.0000
  C   C21       1.0  0.1438977919946963  0.9867260953146868  0.9867256877390815  1.0000
  C   C22       1.0  0.4295266269541714  0.0009406929970338989  0.22381724759827656  1.0000
  C   C23       1.0  0.6716998102387206  0.8608596518408189  0.5072223053923393  1.0000
  C   C24       1.0  0.006559187811781398  0.0563414274986371  0.6628590568885713  1.0000
  C   C25       1.0  0.3261046398308521  0.19886977130243366  0.06013746489912104  1.0000
  C   C26       1.0  0.3261024807523256  0.06013584126412039  0.19886666360955732  1.0000
  C   C27       1.0  0.8227508605153063  0.2939382742458391  0.8977752762372262  1.0000
  C   C28       1.0  0.6738974219293822  0.8011338457502291  0.9398634409884677  1.0000
  C   C29       1.0  0.5704702796605899  0.999057509015998  0.776186484466443  1.0000
  C   C30       1.0  0.9934397735691218  0.9436586102865759  0.33714067479345994  1.0000
  N   N1        1.0  0.06766002795081498  0.0640102696499127  0.323197438745737  1.0000
  N   N2        1.0  0.9323398724033465  0.6768023331308513  0.9359901262449595  1.0000
  N   N3        1.0  0.7372698400818222  0.9204355415530614  0.9204359763234534  1.0000
  N   N4        1.0  0.9178025135357188  0.8016068414989943  0.8016072116648303  1.0000
  N   N5        1.0  0.09150692855791918  0.8780146913350106  0.011418004748236342  1.0000
  N   N6        1.0  0.2627316747021737  0.0795653962043872  0.07956467199982603  1.0000
  N   N7        1.0  0.09150560654778418  0.0114183588688945  0.8780153022410602  1.0000
  N   N8        1.0  0.9084956012316923  0.12198626425686139  0.9885814111226808  1.0000
  N   N9        1.0  0.08219746460660099  0.19839319178789339  0.1983936703204066  1.0000
  N   N10       1.0  0.06766010456844637  0.3231977150445289  0.0640091672365628  1.0000
  N   N11       1.0  0.9084948926453293  0.98858256849838  0.12198578428272804  1.0000
  N   N12       1.0  0.932338411794042  0.9359888814991563  0.6768012941458821  1.0000
  O   O1        1.0  0.3404889122315495  0.4387882182810969  0.061234477668250506  1.0000
  O   O2        1.0  0.5027262615408788  0.011308769976864096  0.6719358320954072  1.0000
  O   O3        1.0  0.5751362253171238  0.7933928429654388  0.4045669449227134  1.0000
  O   O4        1.0  0.5751385294245921  0.404565758743658  0.7933919577839816  1.0000
  O   O5        1.0  0.4392312993543968  0.1374647416165615  0.9550424099878896  1.0000
  O   O6        1.0  0.6927142619598498  0.5670280656278449  0.17989246630826733  1.0000
  O   O7        1.0  0.7375667467678821  0.7841982594238953  0.2598617866856471  1.0000
  O   O8        1.0  0.560768185418368  0.8625361604720395  0.04496070324011466  1.0000
  O   O9        1.0  0.5027287605991545  0.6719360183628139  0.01130778179442162  1.0000
  O   O10       1.0  0.6595105822667051  0.9387645992521527  0.561211818945374  1.0000
  O   O11       1.0  0.26243280480931463  0.7401364791733727  0.21580221728765991  1.0000
  O   O12       1.0  0.4392321657689279  0.9550397623878836  0.1374637956267151  1.0000
  O   O13       1.0  0.6927147260741435  0.17989254692379575  0.5670286400407251  1.0000
  O   O14       1.0  0.23395502764781645  0.032171144733894194  0.703936387371577  1.0000
  O   O15       1.0  0.4972748095362575  0.3280667477225591  0.9886896603980304  1.0000
  O   O16       1.0  0.7059933263924448  0.1357659475558464  0.13576743150331083  1.0000
  O   O17       1.0  0.4248645214158131  0.5954360909285938  0.20660766262548694  1.0000
  O   O18       1.0  0.30728519454640935  0.43297108102290577  0.8201074168865573  1.0000
  O   O19       1.0  0.560766769101278  0.0449584976267374  0.8625350887776976  1.0000
  O   O20       1.0  0.3404883802847323  0.0612354236445611  0.43878950124037164  1.0000
  O   O21       1.0  0.42486018558701477  0.20660625762629786  0.5954358413773518  1.0000
  O   O22       1.0  0.7660459684264396  0.9678288691661835  0.29606723342057967  1.0000
  O   O23       1.0  0.23395532195056007  0.7039330629539363  0.03217094548112696  1.0000
  O   O24       1.0  0.29400665057934816  0.8642341006195338  0.8642318619782117  1.0000
  O   O25       1.0  0.30728371425597345  0.8201065967810307  0.4329708871027549  1.0000
  O   O26       1.0  0.7375666251862398  0.25986088970679316  0.7841968186295531  1.0000
  O   O27       1.0  0.6595100208828626  0.5612100640662661  0.938762023980594  1.0000
  O   O28       1.0  0.4972716836638893  0.9886912648624174  0.3280635435352721  1.0000
  O   O29       1.0  0.2624322399532062  0.21580357102039477  0.7401372037702885  1.0000
  O   O30       1.0  0.7660456706121153  0.2960669956116249  0.9678279097998866  1.0000
