data_image0
_chemical_formula_structural       FeH14C20S2N16
_chemical_formula_sum              "Fe1 H14 C20 S2 N16"
_cell_length_a       7.935577855393239
_cell_length_b       8.714914812755042
_cell_length_c       9.676994187554504
_cell_angle_alpha    70.70597744725958
_cell_angle_beta     85.94993663866836
_cell_angle_gamma    64.91051456136891

_space_group_name_H-M_alt    "P 1"
_space_group_IT_number       1

loop_
  _space_group_symop_operation_xyz
  'x, y, z'

loop_
  _atom_site_type_symbol
  _atom_site_label
  _atom_site_symmetry_multiplicity
  _atom_site_fract_x
  _atom_site_fract_y
  _atom_site_fract_z
  _atom_site_occupancy
  Fe  Fe1       1.0  0.522078334926427  0.49868832717159944  0.9926749742357264  1.0000
  H   H1        1.0  0.2937930707926668  0.25892710250373335  0.23013545539323133  1.0000
  H   H2        1.0  0.6970625067954614  0.7516799483980563  0.7686814274065202  1.0000
  H   H3        1.0  0.8012745725801768  0.7418710365741532  0.16046559907136526  1.0000
  H   H4        1.0  0.18493386897434058  0.26288287368662816  0.849766396378428  1.0000
  H   H5        1.0  0.711030757662478  0.6111220847588612  0.3764949860942935  1.0000
  H   H6        1.0  0.2825210630980238  0.3861343774194452  0.6365155018943796  1.0000
  H   H7        1.0  0.6546893382606529  0.4494909853467277  0.6267430872511285  1.0000
  H   H8        1.0  0.3457689911586145  0.5390708902441332  0.3845596644769033  1.0000
  H   H9        1.0  0.8826763163244423  0.1326793740122625  0.7592165744456382  1.0000
  H   H10       1.0  0.12212640640267845  0.8540531002372161  0.24598898146152243  1.0000
  H   H11       1.0  0.34821179629528154  0.8962021295047149  0.4567532458122586  1.0000
  H   H12       1.0  0.6428313283896118  0.11173288296381399  0.5327317256328357  1.0000
  H   H13       1.0  0.1598613727583713  0.8888620689497556  0.8810212886303576  1.0000
  H   H14       1.0  0.8637958943178179  0.0976176064240519  0.12104429258014453  1.0000
  C   C1        1.0  0.4752904906561144  0.7834650041099633  0.13234359697163012  1.0000
  C   C2        1.0  0.5331876560432608  0.21848552047504197  0.8594178412282291  1.0000
  C   C3        1.0  0.19389213994006851  0.3973213559051274  0.18450929277291553  1.0000
  C   C4        1.0  0.7923072537297673  0.6117236606723038  0.8141685971134792  1.0000
  C   C5        1.0  0.9396127066463158  0.6457351833364555  0.1487944441879706  1.0000
  C   C6        1.0  0.044836543357604335  0.3601611102121751  0.8566632388582536  1.0000
  C   C7        1.0  0.9714649404275094  0.3822874088162748  0.37559981975447  1.0000
  C   C8        1.0  0.023579678045777635  0.6196606800959754  0.6310137901786775  1.0000
  C   C9        1.0  0.8094131530466345  0.473372915692451  0.4353921194730789  1.0000
  C   C10       1.0  0.18655938654513465  0.5237907571785099  0.5748148195491183  1.0000
  C   C11       1.0  0.7784025098294409  0.3816944491921744  0.5755948813824292  1.0000
  C   C12       1.0  0.2212704880121451  0.6096603653607245  0.4338611325029833  1.0000
  C   C13       1.0  0.9065188399837327  0.20652214559110857  0.6505945200797927  1.0000
  C   C14       1.0  0.0953770355052796  0.7842278180068548  0.3550346477280897  1.0000
  C   C15       1.0  0.06287948170943031  0.1309028798618641  0.5789207885958874  1.0000
  C   C16       1.0  0.937861472445619  0.8651882502888238  0.4236665850248474  1.0000
  C   C17       1.0  0.3380025352824135  0.8532050121435263  0.5749179809371299  1.0000
  C   C18       1.0  0.6633299918330027  0.15071137218585307  0.41595522754091274  1.0000
  C   C19       1.0  0.23993475103910814  0.8524510223420094  0.7923620414248308  1.0000
  C   C20       1.0  0.7788965329165126  0.1402808142549432  0.20538972736808603  1.0000
  S   S1        1.0  0.4626825876608155  0.9314830210648067  0.20489958922462392  1.0000
  S   S2        1.0  0.5218954870107951  0.07723005090272039  0.7887999541165912  1.0000
  N   N1        1.0  0.49110817251069977  0.671762956704441  0.08194822183809701  1.0000
  N   N2        1.0  0.5346666204042453  0.32608836293427856  0.9080079949745045  1.0000
  N   N3        1.0  0.21226252429906378  0.5225910839440217  0.07229604748238938  1.0000
  N   N4        1.0  0.764618659327006  0.48508220961311116  0.9205151676362961  1.0000
  N   N5        1.0  0.051432178389767096  0.6806254582416572  0.048714756681612015  1.0000
  N   N6        1.0  0.9263029686243274  0.32569033325775365  0.9493655534207978  1.0000
  N   N7        1.0  0.023636213985987774  0.4683120017638772  0.23851089647924087  1.0000
  N   N8        1.0  0.9663794111268799  0.5377629690748834  0.7674672145858568  1.0000
  N   N9        1.0  0.09565178967904592  0.21466811473939632  0.4445341659238339  1.0000
  N   N10       1.0  0.9015608920560895  0.7869996150203988  0.5585137539569446  1.0000
  N   N11       1.0  0.2033236806671823  0.9543477840649787  0.6463710660859265  1.0000
  N   N12       1.0  0.8012308987719123  0.0419689606925502  0.3515387453333291  1.0000
  N   N13       1.0  0.4480965329715761  0.6983282037411981  0.6693716310873018  1.0000
  N   N14       1.0  0.564878415588858  0.30686610927703845  0.3169009673568794  1.0000
  N   N15       1.0  0.3874886838730377  0.6986157314595542  0.8070777583205742  1.0000
  N   N16       1.0  0.6375058276722  0.2997256457272784  0.1833689233807335  1.0000
