data_image0
_chemical_formula_structural       K2Sr2Sm2H12C32N4O26
_chemical_formula_sum              "K2 Sr2 Sm2 H12 C32 N4 O26"
_cell_length_a       8.08849949028122
_cell_length_b       10.866496573762822
_cell_length_c       12.119207868430122
_cell_angle_alpha    75.66984646046056
_cell_angle_beta     71.12261574726755
_cell_angle_gamma    74.72696603305214

_space_group_name_H-M_alt    "P 1"
_space_group_IT_number       1

loop_
  _space_group_symop_operation_xyz
  'x, y, z'

loop_
  _atom_site_type_symbol
  _atom_site_label
  _atom_site_symmetry_multiplicity
  _atom_site_fract_x
  _atom_site_fract_y
  _atom_site_fract_z
  _atom_site_occupancy
  K   K1        1.0  0.2718420287189716  0.0878272389115224  0.4045837624971115  1.0000
  K   K2        1.0  0.7281560019895816  0.912174197785511  0.5954150291891979  1.0000
  Sr  Sr1       1.0  0.9194616512375401  0.6027736635074705  0.8488970520193035  1.0000
  Sr  Sr2       1.0  0.08053691558145458  0.3972258303252262  0.1511028732343576  1.0000
  Sm  Sm1       1.0  0.1830204607987936  0.7573672927463806  0.28259206181841984  1.0000
  Sm  Sm2       1.0  0.8169804483174514  0.24263316939406826  0.7174079744924812  1.0000
  H   H1        1.0  0.5502107714106613  0.6291771273406683  0.04623522788097031  1.0000
  H   H2        1.0  0.4497901390471313  0.37082333889360103  0.953763982104114  1.0000
  H   H3        1.0  0.4946308012628292  0.5846046082428276  0.9501519103826724  1.0000
  H   H4        1.0  0.5053709501374043  0.41538809321357223  0.0498504620440912  1.0000
  H   H5        1.0  0.16627110629443803  0.453984565637491  0.6125613058813925  1.0000
  H   H6        1.0  0.8337274605245567  0.5460149281952057  0.3874386193722683  1.0000
  H   H7        1.0  0.5805795634086903  0.30910368893581375  0.3185805799775636  1.0000
  H   H8        1.0  0.4194215769859964  0.6909006522538165  0.6814185610263622  1.0000
  H   H9        1.0  0.7136447775950783  0.8435634511940578  0.10271205254644405  1.0000
  H   H10       1.0  0.2863577064295625  0.15643604306928444  0.8972878565613129  1.0000
  H   H11       1.0  0.8180479029468656  0.17568601686511442  0.18833764966525732  1.0000
  H   H12       1.0  0.18195196871297975  0.8243134743819172  0.8116628210903158  1.0000
  C   C1        1.0  0.22744219668486199  0.434803588363252  0.3831039182719493  1.0000
  C   C2        1.0  0.7725563701341257  0.5651959054694445  0.6168960069817118  1.0000
  C   C3        1.0  0.35600825830130833  0.3847914405005072  0.4575491795407133  1.0000
  C   C4        1.0  0.6439910772481026  0.6152099936108615  0.542450157647508  1.0000
  C   C5        1.0  0.30160887858263397  0.40472560954418685  0.5745909780865688  1.0000
  C   C6        1.0  0.6983909944187516  0.5952738857966722  0.42540866634318775  1.0000
  C   C7        1.0  0.423712055014569  0.35993949839846107  0.6412578059580412  1.0000
  C   C8        1.0  0.5762888554432306  0.6400609678358082  0.3587414040270429  1.0000
  C   C9        1.0  0.646700382611378  0.28483102606080735  0.4823115528494456  1.0000
  C   C10       1.0  0.35329791682316614  0.7151694412509715  0.5176873924576384  1.0000
  C   C11       1.0  0.5315618531090747  0.32338851903462995  0.4103382497975404  1.0000
  C   C12       1.0  0.46843694632989485  0.6766148579410755  0.589659953823336  1.0000
  C   C13       1.0  0.8433398745547364  0.22938699231239923  0.43787563722196415  1.0000
  C   C14       1.0  0.1566591936102241  0.7706154152780585  0.5621227200196727  1.0000
  C   C15       1.0  0.3796762140025791  0.38291529227200993  0.7662938544248875  1.0000
  C   C16       1.0  0.6203223514748684  0.6170841974668593  0.23370689715459042  1.0000
  C   C17       1.0  0.7504720856885779  0.935120467011352  0.289635058658881  1.0000
  C   C18       1.0  0.24952832342324877  0.064877085465163  0.7103657193382205  1.0000
  C   C19       1.0  0.7575826668066766  0.0024317514613301  0.16376203455104849  1.0000
  C   C20       1.0  0.2424172048531687  0.9975677397856944  0.8362384362045248  1.0000
  C   C21       1.0  0.7375766317681492  0.9419487055081821  0.08053419924447523  1.0000
  C   C22       1.0  0.2624248148000845  0.058049817861743215  0.9194661443079611  1.0000
  C   C23       1.0  0.7525597074278564  0.009521872071928802  0.9648122561933833  1.0000
  C   C24       1.0  0.24744120034684858  0.9904785859746852  0.03518860644333437  1.0000
  C   C25       1.0  0.811493820341198  0.18641813294585322  0.009416691206269047  1.0000
  C   C26       1.0  0.18850578125110923  0.8135823235926057  0.9905844522543602  1.0000
  C   C27       1.0  0.7955127035132532  0.12722795866999093  0.12721529469060752  1.0000
  C   C28       1.0  0.20448559457974358  0.8727725045479606  0.872784476942293  1.0000
  C   C29       1.0  0.7457601896597125  0.9518904664875125  0.86482456684147  1.0000
  C   C30       1.0  0.2542407207980801  0.04810999974675672  0.1351746431436069  1.0000
  C   C31       1.0  0.8642280038628695  0.31623673603339614  0.9578073285109951  1.0000
  C   C32       1.0  0.13577186779697561  0.6837627552136285  0.042193142244578014  1.0000
  N   N1        1.0  0.5919182916610878  0.30028865079983563  0.5959119158002367  1.0000
  N   N2        1.0  0.4080813139558541  0.6997118180201058  0.4040867486829356  1.0000
  N   N3        1.0  0.7865678177372002  0.12958690205535112  0.931187894067655  1.0000
  N   N4        1.0  0.21343178519665423  0.870413558576935  0.06881242306715758  1.0000
  O   O1        1.0  0.13979491892339968  0.550431853488064  0.38860879186542263  1.0000
  O   O2        1.0  0.8602026077560935  0.44956666126356754  0.6113932204845582  1.0000
  O   O3        1.0  0.2165807246625775  0.3601928536399512  0.3222211936304121  1.0000
  O   O4        1.0  0.7834178421564101  0.6398066401927452  0.6777787316232491  1.0000
  O   O5        1.0  0.9131201048503642  0.23844161713613943  0.32774800521815445  1.0000
  O   O6        1.0  0.08687765713219861  0.761560788946156  0.6722506328473941  1.0000
  O   O7        1.0  0.9241876808899504  0.17869353247878916  0.5185686405050305  1.0000
  O   O8        1.0  0.07581138593346273  0.8213088710178411  0.48143054306242317  1.0000
  O   O9        1.0  0.508301436467505  0.33771584498369833  0.8160120656681329  1.0000
  O   O10       1.0  0.4916973990774735  0.6622826794637436  0.18398801320629585  1.0000
  O   O11       1.0  0.22845437372008345  0.44365804567299705  0.812289404060664  1.0000
  O   O12       1.0  0.7715454979397616  0.5563414455740274  0.1877110666949094  1.0000
  O   O13       1.0  0.5955348390728261  0.6010183288790433  0.9672309501691174  1.0000
  O   O14       1.0  0.4044642304336745  0.39898408280523523  0.032766580746702835  1.0000
  O   O15       1.0  0.6227228418061795  0.9747023849349574  0.37217539647218006  1.0000
  O   O16       1.0  0.377275725012808  0.02529710889773901  0.6278245287814883  1.0000
  O   O17       1.0  0.8826540115040727  0.8422845302701066  0.30135191408739803  1.0000
  O   O18       1.0  0.11734586015577254  0.15771496097691806  0.698648556668175  1.0000
  O   O19       1.0  0.7492515523381723  0.8330630796827168  0.881587721534636  1.0000
  O   O20       1.0  0.250749626845618  0.16693641716629068  0.1184116420712158  1.0000
  O   O21       1.0  0.7413623311790614  0.032233825110154206  0.7673142761407165  1.0000
  O   O22       1.0  0.25863727309633316  0.9677666396159597  0.23268521466827255  1.0000
  O   O23       1.0  0.857526503493709  0.3644005109225859  0.8513860877001421  1.0000
  O   O24       1.0  0.1424720633252789  0.6355989829101106  0.1486138375535262  1.0000
  O   O25       1.0  0.9106841650213224  0.3712173802478987  0.01990015760566169  1.0000
  O   O26       1.0  0.08931543791252494  0.6287830803843876  0.980100159529151  1.0000
