data_image0
_chemical_formula_structural       Zn2H26C44O10
_chemical_formula_sum              "Zn2 H26 C44 O10"
_cell_length_a       6.583519171981737
_cell_length_b       11.891723125431032
_cell_length_c       15.657903044789181
_cell_angle_alpha    88.94106487422113
_cell_angle_beta     89.18855106319775
_cell_angle_gamma    78.91954600262606

_space_group_name_H-M_alt    "P 1"
_space_group_IT_number       1

loop_
  _space_group_symop_operation_xyz
  'x, y, z'

loop_
  _atom_site_type_symbol
  _atom_site_label
  _atom_site_symmetry_multiplicity
  _atom_site_fract_x
  _atom_site_fract_y
  _atom_site_fract_z
  _atom_site_occupancy
  Zn  Zn1       1.0  0.8664488187294451  0.4181962350175823  0.5019638928335795  1.0000
  Zn  Zn2       1.0  0.13644449633775219  0.5752636361060227  0.49805883491268343  1.0000
  H   H1        1.0  0.084654517748433  0.22647763872830498  0.27263332248317346  1.0000
  H   H2        1.0  0.9262528556451742  0.7672286184014185  0.2650993723079225  1.0000
  H   H3        1.0  0.9048765942372231  0.7825879365426474  0.7163766851574778  1.0000
  H   H4        1.0  0.09789100069090752  0.2121501988986054  0.726346520506489  1.0000
  H   H5        1.0  0.2674254192687613  0.1391113750028907  0.14238795394942372  1.0000
  H   H6        1.0  0.7443133351740838  0.8571178788602507  0.13509883018835475  1.0000
  H   H7        1.0  0.7289578957909484  0.8679096228475276  0.8486946915509037  1.0000
  H   H8        1.0  0.27785031371185204  0.12660389859723153  0.8580785503154189  1.0000
  H   H9        1.0  0.7786876279939675  0.30534097831292684  0.1933216172323284  1.0000
  H   H10       1.0  0.23909615021872813  0.6835751482883197  0.1905975539124114  1.0000
  H   H11       1.0  0.23285621786902772  0.6857339091152497  0.810171323622342  1.0000
  H   H12       1.0  0.7607839259628336  0.31885767564168793  0.8109959022248674  1.0000
  H   H13       1.0  0.5947721341574947  0.3941321467973539  0.32153816875709407  1.0000
  H   H14       1.0  0.42222658704648086  0.5923289129150647  0.3185011867611891  1.0000
  H   H15       1.0  0.4167547323672379  0.5925274219110791  0.683175885642612  1.0000
  H   H16       1.0  0.5727963480112094  0.4118859654117842  0.6844425648945602  1.0000
  H   H17       1.0  0.4012312662000498  0.2691133607922467  0.0024318148284337006  1.0000
  H   H18       1.0  0.6080269962130701  0.7277805290396699  0.9955904535375809  1.0000
  H   H19       1.0  0.8512959707286641  0.06940984677493131  0.2181445828599848  1.0000
  H   H20       1.0  0.1690511030941053  0.9224001938594029  0.21632943443606223  1.0000
  H   H21       1.0  0.1567584485922282  0.9263894932561314  0.7809806370685664  1.0000
  H   H22       1.0  0.8385968600787879  0.0736443374081404  0.7828062017201276  1.0000
  H   H23       1.0  0.39864261878686597  0.6879696997949836  0.5522708487395533  1.0000
  H   H24       1.0  0.6005526366005612  0.30569158988986095  0.5603190113175529  1.0000
  H   H25       1.0  0.5128283799995401  0.36600134925059546  0.4733269181483309  1.0000
  H   H26       1.0  0.4929660445550892  0.6254912141545647  0.4677294374235643  1.0000
  C   C1        1.0  0.2108965304514143  0.37307077874661587  0.37999019357904734  1.0000
  C   C2        1.0  0.8005658818626032  0.6166639537099317  0.3752616497015353  1.0000
  C   C3        1.0  0.7911895957923603  0.6208053907181609  0.6181972121868285  1.0000
  C   C4        1.0  0.2039870631110574  0.377675181666426  0.6232765422076483  1.0000
  C   C5        1.0  0.32659698925012043  0.31626762994653035  0.3050640975187235  1.0000
  C   C6        1.0  0.6872283210776331  0.6737075110067821  0.2997156666819762  1.0000
  C   C7        1.0  0.6735982023068986  0.6818592974286091  0.6917166063443361  1.0000
  C   C8        1.0  0.3221759932087664  0.31778910972922597  0.6973952820982987  1.0000
  C   C9        1.0  0.23606305301373712  0.24377754839402144  0.2542719478990563  1.0000
  C   C10       1.0  0.7765792583358079  0.7487264126471801  0.2476920854048004  1.0000
  C   C11       1.0  0.75872575902806  0.7610024241474491  0.737935526224895  1.0000
  C   C12       1.0  0.24178902435311042  0.23602039934952762  0.7459773035522446  1.0000
  C   C13       1.0  0.3386196359278202  0.19511997125918157  0.18175699338576834  1.0000
  C   C14       1.0  0.6744481927185788  0.798847344456867  0.1753255539382934  1.0000
  C   C15       1.0  0.65978395079636  0.8087001934405152  0.8115999811127851  1.0000
  C   C16       1.0  0.3430222818850267  0.18817282407365352  0.8192924442943622  1.0000
  C   C17       1.0  0.5353450952982898  0.21598156178356478  0.15920014648490624  1.0000
  C   C18       1.0  0.47948155093071426  0.7767253419777306  0.1542513205591405  1.0000
  C   C19       1.0  0.4700621118573665  0.782154277064208  0.8384957189235609  1.0000
  C   C20       1.0  0.5304129022192754  0.21729615409359582  0.8435116835441931  1.0000
  C   C21       1.0  0.6273033692114752  0.2869663873917007  0.21101147824657576  1.0000
  C   C22       1.0  0.3891474580394457  0.702757471730969  0.20710729241962875  1.0000
  C   C23       1.0  0.38053589562989015  0.706837479594434  0.7898235023598802  1.0000
  C   C24       1.0  0.614895329412164  0.2957317132752522  0.7927664903747881  1.0000
  C   C25       1.0  0.5236706417945598  0.3372225211401699  0.2829724800206321  1.0000
  C   C26       1.0  0.4922496656353347  0.6512010888723836  0.27890838106180393  1.0000
  C   C27       1.0  0.48311061959289947  0.6552941861602833  0.7179985405003393  1.0000
  C   C28       1.0  0.5099969786842564  0.3472653865036365  0.7212164223940649  1.0000
  C   C29       1.0  0.5443223659472309  0.2051384480284852  0.0017297583622096024  1.0000
  C   C30       1.0  0.4647344522542907  0.7916250159349192  0.9965313501917024  1.0000
  C   C31       1.0  0.637198936025932  0.16714867086382407  0.0795047240858793  1.0000
  C   C32       1.0  0.37572530419025424  0.8278259919412533  0.0753502300673929  1.0000
  C   C33       1.0  0.3712095050507005  0.830059115223186  0.9190706518591583  1.0000
  C   C34       1.0  0.6331875549056037  0.16798317136211696  0.9232125893379219  1.0000
  C   C35       1.0  0.8227977763380281  0.0840283365579424  0.079885141443448  1.0000
  C   C36       1.0  0.19015162873083827  0.9108559522719658  0.07784046622722941  1.0000
  C   C37       1.0  0.18528167060521358  0.9125601119573405  0.9191874243753517  1.0000
  C   C38       1.0  0.8184198208164729  0.0850129717166155  0.9212421881417541  1.0000
  C   C39       1.0  0.9124423442359131  0.04142419893813809  8.781197254140146e-05  1.0000
  C   C40       1.0  0.09587192250184276  0.9548272648646402  0.9990668095634021  1.0000
  C   C41       1.0  0.9206820521810145  0.0378800821046497  0.1574304003290479  1.0000
  C   C42       1.0  0.09645453312615619  0.9552409784246407  0.15644507866191765  1.0000
  C   C43       1.0  0.08724489667177697  0.9581237286052369  0.841625542916468  1.0000
  C   C44       1.0  0.9116113857487562  0.0406897267116619  0.8426270420660773  1.0000
  O   O1        1.0  0.3044028909519271  0.4346852910164642  0.42700779537624817  1.0000
  O   O2        1.0  0.7047500817545256  0.5554559826736283  0.4244863306042675  1.0000
  O   O3        1.0  0.7494540875148559  0.5231372146459138  0.6012555301024136  1.0000
  O   O4        1.0  0.2440716435002201  0.47551765851574146  0.6025542109089201  1.0000
  O   O5        1.0  0.026059047054921753  0.35998087269278767  0.3933751647603928  1.0000
  O   O6        1.0  0.9851096000251901  0.6295435368232063  0.3873039265022201  1.0000
  O   O7        1.0  0.9231805114866206  0.6687817427229631  0.5787141333147119  1.0000
  O   O8        1.0  0.07370863300125308  0.328375065557637  0.5867320481417622  1.0000
  O   O9        1.0  0.6416161557515351  0.3229228129380814  0.5021981532471926  1.0000
  O   O10       1.0  0.3621654436191546  0.669917503505616  0.4946847046633138  1.0000
