data_image0
_chemical_formula_structural       Cu2H30C54N8O8F2
_chemical_formula_sum              "Cu2 H30 C54 N8 O8 F2"
_cell_length_a       9.691908529706453
_cell_length_b       10.863991593373134
_cell_length_c       11.865
_cell_angle_alpha    62.484124100241765
_cell_angle_beta     69.88901037905322
_cell_angle_gamma    79.8859138338806

_space_group_name_H-M_alt    "P 1"
_space_group_IT_number       1

loop_
  _space_group_symop_operation_xyz
  'x, y, z'

loop_
  _atom_site_type_symbol
  _atom_site_label
  _atom_site_symmetry_multiplicity
  _atom_site_fract_x
  _atom_site_fract_y
  _atom_site_fract_z
  _atom_site_occupancy
  Cu  Cu1       1.0  0.5156547160644179  0.1316819180165965  0.8433522218729267  1.0000
  Cu  Cu2       1.0  0.48434618757472236  0.8683193973388867  0.15664300667747008  1.0000
  H   H1        1.0  0.49033279731271046  0.0020772048935456  0.668233282732679  1.0000
  H   H2        1.0  0.5096616905296613  0.9979158057946975  0.3317689464407253  1.0000
  H   H3        1.0  0.2961176894501349  0.0150096479539172  0.5652434463607108  1.0000
  H   H4        1.0  0.7038689963460101  0.9849885531513535  0.43476383538754254  1.0000
  H   H5        1.0  0.08353865723410081  0.1788700753608836  0.579174302596293  1.0000
  H   H6        1.0  0.9164556758187459  0.8211302019111884  0.42083079586475247  1.0000
  H   H7        1.0  0.4809621965020198  0.326331899217962  0.9786866734458928  1.0000
  H   H8        1.0  0.519034488906719  0.6736611114702811  0.02131999539790292  1.0000
  H   H9        1.0  0.2978912076362192  0.5204607625499804  0.9972214159240524  1.0000
  H   H10       1.0  0.7021065544429064  0.4795332862216668  0.0027861970231696834  1.0000
  H   H11       1.0  0.0939329635102837  0.5765266091744294  0.89680618179532  1.0000
  H   H12       1.0  0.9060669297968359  0.4234705538474302  0.10320035799698249  1.0000
  H   H13       1.0  0.6924402829006979  0.4681465493514523  0.5655408288912016  1.0000
  H   H14       1.0  0.307562641402491  0.531863070671271  0.434467175405466  1.0000
  H   H15       1.0  0.4562336072275243  0.5936020431044327  0.5339231464789337  1.0000
  H   H16       1.0  0.5437684836459624  0.4063951199174269  0.46608530453875113  1.0000
  H   H17       1.0  0.4580487630998746  0.7845097336305216  0.780079547335106  1.0000
  H   H18       1.0  0.5419433502738116  0.2154915817249616  0.21992994950380051  1.0000
  H   H19       1.0  0.7029188159570907  0.6733673338666435  0.7984878504330624  1.0000
  H   H20       1.0  0.2970775377597974  0.3266412480726686  0.2015199099942322  1.0000
  H   H21       1.0  0.8648685089164942  0.843587060213082  0.7328265052360265  1.0000
  H   H22       1.0  0.1351409196346225  0.156426712143265  0.2671534740996508  1.0000
  H   H23       1.0  0.9293697064621753  0.2502673757948273  0.4022167023910939  1.0000
  H   H24       1.0  0.07063207483225399  0.7497443203947114  0.5977696743067968  1.0000
  H   H25       1.0  0.8448380576537602  0.9386360529481479  0.9052698320926  1.0000
  H   H26       1.0  0.1551608032085525  0.0613579958234993  0.0947324153547981  1.0000
  H   H27       1.0  0.9102716980624235  0.181665633970745  0.08205678950936612  1.0000
  H   H28       1.0  0.08972828369585527  0.8183273767174981  0.9179447394299917  1.0000
  H   H29       1.0  0.871800658961142  0.3375681139944433  0.638532368746894  1.0000
  H   H30       1.0  0.12819573898132572  0.6624383917780676  0.3614686721789227  1.0000
  C   C1        1.0  0.3936956185019511  0.0698702797450821  0.6739913521875422  1.0000
  C   C2        1.0  0.6063031539092023  0.9301279213601888  0.32600494951778114  1.0000
  C   C3        1.0  0.2857220927982453  0.0791268694680909  0.6161614415353753  1.0000
  C   C4        1.0  0.7142700205754408  0.9208744458873922  0.3838387843385008  1.0000
  C   C5        1.0  0.1670878538955378  0.1694858013790466  0.6249590432277189  1.0000
  C   C6        1.0  0.8329076442788618  0.830511361642813  0.3750453597438154  1.0000
  C   C7        1.0  0.1565786874121855  0.2509016447553236  0.6918631237366456  1.0000
  C   C8        1.0  0.8434200628861747  0.7490975944333513  0.30813864475692304  1.0000
  C   C9        1.0  0.27000410146283116  0.2349006271495639  0.7483127357433191  1.0000
  C   C10       1.0  0.7299935500523418  0.7650986120391039  0.25169018417506095  1.0000
  C   C11       1.0  0.2707774470607305  0.3140887435385622  0.8173013190642708  1.0000
  C   C12       1.0  0.7292224462463892  0.6859084194833045  0.18270353509802115  1.0000
  C   C13       1.0  0.3889404109136194  0.3552082652968096  0.9372088674681153  1.0000
  C   C14       1.0  0.6110584278358999  0.6447868215582488  0.06279547550752801  1.0000
  C   C15       1.0  0.2871699254595228  0.46234885353413097  0.946650656865046  1.0000
  C   C16       1.0  0.7128289796283623  0.537643119070708  0.05335835612090997  1.0000
  C   C17       1.0  0.1738799282342072  0.4939667978857685  0.8910249609496931  1.0000
  C   C18       1.0  0.8261178117321322  0.5060282889692829  0.1089839047107688  1.0000
  C   C19       1.0  0.16253351869927002  0.41877737877310756  0.824732077708312  1.0000
  C   C20       1.0  0.8374652758246696  0.5812197842487521  0.17527477069380398  1.0000
  C   C21       1.0  0.048895242072362094  0.4361569711407967  0.7664931819383797  1.0000
  C   C22       1.0  0.9511079254715112  0.5638412299644671  0.23351199910772655  1.0000
  C   C23       1.0  0.0451041179095384  0.351422375118517  0.7068130681491952  1.0000
  C   C24       1.0  0.9548957753975813  0.6485747879033497  0.29319094319809824  1.0000
  C   C25       1.0  0.8532946302830877  0.4958893283519572  0.7045441843732833  1.0000
  C   C26       1.0  0.14670844880963332  0.5041130250869301  0.2954601078207518  1.0000
  C   C27       1.0  0.7146126609525537  0.5637270407899138  0.6837484156613273  1.0000
  C   C28       1.0  0.2853892751314007  0.4362773888157889  0.31625784775398813  1.0000
  C   C29       1.0  0.6441968808770752  0.5399082170605709  0.6099546678121827  1.0000
  C   C30       1.0  0.35580617610285253  0.46009517446172044  0.39005340554009393  1.0000
  C   C31       1.0  0.5116395937966091  0.6075881408209511  0.5929230520302868  1.0000
  C   C32       1.0  0.4883602331721448  0.3924121364511279  0.4070864030867228  1.0000
  C   C33       1.0  0.4499024737828208  0.6966608873930227  0.6523702867855763  1.0000
  C   C34       1.0  0.5500995728650863  0.3033383517956523  0.34764066965858836  1.0000
  C   C35       1.0  0.5141632700477315  0.7206157000484268  0.7284176140314785  1.0000
  C   C36       1.0  0.48583433724186864  0.2793856153070493  0.2715920253883797  1.0000
  C   C37       1.0  0.648133681796331  0.6552527784481654  0.7416187654579645  1.0000
  C   C38       1.0  0.35186713339165004  0.3447526892409343  0.25838905928039685  1.0000
  C   C39       1.0  0.7623871328425195  0.1114309869504808  0.6566876295695749  1.0000
  C   C40       1.0  0.23761579146066936  0.8885786330722425  0.3432925618320298  1.0000
  C   C41       1.0  0.8838559655132769  0.0527045325588347  0.5758754602833634  1.0000
  C   C42       1.0  0.11615135392263909  0.9473050874638886  0.424105182308999  1.0000
  C   C43       1.0  0.9241065217612887  0.9116562652503647  0.6307696239509825  1.0000
  C   C44       1.0  0.0758996546658679  0.088355430939167  0.3692121470476622  1.0000
  C   C45       1.0  0.9603485688357054  0.1407173959743275  0.4446007469546203  1.0000
  C   C46       1.0  0.039658706374630995  0.859294300215204  0.5553815582492165  1.0000
  C   C47       1.0  0.7179375434360367  0.1412696563458269  0.9833158049959252  1.0000
  C   C48       1.0  0.2820635592182157  0.8587223162590122  0.01668753388039332  1.0000
  C   C49       1.0  0.8632779444172981  0.0672511953140855  0.9928484325394751  1.0000
  C   C50       1.0  0.13672526735216187  0.93274492962437  0.00715002900514614  1.0000
  C   C51       1.0  0.913893300410713  0.9646327756613288  0.9465851005748008  1.0000
  C   C52       1.0  0.08610771379237998  0.0353633492771337  0.053415663819443224  1.0000
  C   C53       1.0  0.950696241872997  0.1019563997124067  0.04631347048944433  1.0000
  C   C54       1.0  0.04930589322606948  0.8980386871426517  0.9536857325817608  1.0000
  N   N1        1.0  0.38472447399097837  0.1452122971182845  0.7387015646357186  1.0000
  N   N2        1.0  0.6152731996369881  0.8547859039869792  0.2612975741244128  1.0000
  N   N3        1.0  0.3806289134050047  0.2836261860167681  0.8737015429922794  1.0000
  N   N4        1.0  0.6193687823357478  0.7163709770050986  0.12630224275963542  1.0000
  N   N5        1.0  0.9303721681041637  0.5261120886071851  0.7628493452108175  1.0000
  N   N6        1.0  0.0696342073380976  0.4738902648317023  0.23715317833877958  1.0000
  N   N7        1.0  0.9201082853337255  0.3914892803040217  0.6679609980431422  1.0000
  N   N8        1.0  0.0798914974094487  0.6085130731348656  0.33204337716532006  1.0000
  O   O1        1.0  0.7595559150753955  0.2392356634491435  0.6278406085882511  1.0000
  O   O2        1.0  0.240451514924473  0.7607687661565592  0.3721455698479588  1.0000
  O   O3        1.0  0.6645133528554368  0.0257372018619151  0.7535832707132927  1.0000
  O   O4        1.0  0.33549067023093215  0.9742724181608082  0.2463982977085025  1.0000
  O   O5        1.0  0.6290345894685885  0.076140303511707  0.9682822461074283  1.0000
  O   O6        1.0  0.37097099676955025  0.9238475167595084  0.03171569029171202  1.0000
  O   O7        1.0  0.6911409765962446  0.2540023998862679  0.991389243092442  1.0000
  O   O8        1.0  0.3088547648188395  0.7459833442181392  0.008621607593546955  1.0000
  F   F1        1.0  0.3191338156061789  0.7622864440947694  0.6366467652671234  1.0000
  F   F2        1.0  0.6808617489065867  0.23770760467687777  0.3633682074197396  1.0000
