data_image0
_chemical_formula_structural       Zn2H14C22N2O9
_chemical_formula_sum              "Zn2 H14 C22 N2 O9"
_cell_length_a       9.784390085530793
_cell_length_b       11.137637372324104
_cell_length_c       16.08031615054842
_cell_angle_alpha    91.42075119432407
_cell_angle_beta     90.76978382081197
_cell_angle_gamma    92.28197669861268

_space_group_name_H-M_alt    "P 1"
_space_group_IT_number       1

loop_
  _space_group_symop_operation_xyz
  'x, y, z'

loop_
  _atom_site_type_symbol
  _atom_site_label
  _atom_site_symmetry_multiplicity
  _atom_site_fract_x
  _atom_site_fract_y
  _atom_site_fract_z
  _atom_site_occupancy
  Zn  Zn1       1.0  0.6386082240952932  0.5045709591692215  0.5034330470445596  1.0000
  Zn  Zn2       1.0  0.3574599652924775  0.4943179919083819  0.49414749409160663  1.0000
  H   H1        1.0  0.868729331488474  0.36127193751978126  0.5758898615791851  1.0000
  H   H2        1.0  0.9015081949907894  0.586746457286594  0.4871439642060623  1.0000
  H   H3        1.0  0.5904858152525706  0.3239290167720981  0.9283966440557735  1.0000
  H   H4        1.0  0.8234442083228188  0.49032004932644196  0.0027551172538906976  1.0000
  H   H5        1.0  0.6133196984474267  0.09776896821187359  0.5377270524145884  1.0000
  H   H6        1.0  0.3040210481677548  0.8843776702213614  0.5091413706674217  1.0000
  H   H7        1.0  0.12630444512555528  0.42340530741079613  0.6076071582002456  1.0000
  H   H8        1.0  0.09496323330321842  0.49487189887680927  0.434570175178692  1.0000
  H   H9        1.0  0.6191501091646144  0.6834922980961693  0.9580571361055876  1.0000
  H   H10       1.0  0.2529729912458549  0.5103176165133902  0.9593662435146373  1.0000
  H   H11       1.0  0.37041745903432854  0.31516264215520806  0.0414508157211273  1.0000
  H   H12       1.0  0.3087925006074386  0.1062474518727328  0.4888176492425913  1.0000
  H   H13       1.0  0.3987455431239795  0.6724965700415312  0.0706594643529357  1.0000
  H   H14       1.0  0.6106716315262731  0.9063918775611556  0.4692744891525251  1.0000
  C   C1        1.0  0.5055273940738446  0.7320837235917917  0.4857204702573981  1.0000
  C   C2        1.0  0.5154912468066611  0.1345292334025103  0.520481041066077  1.0000
  C   C3        1.0  0.4020868373461611  0.932098996285774  0.49922162889574656  1.0000
  C   C4        1.0  0.5023998000264811  0.47264451988012013  0.3371256275019192  1.0000
  C   C5        1.0  0.5110546055358753  0.8650279649806831  0.483528625117316  1.0000
  C   C6        1.0  0.9219919872027305  0.4373709369067385  0.5465088794990223  1.0000
  C   C7        1.0  0.07337559159145  0.4458563635859178  0.5497321665568935  1.0000
  C   C8        1.0  0.5135441812689477  0.2672295516093754  0.5173183338831464  1.0000
  C   C9        1.0  0.4719844703169115  0.5216377572127371  0.6616214200750719  1.0000
  C   C10       1.0  0.5639535862574832  0.6015282629714633  0.9769861449045862  1.0000
  C   C11       1.0  0.4410778526063481  0.5955991330392152  0.03789822809434181  1.0000
  C   C12       1.0  0.506013610965816  0.4870477653467446  0.0845222576194828  1.0000
  C   C13       1.0  0.5094370031217963  0.47058472786737576  0.24749756712828497  1.0000
  C   C14       1.0  0.4722594398289743  0.5235190133280341  0.751506557634926  1.0000
  C   C15       1.0  0.6285859434549651  0.49248952150510655  0.0213856559169017  1.0000
  C   C16       1.0  0.5479568905775595  0.40118977224526725  0.9607569473690702  1.0000
  C   C17       1.0  0.4834212194462992  0.5104734245038215  0.9148564855082386  1.0000
  C   C18       1.0  0.42519204640647956  0.3967702919697941  0.0217508198194949  1.0000
  C   C19       1.0  0.3604069812828143  0.5049629835607873  0.9779171972389307  1.0000
  C   C20       1.0  0.5117192123168124  0.4767076861646159  0.17194867104044684  1.0000
  C   C21       1.0  0.4758936180607094  0.5191845253452526  0.8272290860311388  1.0000
  C   C22       1.0  0.40460105334642554  0.0624872173936453  0.5018800061843507  1.0000
  N   N1        1.0  0.8485283056891505  0.5149080831314804  0.5119739583237434  1.0000
  N   N2        1.0  0.1473726470759402  0.47809992304040344  0.48862550049812375  1.0000
  O   O1        1.0  0.6209555102593072  0.6824801336062477  0.48020488885916285  1.0000
  O   O2        1.0  0.38975798684110424  0.6770617657199052  0.4938120107130999  1.0000
  O   O3        1.0  0.6142333506277423  0.4640761190637974  0.3777445202978313  1.0000
  O   O4        1.0  0.383814265751198  0.48466552718137007  0.3677141432184713  1.0000
  O   O5        1.0  0.629069716964942  0.3240185721048832  0.5284308307104268  1.0000
  O   O6        1.0  0.3998857658567943  0.3154884471981631  0.5030019001744747  1.0000
  O   O7        1.0  0.5878228977317336  0.5375844866377761  0.6274311879290977  1.0000
  O   O8        1.0  0.3567315609072566  0.5028617694641397  0.624455327701682  1.0000
  O   O9        1.0  0.76214475854988  0.48506081616004315  0.0499403124684719  1.0000
