data_image0
_chemical_formula_structural       Cu6H100C80N56O4
_chemical_formula_sum              "Cu6 H100 C80 N56 O4"
_cell_length_a       13.091362835237623
_cell_length_b       14.666899946517404
_cell_length_c       15.664032771219786
_cell_angle_alpha    89.99921510930547
_cell_angle_beta     92.38552281825346
_cell_angle_gamma    89.99947658023576

_space_group_name_H-M_alt    "P 1"
_space_group_IT_number       1

loop_
  _space_group_symop_operation_xyz
  'x, y, z'

loop_
  _atom_site_type_symbol
  _atom_site_label
  _atom_site_symmetry_multiplicity
  _atom_site_fract_x
  _atom_site_fract_y
  _atom_site_fract_z
  _atom_site_occupancy
  Cu  Cu1       1.0  0.5000073806649681  5.215645259699999e-06  0.5000019817282819  1.0000
  Cu  Cu2       1.0  1.1782658830799998e-05  0.5000013653905313  2.3386457002000003e-06  1.0000
  Cu  Cu3       1.0  0.5203819529614648  0.1961530649856869  0.38735550447935924  1.0000
  Cu  Cu4       1.0  0.9796460680671331  0.6961709380221422  0.11263331287231892  1.0000
  Cu  Cu5       1.0  0.47963880265393044  0.8038464610526646  0.6126473868453816  1.0000
  Cu  Cu6       1.0  0.0203678148483704  0.3038415424087759  0.8873661351250421  1.0000
  H   H1        1.0  0.8929759863673183  0.14740294787529953  0.8611371169971493  1.0000
  H   H2        1.0  0.6069989311756956  0.6473914214523192  0.6388901064904147  1.0000
  H   H3        1.0  0.1070233528001197  0.852614987025916  0.13886882183425095  1.0000
  H   H4        1.0  0.39300039362987604  0.35259310484736517  0.3611215776894455  1.0000
  H   H5        1.0  0.7672839004826102  0.08778978598643052  0.747290752133047  1.0000
  H   H6        1.0  0.7327115635072801  0.5877769342079731  0.7527309627816339  1.0000
  H   H7        1.0  0.23272539687214788  0.912229512542396  0.2527078898023661  1.0000
  H   H8        1.0  0.2672938936335285  0.4122096375338842  0.2472745614683519  1.0000
  H   H9        1.0  0.8174010980452593  0.335198048305152  0.6055714952446396  1.0000
  H   H10       1.0  0.6826574919449727  0.8352114830087699  0.8944180788502438  1.0000
  H   H11       1.0  0.1826196655646726  0.6648171593253025  0.39442820423884234  1.0000
  H   H12       1.0  0.31735330715126503  0.1647771341039146  0.10559147108590852  1.0000
  H   H13       1.0  0.942447087643437  0.3829715994330201  0.723375423445461  1.0000
  H   H14       1.0  0.5575972062239032  0.882989139401609  0.7766181239597288  1.0000
  H   H15       1.0  0.0575568224771459  0.617051108053012  0.2766370664994399  1.0000
  H   H16       1.0  0.4423998121059611  0.11699129602664733  0.22339858319288913  1.0000
  H   H17       1.0  0.1463885724199869  0.3177189440070123  0.7385938956476396  1.0000
  H   H18       1.0  0.3536110321776889  0.8177288452841793  0.7614115314845338  1.0000
  H   H19       1.0  0.8536253396325363  0.6822846730125177  0.26139406215215644  1.0000
  H   H20       1.0  0.6463829812207251  0.18228227164151892  0.23858399821660473  1.0000
  H   H21       1.0  0.2680304391491219  0.22050011108913029  0.6607591020595367  1.0000
  H   H22       1.0  0.23197328538159923  0.7204962255504557  0.8392477198735977  1.0000
  H   H23       1.0  0.7319765873943779  0.7794946424508283  0.3392305193373063  1.0000
  H   H24       1.0  0.768004690838275  0.27950875523010416  0.1607402012019606  1.0000
  H   H25       1.0  0.2437105435578673  0.019634895483250103  0.8607071476475527  1.0000
  H   H26       1.0  0.25627782445292974  0.5196582851006966  0.6392882767549255  1.0000
  H   H27       1.0  0.7562796456677958  0.9803653125369465  0.13928888074862306  1.0000
  H   H28       1.0  0.7437146663668274  0.48035215004296106  0.36070464367067967  1.0000
  H   H29       1.0  0.11909037185331071  0.12384233376187134  0.9292476387700435  1.0000
  H   H30       1.0  0.3808953419120513  0.6238725318485693  0.5707412477630032  1.0000
  H   H31       1.0  0.8809089932116335  0.876168101333299  0.07074808654990512  1.0000
  H   H32       1.0  0.6191009796190557  0.3761351760725093  0.429248620667302  1.0000
  H   H33       1.0  0.42161549150206656  0.2596209128169988  0.5672351751835978  1.0000
  H   H34       1.0  0.0784398609589871  0.759666678544427  0.9327462198273084  1.0000
  H   H35       1.0  0.5783999449797008  0.7403404321269846  0.4327547538275881  1.0000
  H   H36       1.0  0.921554910528336  0.24033898390059252  0.06725189124495763  1.0000
  H   H37       1.0  0.46623057943027385  0.33512060855083803  0.7614695531314767  1.0000
  H   H38       1.0  0.03377424336968459  0.8351252637688519  0.7385134978472083  1.0000
  H   H39       1.0  0.533751222742211  0.6648652816170468  0.2385172310994293  1.0000
  H   H40       1.0  0.966225116899281  0.1648756260095965  0.26148414257839653  1.0000
  H   H41       1.0  0.5864855321447564  0.2888958203332804  0.7351465652096182  1.0000
  H   H42       1.0  0.9135276453105162  0.7889017749773543  0.7648604553385568  1.0000
  H   H43       1.0  0.41350386840276343  0.7110887060514699  0.26485901055849587  1.0000
  H   H44       1.0  0.0864701939846597  0.2111004784457293  0.23513393745045624  1.0000
  H   H45       1.0  0.47123830376617803  0.2346137981183247  0.696595134650231  1.0000
  H   H46       1.0  0.028780566691040104  0.7346270892438725  0.8034082297335774  1.0000
  H   H47       1.0  0.52875722107364  0.765365955611891  0.3034074729707968  1.0000
  H   H48       1.0  0.971215738716964  0.265373800557164  0.19658802221730556  1.0000
  H   H49       1.0  0.5349494769253057  0.4850803048059475  0.6873543786476903  1.0000
  H   H50       1.0  0.965055567748841  0.9850933227488314  0.8126000382727485  1.0000
  H   H51       1.0  0.4650423077085151  0.5149008127935204  0.3126155335143466  1.0000
  H   H52       1.0  0.0349438216161815  0.0149062034989456  0.1873861119057949  1.0000
  H   H53       1.0  0.5556787289825991  0.4751402885113193  0.5754921027336054  1.0000
  H   H54       1.0  0.9443256385814606  0.975178427512468  0.9244707157660346  1.0000
  H   H55       1.0  0.44431839450862043  0.5248183293854894  0.4244831119716609  1.0000
  H   H56       1.0  0.0556714490889405  0.0248292804099677  0.07551854226161941  1.0000
  H   H57       1.0  0.6453082780509263  0.42652649420983124  0.6529079970905445  1.0000
  H   H58       1.0  0.8547065464635963  0.9265378595062117  0.8470609331729053  1.0000
  H   H59       1.0  0.35469035174319435  0.5734539414498129  0.3470762102263906  1.0000
  H   H60       1.0  0.1452935977135894  0.0734643939396022  0.15292907501790157  1.0000
  H   H61       1.0  0.2572349488386081  0.9516542541341478  0.06457130967504551  1.0000
  H   H62       1.0  0.24277774314934672  0.45164273246779635  0.43543082484188755  1.0000
  H   H63       1.0  0.7427498774082864  0.048346635683906  0.9354289915352328  1.0000
  H   H64       1.0  0.7571994443774983  0.5483492939066679  0.5645666435876253  1.0000
  H   H65       1.0  0.34801397568014647  0.016064617915205304  0.010297133890283302  1.0000
  H   H66       1.0  0.1520035009651366  0.5160639522674302  0.48969989682479564  1.0000
  H   H67       1.0  0.6519639714548475  0.9839396809740182  0.9897022774458296  1.0000
  H   H68       1.0  0.8479721623484053  0.4839308013570047  0.5102956006542386  1.0000
  H   H69       1.0  0.2895193889297616  0.8175235883916872  0.9877505740670929  1.0000
  H   H70       1.0  0.21049013241523806  0.3175239798793612  0.5122647942028921  1.0000
  H   H71       1.0  0.7104623905326122  0.1824779832796253  0.012245146926169116  1.0000
  H   H72       1.0  0.7894824566598261  0.6824680464823132  0.4877369749901207  1.0000
  H   H73       1.0  0.334795906301764  0.8933061828766571  0.9092371269184556  1.0000
  H   H74       1.0  0.16521432772152883  0.39331192918507446  0.5907728287220664  1.0000
  H   H75       1.0  0.6651873957280969  0.1066981159987179  0.09076120333685372  1.0000
  H   H76       1.0  0.8347636194544137  0.6066848698234397  0.4092265826635357  1.0000
  H   H77       1.0  0.46414395956959  0.7633397715089955  0.9710688157511032  1.0000
  H   H78       1.0  0.035866918028745004  0.2633461111971299  0.5289472954512818  1.0000
  H   H79       1.0  0.5358355279539352  0.2366590729475675  0.028926183077892607  1.0000
  H   H80       1.0  0.9641064339125833  0.7366534150372743  0.4710551399847064  1.0000
  H   H81       1.0  0.5114254943426815  0.8768823487869427  0.9669734199559843  1.0000
  H   H82       1.0  0.9885836543842076  0.3768890384952854  0.5330361577950954  1.0000
  H   H83       1.0  0.48855857063163916  0.1231151320070722  0.033025576636760014  1.0000
  H   H84       1.0  0.0113950589310292  0.6231077605145857  0.4669626431878486  1.0000
  H   H85       1.0  0.543290035556268  0.8314336982746725  0.11865988301661905  1.0000
  H   H86       1.0  0.9567165594008814  0.3314348651474646  0.3813545099645169  1.0000
  H   H87       1.0  0.45668791486663457  0.16856037351382017  0.8813382516918583  1.0000
  H   H88       1.0  0.04325525864955891  0.6685639792722283  0.6186497846288433  1.0000
  H   H89       1.0  0.41853243914320604  0.7834206382029195  0.12040111631215213  1.0000
  H   H90       1.0  0.0814751884378495  0.2834153362581233  0.3796112852417721  1.0000
  H   H91       1.0  0.5814417047865136  0.2165802517221778  0.8795904951512485  1.0000
  H   H92       1.0  0.9184905215662695  0.7165725992940042  0.6203895941265644  1.0000
  H   H93       1.0  0.38561524744585535  0.9338754615570082  0.17741645483296514  1.0000
  H   H94       1.0  0.114397632217468  0.4338693632227191  0.3225884676529774  1.0000
  H   H95       1.0  0.6143749369019176  0.0661302009078923  0.8225814885698954  1.0000
  H   H96       1.0  0.8855833763654887  0.5661124360204538  0.6774097789160793  1.0000
  H   H97       1.0  0.4770232522573251  0.9848590690773875  0.11296487980935412  1.0000
  H   H98       1.0  0.0229898318641091  0.48485686107746073  0.387040674495168  1.0000
  H   H99       1.0  0.5229646579540342  0.015139093572742002  0.8870253196375801  1.0000
  H   H100      1.0  0.9769896573052322  0.5151365289250762  0.6129536860222586  1.0000
  C   C1        1.0  0.8743387012945122  0.184921948683666  0.8022827569934992  1.0000
  C   C2        1.0  0.6256503534187061  0.684914181622517  0.6977362037915429  1.0000
  C   C3        1.0  0.1256591120361463  0.8151000770775312  0.19772184922599226  1.0000
  C   C4        1.0  0.3743459229676986  0.31507443556243697  0.3022715384963632  1.0000
  C   C5        1.0  0.8047897109277286  0.15341159673289442  0.740130857576098  1.0000
  C   C6        1.0  0.6952126977465839  0.6534037177399057  0.7598838873130875  1.0000
  C   C7        1.0  0.19521804603849793  0.8466131562285925  0.2598721968664394  1.0000
  C   C8        1.0  0.30479658201424087  0.3465821721780529  0.24012177666590875  1.0000
  C   C9        1.0  0.7828668552900666  0.2073213587312281  0.6676935793490558  1.0000
  C   C10       1.0  0.7171548761033576  0.7073231497845145  0.8323077753347905  1.0000
  C   C11       1.0  0.2171485453113178  0.7926999851557782  0.3323103929125396  1.0000
  C   C12       1.0  0.28285746335163964  0.2926654673542117  0.16769736205824873  1.0000
  C   C13       1.0  0.832570880386406  0.2915080496191181  0.660842178470702  1.0000
  C   C14       1.0  0.6674606380938927  0.7915162807215027  0.8391571797500179  1.0000
  C   C15       1.0  0.167435344331011  0.7085112488809601  0.3391620968131336  1.0000
  C   C16       1.0  0.3325463367886385  0.20846892736638983  0.16085286883167532  1.0000
  C   C17       1.0  0.9018286052954068  0.3181680077196135  0.7254030236903901  1.0000
  C   C18       1.0  0.5981949638594698  0.8181763836340892  0.7746008100476162  1.0000
  C   C19       1.0  0.0981737789846733  0.6818594724337432  0.274608133638104  1.0000
  C   C20       1.0  0.4018012931605881  0.18180746084350116  0.22541459244249046  1.0000
  C   C21       1.0  0.7088106817627847  0.17647990050841858  0.6024811163515624  1.0000
  C   C22       1.0  0.7912335899063051  0.6764910434889801  0.8975086887151564  1.0000
  C   C23       1.0  0.2912185061510186  0.8235346253202563  0.3975131454023072  1.0000
  C   C24       1.0  0.20878947062089281  0.32350302811340725  0.10248981804736702  1.0000
  C   C25       1.0  0.16937689682663407  0.25093632362059987  0.7631858737912938  1.0000
  C   C26       1.0  0.3306234355259149  0.7509440446464383  0.7368210729873541  1.0000
  C   C27       1.0  0.8306339425885483  0.7490672933701819  0.23680771735692474  1.0000
  C   C28       1.0  0.6693682939914823  0.24906843593187492  0.26317054278473523  1.0000
  C   C29       1.0  0.2380676738765146  0.19748743168463534  0.7208540469381504  1.0000
  C   C30       1.0  0.2619370680757811  0.6974923641377019  0.7791524682167295  1.0000
  C   C31       1.0  0.761938580033771  0.8025127762940019  0.2791387382156004  1.0000
  C   C32       1.0  0.738053140475273  0.302520116470575  0.22083589992776356  1.0000
  C   C33       1.0  0.26706066579061627  0.11257477562283212  0.7553291851901635  1.0000
  C   C34       1.0  0.23294959711805058  0.6125818122030042  0.7446760647641997  1.0000
  C   C35       1.0  0.7329463429467183  0.8874254323244841  0.24466745799383466  1.0000
  C   C36       1.0  0.7670451953404864  0.3874306683760623  0.25531374774481463  1.0000
  C   C37       1.0  0.22419444275494976  0.08519232548987084  0.8318096370566369  1.0000
  C   C38       1.0  0.2758016109899799  0.5852089969876462  0.6681884214053472  1.0000
  C   C39       1.0  0.7758049239707034  0.9148099279219225  0.16818544996974086  1.0000
  C   C40       1.0  0.7241924185724998  0.41480143817738474  0.33180072482470996  1.0000
  C   C41       1.0  0.1554442471167903  0.1426079999882361  0.8704218248620282  1.0000
  C   C42       1.0  0.3445458295149493  0.6426260415184047  0.6295746419536885  1.0000
  C   C43       1.0  0.844556645400978  0.8573983442516209  0.12957459472227137  1.0000
  C   C44       1.0  0.6554481952031497  0.3573837118252925  0.37041641932354014  1.0000
  C   C45       1.0  0.3373971211290864  0.0554625490126739  0.7098776312975945  1.0000
  C   C46       1.0  0.16261912045333565  0.5554633556770059  0.7901272912880303  1.0000
  C   C47       1.0  0.6626098778897074  0.9445417497506766  0.2901228419447649  1.0000
  C   C48       1.0  0.837379484940172  0.4445463976281446  0.20986649104883537  1.0000
  C   C49       1.0  0.4591854227680657  0.3268749653682265  0.56071729737198  1.0000
  C   C50       1.0  0.0408515998742018  0.8269141231085018  0.9392670358770163  1.0000
  C   C51       1.0  0.5408246588151044  0.6730870613969486  0.43927371271551874  1.0000
  C   C52       1.0  0.9591439361475479  0.17308949391119197  0.06073110315364972  1.0000
  C   C53       1.0  0.507506123205161  0.3005634059140973  0.7109228040243639  1.0000
  C   C54       1.0  0.992510012357684  0.8005751818525938  0.7890733223873669  1.0000
  C   C55       1.0  0.4924878855089645  0.6994177114747585  0.2890746409173915  1.0000
  C   C56       1.0  0.007487052725473099  0.19942570793112682  0.21092487255108955  1.0000
  C   C57       1.0  0.5640101276743935  0.4405176253240627  0.6373303153012984  1.0000
  C   C58       1.0  0.9360045439716487  0.9405410558599956  0.8626384302511598  1.0000
  C   C59       1.0  0.4359885102482934  0.5594539468635276  0.36265070033632457  1.0000
  C   C60       1.0  0.06399559857833031  0.0594632430031652  0.13735221627370464  1.0000
  C   C61       1.0  0.3349808559774132  0.9497245970726028  0.040836227281957314  1.0000
  C   C62       1.0  0.16503337477684712  0.44972085984083776  0.4591704569706892  1.0000
  C   C63       1.0  0.6650024428278273  0.0502783381787566  0.9591633796774562  1.0000
  C   C64       1.0  0.8349430482230173  0.5502718483442736  0.5408269835094259  1.0000
  C   C65       1.0  0.34624585320164414  0.870990775408309  0.9759721925594323  1.0000
  C   C66       1.0  0.153764621317606  0.37099418291314384  0.5240393342727927  1.0000
  C   C67       1.0  0.6537359197928724  0.1290114780516731  0.024026081819563713  1.0000
  C   C68       1.0  0.8462133242571994  0.6289998888613582  0.4759607154783582  1.0000
  C   C69       1.0  0.4538297755435607  0.8327708021696483  0.995609654303401  1.0000
  C   C70       1.0  0.04617882281850431  0.3327746901391535  0.5044022930537722  1.0000
  C   C71       1.0  0.5461489474492681  0.16722940590491225  0.004385316571692505  1.0000
  C   C72       1.0  0.9537991195093413  0.6672221088553628  0.49559903337450373  1.0000
  C   C73       1.0  0.46411702757683315  0.8385829557372659  0.09329973297341353  1.0000
  C   C74       1.0  0.0358938201491625  0.3385817184373465  0.4067120803388492  1.0000
  C   C75       1.0  0.5358624550911486  0.16141725231997842  0.9066971808892605  1.0000
  C   C76       1.0  0.9640802979724157  0.6614103079176985  0.5932897447439702  1.0000
  C   C77       1.0  0.41724842267099393  0.9321119650302236  0.11353887910696872  1.0000
  C   C78       1.0  0.0827659988159013  0.4321092794043011  0.38646867590814793  1.0000
  C   C79       1.0  0.5827364116560716  0.06788892481116453  0.8864582303655129  1.0000
  C   C80       1.0  0.9172104274309234  0.567880701560796  0.6135274878948423  1.0000
  N   N1        1.0  0.9224475264114816  0.2655387108830851  0.794332468306344  1.0000
  N   N2        1.0  0.5775582399273276  0.7655387184091538  0.7056828795781058  1.0000
  N   N3        1.0  0.07755485951813772  0.734482633008902  0.20567805071507195  1.0000
  N   N4        1.0  0.4224387880763985  0.2344458078911345  0.294329997462171  1.0000
  N   N5        1.0  0.6788282216951629  0.22504089888111883  0.5324791039329855  1.0000
  N   N6        1.0  0.8212216503241407  0.7250569093870284  0.9675045387065497  1.0000
  N   N7        1.0  0.32120249529121747  0.7749688542895682  0.4675152137421749  1.0000
  N   N8        1.0  0.17879834724702448  0.27493988944395653  0.032495771301057616  1.0000
  N   N9        1.0  0.609673137446677  0.1725641221352845  0.4929687828632227  1.0000
  N   N10       1.0  0.8903803898758013  0.6725801766829421  0.0070136077986191  1.0000
  N   N11       1.0  0.39036446673922154  0.8274408583728956  0.5070232329573019  1.0000
  N   N12       1.0  0.10964113511467839  0.32741866755876714  0.9929873964328454  1.0000
  N   N13       1.0  0.5989254986803232  0.09549915918602642  0.5371282725482802  1.0000
  N   N14       1.0  0.9011204235454784  0.5955111790328119  0.9628619907574036  1.0000
  N   N15       1.0  0.4011098038444629  0.904507866730768  0.4628668511618344  1.0000
  N   N16       1.0  0.0989064482597044  0.4044876651717004  0.037141124131046914  1.0000
  N   N17       1.0  0.6596397926077983  0.09562317727167619  0.6062205986308699  1.0000
  N   N18       1.0  0.8404023024330414  0.5956319297885384  0.8937708000304101  1.0000
  N   N19       1.0  0.3403909211130056  0.9043927121557118  0.39377499569891955  1.0000
  N   N20       1.0  0.1596276323281671  0.40436418718738326  0.10623051161296362  1.0000
  N   N21       1.0  0.1287903853606807  0.22415455771491827  0.8367663757996342  1.0000
  N   N22       1.0  0.3712048975003839  0.7241657534032415  0.663236898677056  1.0000
  N   N23       1.0  0.8712158701172329  0.7758545137637685  0.16322577094806695  1.0000
  N   N24       1.0  0.6287906514273017  0.2758419544978139  0.336756133546146  1.0000
  N   N25       1.0  0.3788845805141605  0.08224158255602279  0.6364979617536051  1.0000
  N   N26       1.0  0.1211336622038743  0.5822368794430661  0.8635066913184988  1.0000
  N   N27       1.0  0.6211270040169765  0.9177647616047934  0.3635033174922171  1.0000
  N   N28       1.0  0.8788718222940942  0.4177708284055868  0.13648798088353695  1.0000
  N   N29       1.0  0.4326445714778302  0.010787441949922504  0.6134532393987515  1.0000
  N   N30       1.0  0.0673813274942603  0.5107801112335582  0.8865545231688616  1.0000
  N   N31       1.0  0.5673738808343529  0.9892189021437404  0.3865533981316532  1.0000
  N   N32       1.0  0.9326371329092639  0.4892241874614243  0.11344892263724665  1.0000
  N   N33       1.0  0.4257327350585527  0.9428735967535644  0.6696897896494749  1.0000
  N   N34       1.0  0.0742945481711246  0.4428697568119234  0.8303176012895579  1.0000
  N   N35       1.0  0.5742826624001155  0.057131383748007615  0.3303154594152106  1.0000
  N   N36       1.0  0.9257246702915225  0.5571345418610818  0.16968842585168895  1.0000
  N   N37       1.0  0.3659435651983785  0.9696377333736805  0.7316302315352204  1.0000
  N   N38       1.0  0.1340773159720143  0.4696404505655635  0.7683740292231109  1.0000
  N   N39       1.0  0.6340641967350891  0.0303652017670117  0.2683709080085991  1.0000
  N   N40       1.0  0.8659281572099928  0.5303679390577685  0.23162511140733247  1.0000
  N   N41       1.0  0.40740836920268464  0.1305421027627247  0.4446712296280425  1.0000
  N   N42       1.0  0.0926322863919466  0.6305394165461493  0.05533922830249341  1.0000
  N   N43       1.0  0.5926383366561936  0.8694417414682363  0.5553498473108933  1.0000
  N   N44       1.0  0.9073907449423828  0.369473745577679  0.9446707685901291  1.0000
  N   N45       1.0  0.318528798554901  0.1356330121250977  0.42084215105850137  1.0000
  N   N46       1.0  0.1815001883586191  0.635591754572573  0.07922527205202813  1.0000
  N   N47       1.0  0.681523900474133  0.8643869675135674  0.5792276636156546  1.0000
  N   N48       1.0  0.8185189880834186  0.36441322578643565  0.920797352121241  1.0000
  N   N49       1.0  0.2319882051638302  0.13978981404387983  0.4000020462500516  1.0000
  N   N50       1.0  0.2680191731069926  0.6397189114437722  0.10012645945756303  1.0000
  N   N51       1.0  0.7680330512336442  0.8602697102761566  0.6001049232757512  1.0000
  N   N52       1.0  0.7319969129734573  0.3602765235324271  0.8999088199502555  1.0000
  N   N53       1.0  0.506988505486774  0.3556062791125002  0.6337833727796325  1.0000
  N   N54       1.0  0.9930370015761623  0.855635330210575  0.8661989851399811  1.0000
  N   N55       1.0  0.49301623086049773  0.6443625657679064  0.3662048882583378  1.0000
  N   N56       1.0  0.006961602227377699  0.1443696504385485  0.13379543557593376  1.0000
  O   O1        1.0  0.4573670361979437  0.368905492562675  0.4915353843114759  1.0000
  O   O2        1.0  0.0426665031096789  0.8689441256408941  0.008442396170821102  1.0000
  O   O3        1.0  0.5426369405225698  0.6310544888396593  0.5084509337973984  1.0000
  O   O4        1.0  0.957323682869017  0.13105880959931682  0.9915549089024724  1.0000
