data_image0
_chemical_formula_structural       V4Ni2H34C36N6O14
_chemical_formula_sum              "V4 Ni2 H34 C36 N6 O14"
_cell_length_a       7.755481249729298
_cell_length_b       11.36226837322081
_cell_length_c       13.501444743764548
_cell_angle_alpha    92.19016595746615
_cell_angle_beta     105.92127010868873
_cell_angle_gamma    109.54520716707275

_space_group_name_H-M_alt    "P 1"
_space_group_IT_number       1

loop_
  _space_group_symop_operation_xyz
  'x, y, z'

loop_
  _atom_site_type_symbol
  _atom_site_label
  _atom_site_symmetry_multiplicity
  _atom_site_fract_x
  _atom_site_fract_y
  _atom_site_fract_z
  _atom_site_occupancy
  V   V1        1.0  0.0919244703980055  0.31405814331331067  0.016317874130720587  1.0000
  V   V2        1.0  0.9080884300120075  0.6859244680456129  0.9836833905225647  1.0000
  V   V3        1.0  0.22465735517820912  0.5727842769848195  0.1411589563495426  1.0000
  V   V4        1.0  0.7753440986161307  0.4271967339349771  0.85884117884239  1.0000
  Ni  Ni1       1.0  0.49998365681141616  0.499992827645144  0.9999925482409824  1.0000
  Ni  Ni2       1.0  0.9999951299935359  0.9999919122285589  1.0090585718129496e-06  1.0000
  H   H1        1.0  0.8678666888957168  0.11434769048262441  0.15250942519284655  1.0000
  H   H2        1.0  0.13212097689795124  0.8856387837366739  0.8474926305862882  1.0000
  H   H3        1.0  0.8479895079007349  0.09706790709135048  0.3317466813583394  1.0000
  H   H4        1.0  0.1519980973768823  0.9029183898749764  0.6682590598232496  1.0000
  H   H5        1.0  0.15883462245222532  0.8404876624948158  0.35084681684970326  1.0000
  H   H6        1.0  0.8411554120703002  0.159504308535233  0.6491589178378734  1.0000
  H   H7        1.0  0.1613458736860805  0.8669651214144094  0.17092988348071  1.0000
  H   H8        1.0  0.8386490050267597  0.13302243518188564  0.8290785441121642  1.0000
  H   H9        1.0  0.08783985154912687  0.8962183570935166  0.5043257360626329  1.0000
  H   H10       1.0  0.9121412254911121  0.10376838252759057  0.49568124763894866  1.0000
  H   H11       1.0  0.35140852668755673  0.34039855537219665  0.7873858806885752  1.0000
  H   H12       1.0  0.648575245554639  0.6596073579745861  0.21258863844552423  1.0000
  H   H13       1.0  0.16253286685687124  0.34329920345233933  0.6079287646873228  1.0000
  H   H14       1.0  0.8374693725239625  0.6567277900740862  0.39205290826608774  1.0000
  H   H15       1.0  0.0828414678373263  0.6743501808610901  0.7259917783265807  1.0000
  H   H16       1.0  0.9171776381024087  0.3256752046471476  0.274007965051652  1.0000
  H   H17       1.0  0.2863624677492138  0.6610875326587686  0.9004467043306974  1.0000
  H   H18       1.0  0.713639502537134  0.33891347155750395  0.099559223578197  1.0000
  H   H19       1.0  0.9227386079683697  0.5909874798658237  0.545600130819139  1.0000
  H   H20       1.0  0.07731079996955258  0.40905848321774846  0.4543944811948536  1.0000
  H   H21       1.0  0.3427029396614146  0.0582462657065506  0.9794625980755998  1.0000
  H   H22       1.0  0.6572927795062355  0.9417370319551353  0.020539760245640092  1.0000
  H   H23       1.0  0.32653913637243903  0.184192451659321  0.02223619878028422  1.0000
  H   H24       1.0  0.6734556665836988  0.8157824025852206  0.9777684481775639  1.0000
  H   H25       1.0  0.5917184981987517  0.10042760389426054  0.5260227636344297  1.0000
  H   H26       1.0  0.4082859360734116  0.8995729359134114  0.47397684497998693  1.0000
  H   H27       1.0  0.5627660634613393  0.2990101600327079  0.5836731971644512  1.0000
  H   H28       1.0  0.4372560185636301  0.7010033001422113  0.4163299572619438  1.0000
  H   H29       1.0  0.3876243495071918  0.3467151698968038  0.2587971852875839  1.0000
  H   H30       1.0  0.6123778879909236  0.6532833767701121  0.7412026987813224  1.0000
  H   H31       1.0  0.4403792275783546  0.14902543828688414  0.21601598905422045  1.0000
  H   H32       1.0  0.559604448151738  0.850967471706241  0.7839806690264696  1.0000
  H   H33       1.0  0.4066603546027066  0.5088874927799123  0.3849918487909605  1.0000
  H   H34       1.0  0.5933587507094629  0.49112841044181715  0.6150139649591042  1.0000
  C   C1        1.0  0.9295191334537307  0.0541884311516867  0.19986371017892426  1.0000
  C   C2        1.0  0.07048471484460336  0.9458043923041471  0.800142731319454  1.0000
  C   C3        1.0  0.9239005175309671  0.04654312430125879  0.30098151376272864  1.0000
  C   C4        1.0  0.07610014579012857  0.9534485321796139  0.6990258439378679  1.0000
  C   C5        1.0  0.011608194081673842  0.9712419080814524  0.3609430045811664  1.0000
  C   C6        1.0  0.9883898817116261  0.028746850940393594  0.6390637697290132  1.0000
  C   C7        1.0  0.0927880473067118  0.9031331538455445  0.310691746845805  1.0000
  C   C8        1.0  0.9072231728212614  0.09686745766909872  0.6893155859789317  1.0000
  C   C9        1.0  0.09396963898159762  0.9166927279235536  0.20921803923509688  1.0000
  C   C10       1.0  0.90604447313671  0.08330519239012088  0.7907917938294134  1.0000
  C   C11       1.0  0.025539535557271374  0.9639623991224153  0.4698843504827508  1.0000
  C   C12       1.0  0.9744339613888968  0.03601294241811098  0.5301199987710207  1.0000
  C   C13       1.0  0.2915793482502948  0.41397076852145887  0.7700506498027269  1.0000
  C   C14       1.0  0.7084054389113917  0.586037396922393  0.2299360279124798  1.0000
  C   C15       1.0  0.18496094995918352  0.4166097746180667  0.669536823892969  1.0000
  C   C16       1.0  0.8150341631072421  0.5834099097606966  0.330453661544894  1.0000
  C   C17       1.0  0.10867236804783423  0.5126266025043265  0.6490029571778495  1.0000
  C   C18       1.0  0.8913456277154594  0.4874024921261863  0.35099462582220303  1.0000
  C   C19       1.0  0.14304874540194115  0.6000347108420668  0.7352245320882673  1.0000
  C   C20       1.0  0.8569675179014524  0.39999027020709826  0.2647799346590532  1.0000
  C   C21       1.0  0.25573450526755426  0.5933704387492611  0.8328814327139542  1.0000
  C   C22       1.0  0.7442637437357077  0.4066407885155813  0.16711715521549314  1.0000
  C   C23       1.0  0.002434575365334838  0.5276432007714504  0.5458649742709625  1.0000
  C   C24       1.0  0.997602688544326  0.4723901191041263  0.45412770140026043  1.0000
  C   C25       1.0  0.552922069372208  0.15955140100043508  0.4684311453986966  1.0000
  C   C26       1.0  0.44707605703023007  0.8404532269343787  0.5315707117766806  1.0000
  C   C27       1.0  0.533424039852939  0.27067888634522314  0.5007519673181166  1.0000
  C   C28       1.0  0.46658702261972695  0.7293339840606164  0.49924870525035914  1.0000
  C   C29       1.0  0.47796248540081626  0.34451376907906445  0.4256066563921764  1.0000
  C   C30       1.0  0.5220451475205293  0.6554942179782584  0.5743954004985243  1.0000
  C   C31       1.0  0.43678106549513984  0.2959520145935528  0.3209113469360219  1.0000
  C   C32       1.0  0.5632186239222606  0.7040562306143059  0.6790939456189735  1.0000
  C   C33       1.0  0.46584943375626864  0.1849586205224156  0.2969655198689907  1.0000
  C   C34       1.0  0.5341355861898477  0.8150405060954852  0.7030376691093424  1.0000
  C   C35       1.0  0.46747450594675394  0.46734683885998146  0.4513996187268816  1.0000
  C   C36       1.0  0.532533101199455  0.5326548324720618  0.5485998107658148  1.0000
  N   N1        1.0  0.014568585790747803  0.991532073893424  0.15367758532939751  1.0000
  N   N2        1.0  0.9854407420257161  0.008460955820467592  0.8463319397991784  1.0000
  N   N3        1.0  0.33093847449747926  0.5024424158654239  0.8508362731906518  1.0000
  N   N4        1.0  0.6690406621324173  0.49755880218796733  0.14915353846225093  1.0000
  N   N5        1.0  0.525798089852806  0.11678735525072168  0.3688165894105638  1.0000
  N   N6        1.0  0.4741820958099151  0.8832004941409292  0.6311851383948055  1.0000
  O   O1        1.0  0.36205650793364424  0.5900614993490476  0.06203311239394787  1.0000
  O   O2        1.0  0.6379354300624415  0.4099413263947511  0.9379595209784741  1.0000
  O   O3        1.0  0.3088237407692418  0.3229347313240467  0.006472239703654709  1.0000
  O   O4        1.0  0.6911617620501288  0.6770468487445739  0.993513606798672  1.0000
  O   O5        1.0  0.9672660075722989  0.36817003492901534  0.9080401933999698  1.0000
  O   O6        1.0  0.032707831401189776  0.6318187888763092  0.09195172071802202  1.0000
  O   O7        1.0  0.963033619856475  0.163084535595388  0.01559824608928309  1.0000
  O   O8        1.0  0.03697563377200898  0.8369020365908498  0.9844115999632522  1.0000
  O   O9        1.0  0.12351571475905833  0.4019924650769298  0.1370570141855296  1.0000
  O   O10       1.0  0.8765062052180139  0.5980017997679922  0.862943417610282  1.0000
  O   O11       1.0  0.3542343741947036  0.641625271166184  0.2592644154331154  1.0000
  O   O12       1.0  0.6457562205265078  0.35836810049043066  0.740731858972488  1.0000
  O   O13       1.0  0.3090149673260143  0.09422797045370149  0.0347693808904737  1.0000
  O   O14       1.0  0.6909656801409837  0.9057547511356744  0.9652246817178636  1.0000
