data_image0
_chemical_formula_structural       Al4H32C40O20
_chemical_formula_sum              "Al4 H32 C40 O20"
_cell_length_a       6.679824016154576
_cell_length_b       16.25235741569447
_cell_length_c       17.307262255574514
_cell_angle_alpha    80.230226086237
_cell_angle_beta     89.99968487100973
_cell_angle_gamma    89.99950901061436

_space_group_name_H-M_alt    "P 1"
_space_group_IT_number       1

loop_
  _space_group_symop_operation_xyz
  'x, y, z'

loop_
  _atom_site_type_symbol
  _atom_site_label
  _atom_site_symmetry_multiplicity
  _atom_site_fract_x
  _atom_site_fract_y
  _atom_site_fract_z
  _atom_site_occupancy
  Al  Al1       1.0  0.1269888452828241  0.5026800971834502  0.5016222106389563  1.0000
  Al  Al2       1.0  0.6269858103518403  0.49732133887080454  0.4983735217310965  1.0000
  Al  Al3       1.0  0.6148288999819015  0.997759496899171  0.9977072784724468  1.0000
  Al  Al4       1.0  0.11483224085372258  0.0022473983926473997  0.0022778724420291006  1.0000
  H   H1        1.0  0.026329258150738596  0.19190340057268435  0.7950441602002413  1.0000
  H   H2        1.0  0.5263032663053407  0.8081080654212656  0.2049579106666073  1.0000
  H   H3        1.0  0.5729807300288456  0.30259533645087794  0.6866676944698469  1.0000
  H   H4        1.0  0.0729731158808846  0.6974068122911774  0.3133186435265429  1.0000
  H   H5        1.0  0.030711369583229998  0.3079226796203257  0.7076476984649673  1.0000
  H   H6        1.0  0.5307088119714223  0.6920847798838423  0.29233858894611586  1.0000
  H   H7        1.0  0.6236064272015087  0.2965739379821173  0.3659491789173259  1.0000
  H   H8        1.0  0.12360457723864468  0.7034291122324418  0.6340406854609669  1.0000
  H   H9        1.0  0.1869660275309215  0.41380105213711  0.29865454012799836  1.0000
  H   H10       1.0  0.686984842425133  0.5862122041901968  0.7013352803326995  1.0000
  H   H11       1.0  0.22878071449436987  0.3253600667583497  0.19508492548002468  1.0000
  H   H12       1.0  0.728811580149248  0.6746715662400645  0.8048889777788233  1.0000
  H   H13       1.0  0.11481313553513668  0.2101241358206351  0.13082239988496266  1.0000
  H   H14       1.0  0.6148150694377676  0.7899148641903436  0.8691443854751313  1.0000
  H   H15       1.0  0.565802806790927  0.19374878763488818  0.8046314234555466  1.0000
  H   H16       1.0  0.0657868879857517  0.8062590748692243  0.1953572166729103  1.0000
  H   H17       1.0  0.25729772018624425  0.10206722165597165  0.25359467009440095  1.0000
  H   H18       1.0  0.40478938055237274  0.034764742278909494  0.32277436543577664  1.0000
  H   H19       1.0  0.19996545642435135  0.09037829709234298  0.3545237979662375  1.0000
  H   H20       1.0  0.5197972024574894  0.15779431540497055  0.3822537854635684  1.0000
  H   H21       1.0  0.3712934882668932  0.22497061498612678  0.31612185328086895  1.0000
  H   H22       1.0  0.7573095500094594  0.8979530678312387  0.7463781472227352  1.0000
  H   H23       1.0  0.9048181767927871  0.9652458834304412  0.677195056284056  1.0000
  H   H24       1.0  0.699986098599055  0.9096419809170796  0.6454472414648578  1.0000
  H   H25       1.0  0.0198005482911512  0.8422092623931474  0.6177190544701787  1.0000
  H   H26       1.0  0.8712808657848541  0.7750417872406528  0.6838539860911014  1.0000
  H   H27       1.0  0.5602084851789755  0.08593360401015097  0.1998588685151717  1.0000
  H   H28       1.0  0.0601743275725752  0.9140767814478392  0.8001221399806652  1.0000
  H   H29       1.0  0.3674784477445883  0.3927788042631377  0.49518056501742785  1.0000
  H   H30       1.0  0.8674789393775341  0.6072318187275482  0.5047876717418589  1.0000
  H   H31       1.0  0.3740791161861096  0.10681174945914759  0.0055011370500182  1.0000
  H   H32       1.0  0.874074725813081  0.8931858650744142  0.994524577720405  1.0000
  C   C1        1.0  0.38265225226407307  0.5886226105896595  0.5995326117437046  1.0000
  C   C2        1.0  0.8826382693098722  0.41137479457637477  0.40046265581707274  1.0000
  C   C3        1.0  0.377583309790502  0.611275188780283  0.3869641986628665  1.0000
  C   C4        1.0  0.8775557466074347  0.38872690718883957  0.6130286936650081  1.0000
  C   C5        1.0  0.7121820570824794  0.21489437645750795  0.7808503840718828  1.0000
  C   C6        1.0  0.21217433273724137  0.7851094737606771  0.2191412645111228  1.0000
  C   C7        1.0  0.8748802850223142  0.17563762957274068  0.8157380869325763  1.0000
  C   C8        1.0  0.37487839002473317  0.8243670172822772  0.1842542019787601  1.0000
  C   C9        1.0  0.7162377568938749  0.2822697943334305  0.714005650694027  1.0000
  C   C10       1.0  0.21623860744356446  0.7177320209708782  0.285983670356636  1.0000
  C   C11       1.0  0.8821064559564958  0.3226135194817132  0.6830309203777176  1.0000
  C   C12       1.0  0.38210170170998475  0.6773896183418983  0.31695611064866813  1.0000
  C   C13       1.0  0.9011523350166043  0.35916059828679886  0.3378068532798508  1.0000
  C   C14       1.0  0.4011556288105851  0.6408374234036316  0.6621890026495832  1.0000
  C   C15       1.0  0.8390108028247525  0.14418121051953384  0.1593483550174071  1.0000
  C   C16       1.0  0.33899747871845415  0.8558394283772798  0.8406250757205314  1.0000
  C   C17       1.0  0.6368643861038309  0.1819185997077284  0.2661521016944022  1.0000
  C   C18       1.0  0.136857795730549  0.818090977036384  0.7338289403913193  1.0000
  C   C19       1.0  0.6672258140460059  0.1340941805507683  0.20847667817557888  1.0000
  C   C20       1.0  0.1672075479526853  0.8659207910316836  0.7914990690432333  1.0000
  C   C21       1.0  0.9816663846905768  0.2033784409678816  0.1678576997125418  1.0000
  C   C22       1.0  0.48166228754761403  0.7966495583901075  0.8321169063113629  1.0000
  C   C23       1.0  0.9540743279936662  0.25629534471641335  0.22403143046909685  1.0000
  C   C24       1.0  0.45406426793073956  0.743718549162345  0.7759491144668688  1.0000
  C   C25       1.0  0.7796036292174121  0.24632202519639182  0.27350100015055284  1.0000
  C   C26       1.0  0.2795931394360096  0.7536823887840142  0.726482471018805  1.0000
  C   C27       1.0  0.7559712197691438  0.3007136514789792  0.3287356469245282  1.0000
  C   C28       1.0  0.2559668186935582  0.6992885984011534  0.6712595420110574  1.0000
  C   C29       1.0  0.0747239392842758  0.36761535774941473  0.28987496678066543  1.0000
  C   C30       1.0  0.5747404780331422  0.6323888580142735  0.7101137006798338  1.0000
  C   C31       1.0  0.09768849982792457  0.3183578961429987  0.2332636725268671  1.0000
  C   C32       1.0  0.597699282651483  0.6816600885489094  0.766717299700595  1.0000
  C   C33       1.0  0.3648395107540949  0.8904648621415561  0.11435924343502532  1.0000
  C   C34       1.0  0.8648392942400633  0.10953694240666319  0.8856242763530986  1.0000
  C   C35       1.0  0.3585233195423143  0.9088901754114498  0.9025451147159699  1.0000
  C   C36       1.0  0.8585473685507309  0.0911222640142526  0.09743364776335989  1.0000
  C   C37       1.0  0.46110030023937304  0.16731916644179987  0.3217747228147161  1.0000
  C   C38       1.0  0.3239843110055317  0.094537027219836  0.31234357613150376  1.0000
  C   C39       1.0  0.9610955525124112  0.8326891145094775  0.678202933657424  1.0000
  C   C40       1.0  0.8239947366015342  0.9054782837697386  0.687624613696954  1.0000
  O   O1        1.0  0.5483174503126093  0.5828545582818379  0.41215303837100237  1.0000
  O   O2        1.0  0.0483012630688577  0.41715772906758264  0.5878379085879004  1.0000
  O   O3        1.0  0.20846606409750018  0.5725431971864481  0.5758065624614234  1.0000
  O   O4        1.0  0.708463483347863  0.42746145190684354  0.4241839082659382  1.0000
  O   O5        1.0  0.20796385968198897  0.5887490265783767  0.417197221075682  1.0000
  O   O6        1.0  0.7079312295219109  0.4112501831353724  0.5827962133679633  1.0000
  O   O7        1.0  0.047632878988117994  0.4349534650827706  0.4264013004541951  1.0000
  O   O8        1.0  0.5476489733672024  0.5650391238876011  0.5736003170919588  1.0000
  O   O9        1.0  0.37460508641957085  0.45018504105807  0.5031722983385479  1.0000
  O   O10       1.0  0.874602675972092  0.5498176545512264  0.4968205889436418  1.0000
  O   O11       1.0  0.1940879828797506  0.9325033163001705  0.9288315083765539  1.0000
  O   O12       1.0  0.6941087714888495  0.06751467448824398  0.07114188640683487  1.0000
  O   O13       1.0  0.5344095437336591  0.9134917816567878  0.08390331626654299  1.0000
  O   O14       1.0  0.0344030480838171  0.08651580586053602  0.9160858997157603  1.0000
  O   O15       1.0  0.533199024366084  0.9259735799148884  0.9251618415344112  1.0000
  O   O16       1.0  0.03323476236273849  0.07402682999752838  0.0748367910900214  1.0000
  O   O17       1.0  0.6937889563997928  0.08191339222170765  0.9105507160074637  1.0000
  O   O18       1.0  0.1937850279659017  0.9180805722878558  0.0894228370329557  1.0000
  O   O19       1.0  0.36682638115901517  0.0499586325134231  0.9958616264285921  1.0000
  O   O20       1.0  0.8668091145368564  0.9500511970679141  0.004125354854068098  1.0000
