data_image0
_chemical_formula_structural       Zn2H18C16N2O18
_chemical_formula_sum              "Zn2 H18 C16 N2 O18"
_cell_length_a       6.987399243955963
_cell_length_b       7.24542243051541
_cell_length_c       10.825643465590275
_cell_angle_alpha    97.13201405508393
_cell_angle_beta     91.36607183384925
_cell_angle_gamma    100.52091596620643

_space_group_name_H-M_alt    "P 1"
_space_group_IT_number       1

loop_
  _space_group_symop_operation_xyz
  'x, y, z'

loop_
  _atom_site_type_symbol
  _atom_site_label
  _atom_site_symmetry_multiplicity
  _atom_site_fract_x
  _atom_site_fract_y
  _atom_site_fract_z
  _atom_site_occupancy
  Zn  Zn1       1.0  0.2613127962595244  0.7796274557109514  0.48407281286738885  1.0000
  Zn  Zn2       1.0  0.7386878905050267  0.22037423821123533  0.5159268819081577  1.0000
  H   H1        1.0  0.27943668187944587  0.0015994514016738981  0.8672328427271057  1.0000
  H   H2        1.0  0.7205605897445225  0.9983994098710838  0.13276747812428621  1.0000
  H   H3        1.0  0.18468312311708962  0.5101412137969774  0.09150017776351402  1.0000
  H   H4        1.0  0.8153172850784858  0.48985906054558365  0.9085003161078833  1.0000
  H   H5        1.0  0.2847484369111086  0.6940710069648046  0.9161962460407341  1.0000
  H   H6        1.0  0.7152499919611374  0.30592643694730987  0.08380397493483123  1.0000
  H   H7        1.0  0.8678022436206945  0.6546565438788223  0.46944311909522457  1.0000
  H   H8        1.0  0.13219843859989314  0.34534514639410924  0.5305574990333924  1.0000
  H   H9        1.0  0.9031422596175814  0.855831038623279  0.5594192581568082  1.0000
  H   H10       1.0  0.09685699587367941  0.1441706567291803  0.44058041223735256  1.0000
  H   H11       1.0  0.03445775852971881  0.4875004599899598  0.33654527985068233  1.0000
  H   H12       1.0  0.9655417755305182  0.5125026549421178  0.6634535914476275  1.0000
  H   H13       1.0  0.25582689242622086  0.4756868272519199  0.31554736947230577  1.0000
  H   H14       1.0  0.7441737988823008  0.5243148703195145  0.6844514019501702  1.0000
  H   H15       1.0  0.19565474006912353  0.957702745316176  0.27602917438659363  1.0000
  H   H16       1.0  0.8043470948557856  0.0422975239468641  0.723972267219253  1.0000
  H   H17       1.0  0.34890758856784027  0.11307499050208489  0.3571266013767841  1.0000
  H   H18       1.0  0.6510945203820812  0.8869266946913187  0.642874964486289  1.0000
  C   C1        1.0  0.3867142975292098  0.5688113248720229  0.6887893195555109  1.0000
  C   C2        1.0  0.6132844099120193  0.43118753861970294  0.3112101023242105  1.0000
  C   C3        1.0  0.3338550687232171  0.450295416506698  0.7924155332295516  1.0000
  C   C4        1.0  0.6661422119886783  0.5497034520645627  0.20758294091570662  1.0000
  C   C5        1.0  0.33059082243821797  0.2540999639684642  0.7784544327840452  1.0000
  C   C6        1.0  0.669406723210763  0.7459003132346567  0.22154601232457344  1.0000
  C   C7        1.0  0.28205976022398  0.15306504111794086  0.8784025341279008  1.0000
  C   C8        1.0  0.7179377899689641  0.8469352397344281  0.1215969876276475  1.0000
  C   C9        1.0  0.22948397319021302  0.24724153911976296  0.9885212576294226  1.0000
  C   C10       1.0  0.7705150037320652  0.7527587366530851  0.011479211860581973  1.0000
  C   C11       1.0  0.2267692184470533  0.44131367575582187  0.0038134155331732917  1.0000
  C   C12       1.0  0.7732294889941755  0.5586851877359038  0.9961860063465413  1.0000
  C   C13       1.0  0.28286343249862267  0.5422358841751131  0.9055132703958934  1.0000
  C   C14       1.0  0.7171338391253458  0.4577629770976444  0.09448705045550553  1.0000
  C   C15       1.0  0.375549165287083  0.1487338853196292  0.6574078172697498  1.0000
  C   C16       1.0  0.6244526787257528  0.851266391241907  0.34259177762996273  1.0000
  N   N1        1.0  0.1666046821963434  0.13825142399749524  0.08911756758381983  1.0000
  N   N2        1.0  0.8333954519742195  0.8617474344147026  0.9108828020303579  1.0000
  O   O1        1.0  0.2486369584375581  0.5695160843690202  0.6087154792426122  1.0000
  O   O2        1.0  0.7513646115502652  0.4304827762621457  0.39128399139988096  1.0000
  O   O3        1.0  0.5555739226590859  0.6672623320340919  0.6943818863005404  1.0000
  O   O4        1.0  0.4444247756942162  0.33273652415913085  0.3056193822853147  1.0000
  O   O5        1.0  0.46764380855551496  0.24580318978834728  0.5798666895217935  1.0000
  O   O6        1.0  0.5323563119831575  0.7541956576760994  0.4201364501515884  1.0000
  O   O7        1.0  0.316558574799167  0.9710082652370245  0.6428080320894836  1.0000
  O   O8        1.0  0.683441563915359  0.028990596824421302  0.35719141417161643  1.0000
  O   O9        1.0  0.22204238311358895  0.9837825795611865  0.09288693471344091  1.0000
  O   O10       1.0  0.7779580205380229  0.016217691132126795  0.9071144825110198  1.0000
  O   O11       1.0  0.05784374282559672  0.20095006051983694  0.16574447592422104  1.0000
  O   O12       1.0  0.9421549646156324  0.7990488029718961  0.8342549459554932  1.0000
  O   O13       1.0  0.9654862208283035  0.7666949465448025  0.5039616789566992  1.0000
  O   O14       1.0  0.034514456848320704  0.23330674007888066  0.49603986252498816  1.0000
  O   O15       1.0  0.16320922158819684  0.5646162200621063  0.3269010838474743  1.0000
  O   O16       1.0  0.8367914651763543  0.43538547386008014  0.6730986109280721  1.0000
  O   O17       1.0  0.24154301281156176  0.003002487806526199  0.36295355067730384  1.0000
  O   O18       1.0  0.7584585526322911  0.9969963691753917  0.6370468433182596  1.0000
