data_image0
_chemical_formula_structural       Cu4H40Au4C48N16
_chemical_formula_sum              "Cu4 H40 Au4 C48 N16"
_cell_length_a       7.70869549223846
_cell_length_b       12.540615116
_cell_length_c       13.8774
_cell_angle_alpha    90.0
_cell_angle_beta     90.52789421063967
_cell_angle_gamma    90.0

_space_group_name_H-M_alt    "P 1"
_space_group_IT_number       1

loop_
  _space_group_symop_operation_xyz
  'x, y, z'

loop_
  _atom_site_type_symbol
  _atom_site_label
  _atom_site_symmetry_multiplicity
  _atom_site_fract_x
  _atom_site_fract_y
  _atom_site_fract_z
  _atom_site_occupancy
  Cu  Cu1       1.0  0.320729355705069  0.8234994778544831  0.30972870718076  1.0000
  Cu  Cu2       1.0  0.1792830785087887  0.32350247276339433  0.19027146454558874  1.0000
  Cu  Cu3       1.0  0.6792812425171204  0.1764969245548471  0.6902802103915207  1.0000
  Cu  Cu4       1.0  0.8207002765937472  0.6764899426006751  0.8097236222739497  1.0000
  H   H1        1.0  0.0466830314486373  0.8999702084469876  0.17290382700957002  1.0000
  H   H2        1.0  0.4533242135995721  0.3999636344472891  0.3271071271003549  1.0000
  H   H3        1.0  0.9533145938594316  0.10003895250715543  0.8271129507256206  1.0000
  H   H4        1.0  0.5466695198342604  0.6000375524163388  0.6728836892578728  1.0000
  H   H5        1.0  0.7447464590237942  0.8522277337388645  0.1242533996108222  1.0000
  H   H6        1.0  0.7552584113324912  0.3522179701029558  0.3757498319676672  1.0000
  H   H7        1.0  0.2552537608670988  0.1477886038967426  0.8757482588855297  1.0000
  H   H8        1.0  0.2447379166841728  0.6477895960330784  0.624247483034047  1.0000
  H   H9        1.0  0.6020729441520913  0.6940847733134419  0.2016660921146993  1.0000
  H   H10       1.0  0.8979358180784303  0.1940781993137435  0.29832995342120233  1.0000
  H   H11       1.0  0.3979363567786861  0.30592040059544706  0.7983298480887983  1.0000
  H   H12       1.0  0.1020605099382337  0.805917405686529  0.7016702439648199  1.0000
  H   H13       1.0  0.7753586444647738  0.5874360971816301  0.32296311247105797  1.0000
  H   H14       1.0  0.7246462258915116  0.08742952318193181  0.1770278689741218  1.0000
  H   H15       1.0  0.2246480618831797  0.412568279318208  0.6770342556458075  1.0000
  H   H16       1.0  0.2753371292110316  0.91256528440929  0.8229686590375708  1.0000
  H   H17       1.0  0.07701240736187029  0.646016158303411  0.3630629406234647  1.0000
  H   H18       1.0  0.4230039187262236  0.14601835580327102  0.1369350892328285  1.0000
  H   H19       1.0  0.9229865152376107  0.3539874207873766  0.6369401524256517  1.0000
  H   H20       1.0  0.5770079767873781  0.853986818105611  0.863058702461224  1.0000
  H   H21       1.0  0.2411055007315213  0.0550794353874053  0.2893693369059349  1.0000
  H   H22       1.0  0.2588991497338711  0.5550780352965887  0.2106264714075792  1.0000
  H   H23       1.0  0.7589012056164322  0.944920954067179  0.7106381195560019  1.0000
  H   H24       1.0  0.7410932864085564  0.4449207593398867  0.7893708236759452  1.0000
  H   H25       1.0  0.2024410274983595  0.2139623914122524  0.3951372713257514  1.0000
  H   H26       1.0  0.2975532446357363  0.7139585990942907  0.10485343970007223  1.0000
  H   H27       1.0  0.7975604896839457  0.7860411876785349  0.6048571878492268  1.0000
  H   H28       1.0  0.7024456779637518  0.2860346136788365  0.8951467709647362  1.0000
  H   H29       1.0  0.2276292375471769  0.1903511094088515  0.5752264048984941  1.0000
  H   H30       1.0  0.2723546562556223  0.6903576834085499  0.924763532416101  1.0000
  H   H31       1.0  0.7723644958866558  0.8096548619090884  0.4247687350362028  1.0000
  H   H32       1.0  0.727652050092331  0.309639516409824  0.0752374386811425  1.0000
  H   H33       1.0  0.2866365374066007  0.0066798956211613  0.6402098222142669  1.0000
  H   H34       1.0  0.2133642211845483  0.5066856722118089  0.8597982163143811  1.0000
  H   H35       1.0  0.7133610879014682  0.9933292653329815  0.3597918230032988  1.0000
  H   H36       1.0  0.7866463770376342  0.49331232501562283  0.1402042158932062  1.0000
  H   H37       1.0  0.3219176746381507  0.8560927754095999  0.5237266028943354  1.0000
  H   H38       1.0  0.1780973541585311  0.3560933780913588  0.9762721409186456  1.0000
  H   H39       1.0  0.6780877344183907  0.14391080368118742  0.47627652335174997  1.0000
  H   H40       1.0  0.8219093521894223  0.6438990372727105  0.023725947794297  1.0000
  Au  Au1       1.0  0.49999038025985937  0.9999964024093233  0.9999993382605652  1.0000
  Au  Au2       1.0  0.9999885442681915  0.5000065739996984  0.4999915103967255  1.0000
  Au  Au3       1.0  0.49999038025985937  0.4999842465462692  0.4999986176644882  1.0000
  Au  Au4       1.0  0.9999924361424277  0.9999916179550183  0.9999958538913702  1.0000
  C   C1        1.0  0.4346289470661161  0.9273364896720724  0.1201088569694235  1.0000
  C   C2        1.0  0.06537700069068107  0.4273538379439117  0.3798819138109479  1.0000
  C   C3        1.0  0.5653595972020682  0.07264157232907562  0.8799013889253119  1.0000
  C   C4        1.0  0.9346024625376259  0.5726545256011804  0.6200965793806361  1.0000
  C   C5        1.0  0.4446712798837922  0.6292857190020485  0.42507543836102  1.0000
  C   C6        1.0  0.0553359651644172  0.1292815372295024  0.0749405599214441  1.0000
  C   C7        1.0  0.5553224535500476  0.3707074937710715  0.5749420400520648  1.0000
  C   C8        1.0  0.9446655520178877  0.8706949299535438  0.9250632670025354  1.0000
  C   C9        1.0  0.9812958723175598  0.8314632020479282  0.2049760457102607  1.0000
  C   C10       1.0  0.5186999169988411  0.33145981768443283  0.29502930118069776  1.0000
  C   C11       1.0  0.0187030502819212  0.16854436408811324  0.7950356944917729  1.0000
  C   C12       1.0  0.4812899245607625  0.6685365847248903  0.7049665394318866  1.0000
  C   C13       1.0  0.8131396622465841  0.8042332777705852  0.1776911826589824  1.0000
  C   C14       1.0  0.6868729918581662  0.304217932271321  0.3223120887558721  1.0000
  C   C15       1.0  0.186864449518545  0.19577588318355776  0.8223083339673282  1.0000
  C   C16       1.0  0.3131285253241387  0.6957768753199005  0.6776946205524155  1.0000
  C   C17       1.0  0.7349622871970425  0.7158221440467329  0.2201355604452999  1.0000
  C   C18       1.0  0.7650438804506479  0.21581397522893303  0.2798633541961237  1.0000
  C   C19       1.0  0.2650431218594989  0.2841846246802575  0.7798654040125541  1.0000
  C   C20       1.0  0.2349498529831848  0.7841848194075425  0.7201339475268043  1.0000
  C   C21       1.0  0.8302587197148696  0.6569940887100574  0.2874715339364968  1.0000
  C   C22       1.0  0.6697656100125826  0.1569859198922572  0.2125217088878273  1.0000
  C   C23       1.0  0.16973631101037503  0.3430182618802888  0.712531539194437  1.0000
  C   C24       1.0  0.3302553665408965  0.8430256332890382  0.7874663645133708  1.0000
  C   C25       1.0  0.9981074717212833  0.6896009422190446  0.3105342922279419  1.0000
  C   C26       1.0  0.5018999932178261  0.1895991526736509  0.18946174666856308  1.0000
  C   C27       1.0  0.0018901535867926  0.3104074213260475  0.6894745589503941  1.0000
  C   C28       1.0  0.498101523964479  0.8104076160533396  0.8105247859495676  1.0000
  C   C29       1.0  0.2487530336032648  0.04770818611893191  0.3676752984496829  1.0000
  C   C30       1.0  0.2512529141535325  0.5477035963919122  0.1323212370993048  1.0000
  C   C31       1.0  0.7512536727446883  0.9522937981537538  0.6323227902632595  1.0000
  C   C32       1.0  0.7487486030287727  0.452288818972157  0.8676811486325205  1.0000
  C   C33       1.0  0.2274242655041405  0.1360906131169415  0.4271306119020082  1.0000
  C   C34       1.0  0.2725674120471311  0.6360844285718201  0.07286585061364549  1.0000
  C   C35       1.0  0.7725798462609885  0.863916155610049  0.5728696253203793  1.0000
  C   C36       1.0  0.7274405915922273  0.3639143660646553  0.9271329653347635  1.0000
  C   C37       1.0  0.2404866927281546  0.1226096156988561  0.5267600621425929  1.0000
  C   C38       1.0  0.2595036875317049  0.6226169871076053  0.9732313495611251  1.0000
  C   C39       1.0  0.7595148244541503  0.877395558210033  0.4732387206088475  1.0000
  C   C40       1.0  0.7405004242334241  0.3773802127107686  0.0267696082573323  1.0000
  C   C41       1.0  0.2733120573174261  0.0207693161452411  0.5630306427894922  1.0000
  C   C42       1.0  0.2266874039823108  0.5207687134634825  0.9369716243311431  1.0000
  C   C43       1.0  0.7267050273618167  0.9792438318541556  0.4369739844032948  1.0000
  C   C44       1.0  0.7733154104914064  0.4792244993096375  0.0630293268479178  1.0000
  C   C45       1.0  0.2932955342226577  0.9366725548424811  0.4986273169849582  1.0000
  C   C46       1.0  0.20672338644825314  0.43667236011519617  0.001369284957967  1.0000
  C   C47       1.0  0.7067254423308214  0.06333182165735  0.5013686829730801  1.0000
  C   C48       1.0  0.7932781307340517  0.5633184604307716  0.9986345419660125  1.0000
  N   N1        1.0  0.401357314231241  0.8852516321815787  0.19326355084732683  1.0000
  N   N2        1.0  0.0986486335255634  0.3852610063629029  0.30673298470166793  1.0000
  N   N3        1.0  0.5986493921167124  0.11474237800059231  0.8067388614420778  1.0000
  N   N4        1.0  0.9013360188683919  0.6147369908645218  0.69326138816119  1.0000
  N   N5        1.0  0.4104513270269834  0.7057596392307631  0.3798299021862448  1.0000
  N   N6        1.0  0.0895494315641656  0.2057618367306233  0.1201788569384732  1.0000
  N   N7        1.0  0.5895450009896734  0.29422161240659517  0.6201803835448488  1.0000
  N   N8        1.0  0.910443004578255  0.7942234019519816  0.8798169969528972  1.0000
  N   N9        1.0  0.2820583960148468  0.9492213810798233  0.4022419641618882  1.0000
  N   N10       1.0  0.21795533549042284  0.44921400967107433  0.09775965539600412  1.0000
  N   N11       1.0  0.7179483103331064  0.0507845902381163  0.5977604481275165  1.0000
  N   N12       1.0  0.782040992526241  0.5507784056930022  0.902241262586088  1.0000
  N   N13       1.0  0.07307123605324507  0.7757203223300027  0.2707963839334582  1.0000
  N   N14       1.0  0.4269437927434367  0.275713748330304  0.22920452166774655  1.0000
  N   N15       1.0  0.9269237946720066  0.224290433442242  0.7292088509856995  1.0000
  N   N16       1.0  0.5730655081873408  0.7242882359423818  0.7707899773435969  1.0000
