data_image0
_chemical_formula_structural       Cu2H20C20N4Cl4
_chemical_formula_sum              "Cu2 H20 C20 N4 Cl4"
_cell_length_a       3.779952282493615
_cell_length_b       8.438724268027244
_cell_length_c       16.906517023199875
_cell_angle_alpha    90.00187670695594
_cell_angle_beta     93.75981501065398
_cell_angle_gamma    90.00163438260422

_space_group_name_H-M_alt    "P 1"
_space_group_IT_number       1

loop_
  _space_group_symop_operation_xyz
  'x, y, z'

loop_
  _atom_site_type_symbol
  _atom_site_label
  _atom_site_symmetry_multiplicity
  _atom_site_fract_x
  _atom_site_fract_y
  _atom_site_fract_z
  _atom_site_occupancy
  Cu  Cu1       1.0  2.274269597499996e-06  0.9999983094997515  7.424360717000007e-07  1.0000
  Cu  Cu2       1.0  0.5000009045483865  0.4999980158500248  0.5000009274410362  1.0000
  H   H1        1.0  0.15634909354227494  0.021040688776281496  0.8341630839945186  1.0000
  H   H2        1.0  0.3437058543053766  0.5210872405826165  0.6658353288794887  1.0000
  H   H3        1.0  0.8436632785844084  0.9789577130076377  0.16583829797869504  1.0000
  H   H4        1.0  0.6562960773792099  0.47891827128160686  0.33416830213243304  1.0000
  H   H5        1.0  0.9202436105486599  0.5002249200251184  0.7580805678744869  1.0000
  H   H6        1.0  0.5798459578857731  0.0002874839664101999  0.7419076883826821  1.0000
  H   H7        1.0  0.0797607680296153  0.4997734816817925  0.2419201327686836  1.0000
  H   H8        1.0  0.4201501421159648  0.9997203976335314  0.25808818690449453  1.0000
  H   H9        1.0  0.13219485213767973  0.22901040519523255  0.7259750843240129  1.0000
  H   H10       1.0  0.36790459105320394  0.7290678373402172  0.7740184518526834  1.0000
  H   H11       1.0  0.8678148282227127  0.7709856265235897  0.2740256758413509  1.0000
  H   H12       1.0  0.6320945676070552  0.27094359951278335  0.2259833733929498  1.0000
  H   H13       1.0  0.7539370062401788  0.5583744872524787  0.8967544562171457  1.0000
  H   H14       1.0  0.7461163519072044  0.05841378575416199  0.6032320046959472  1.0000
  H   H15       1.0  0.24606468060969186  0.4416227294025673  0.10324562262857033  1.0000
  H   H16       1.0  0.2538797070677888  0.9415858007336693  0.396763278502931  1.0000
  H   H17       1.0  0.7928631441756124  0.33628161835676446  0.9967027893606404  1.0000
  H   H18       1.0  0.7071681750643252  0.8363051203804374  0.5032875051716276  1.0000
  H   H19       1.0  0.2071358917831958  0.6637167832923294  0.0032972597239791014  1.0000
  H   H20       1.0  0.292828046805532  0.16368972613207683  0.49671014604801683  1.0000
  C   C1        1.0  0.8439593213337561  0.4407691183422741  0.88022892283  1.0000
  C   C2        1.0  0.6560864271377371  0.9408077408163392  0.6197603329754316  1.0000
  C   C3        1.0  0.15603698213504916  0.5592280982355502  0.11976991244158343  1.0000
  C   C4        1.0  0.34390706246939134  0.05919303070436399  0.38023610449350553  1.0000
  C   C5        1.0  0.8670337966577933  0.3195027541204353  0.9361467170208686  1.0000
  C   C6        1.0  0.633004321625073  0.819539814780036  0.5638421887418164  1.0000
  C   C7        1.0  0.13295728647633348  0.6804944624578151  0.06385324273890801  1.0000
  C   C8        1.0  0.3669919819573694  0.18046095683751415  0.4361566465609315  1.0000
  C   C9        1.0  0.06962201938613084  0.14188333135380293  0.8443397855851135  1.0000
  C   C10       1.0  0.4304214453154032  0.6419363434610473  0.6556510653428236  1.0000
  C   C11       1.0  0.9303770572206388  0.8581115152749772  0.15566085548392297  1.0000
  C   C12       1.0  0.5695750622644056  0.35807035331978193  0.3443507300897722  1.0000
  C   C13       1.0  0.05637022091933373  0.2572471168438496  0.7854715361057389  1.0000
  C   C14       1.0  0.443678049354844  0.75729700633223  0.714522491644644  1.0000
  C   C15       1.0  0.9436208214153154  0.7427489147017492  0.21452783162806816  1.0000
  C   C16       1.0  0.5563130748438994  0.24270969037137036  0.28547806021381933  1.0000
  C   C17       1.0  0.9394919288667934  0.40876009205479136  0.803618761551981  1.0000
  C   C18       1.0  0.5605755507492346  0.908817757049995  0.6963690171413861  1.0000
  C   C19       1.0  0.06050172355944033  0.5912335694641014  0.19638004391695327  1.0000
  C   C20       1.0  0.43942067153728454  0.09119012460818957  0.3036286341925277  1.0000
  N   N1        1.0  0.9764162376731419  0.17279828989880025  0.9182802012921205  1.0000
  N   N2        1.0  0.5235996546517826  0.6728267051636365  0.5817119036294829  1.0000
  N   N3        1.0  0.0235801065572616  0.8271989266984433  0.08171922599504462  1.0000
  N   N4        1.0  0.4763968526628801  0.3271716965244948  0.418289891730396  1.0000
  Cl  Cl1       1.0  0.3869352169246127  0.15069272733628478  0.08034065785791711  1.0000
  Cl  Cl2       1.0  0.11307442305213303  0.6506458605621858  0.41964988683391635  1.0000
  Cl  Cl3       1.0  0.6130745449589697  0.8493033044213616  0.9196612863386167  1.0000
  Cl  Cl4       1.0  0.8869326879782735  0.3493525412027481  0.5803520276119019  1.0000
