data_image0
_chemical_formula_structural       Zn2H44C42N2O12
_chemical_formula_sum              "Zn2 H44 C42 N2 O12"
_cell_length_a       10.87152418683633
_cell_length_b       13.988707303606708
_cell_length_c       15.038170398068317
_cell_angle_alpha    89.89671401907387
_cell_angle_beta     89.52916476416681
_cell_angle_gamma    89.84721480584274

_space_group_name_H-M_alt    "P 1"
_space_group_IT_number       1

loop_
  _space_group_symop_operation_xyz
  'x, y, z'

loop_
  _atom_site_type_symbol
  _atom_site_label
  _atom_site_symmetry_multiplicity
  _atom_site_fract_x
  _atom_site_fract_y
  _atom_site_fract_z
  _atom_site_occupancy
  Zn  Zn1       1.0  0.5009963672065966  0.5983170726684008  0.4995680220663914  1.0000
  Zn  Zn2       1.0  0.5008972765736531  0.3970861881102721  0.4997483034343801  1.0000
  H   H1        1.0  0.8858201372547756  0.34664491181177937  0.4992987175802171  1.0000
  H   H2        1.0  0.5237138450203034  0.3583632103461484  0.2361736692591307  1.0000
  H   H3        1.0  0.4646662899833345  0.3475566971244106  0.9299376219243028  1.0000
  H   H4        1.0  0.5695600030182675  0.35103820788702933  0.0733184154736648  1.0000
  H   H5        1.0  0.3214060895512674  0.0660844356048926  0.5646531381046316  1.0000
  H   H6        1.0  0.6781786009945847  0.0651662516324478  0.435804705631881  1.0000
  H   H7        1.0  0.3291331950849071  0.24593612683219132  0.5606935326433771  1.0000
  H   H8        1.0  0.6708866923966638  0.24501107322756613  0.4391917583217477  1.0000
  H   H9        1.0  0.7654674302561518  0.7074801486267859  0.6851846693577173  1.0000
  H   H10       1.0  0.7584259752737451  0.5812648962871592  0.6886340744582213  1.0000
  H   H11       1.0  0.8945105564322517  0.7078628851967255  0.8223495556348155  1.0000
  H   H12       1.0  0.11621064816339553  0.3462342461136174  0.5043854965905439  1.0000
  H   H13       1.0  0.8806428711765903  0.5823152137320381  0.8308461766121269  1.0000
  H   H14       1.0  0.9928036404103225  0.5617152368788254  0.6846168633855854  1.0000
  H   H15       1.0  0.0840482985412763  0.6273364336222684  0.760137749491463  1.0000
  H   H16       1.0  0.005918861001873699  0.6876005050766737  0.6733696982999362  1.0000
  H   H17       1.0  0.24020317018220538  0.7010540348625371  0.3096624299033977  1.0000
  H   H18       1.0  0.24711045999491427  0.5750597218725347  0.3012564661311856  1.0000
  H   H19       1.0  0.11495723381747781  0.708344311837216  0.17030365052262653  1.0000
  H   H20       1.0  0.12833983050368403  0.5830997489320923  0.1582383792138984  1.0000
  H   H21       1.0  0.0123820126594865  0.5581827092499978  0.3027342549706589  1.0000
  H   H22       1.0  0.9234446969034381  0.626476207375049  0.2272835746870214  1.0000
  H   H23       1.0  0.5586790613622767  0.7506976535620069  0.3681595892664761  1.0000
  H   H24       1.0  0.9989703150040372  0.6837576515898933  0.3166133416319  1.0000
  H   H25       1.0  0.5185513706399476  0.0208866231082325  0.2437244057555716  1.0000
  H   H26       1.0  0.40356442467509607  0.007497075985057198  0.327904755901848  1.0000
  H   H27       1.0  0.4911888200133987  0.8497046478220227  0.1995416162108725  1.0000
  H   H28       1.0  0.3793156359534676  0.8339837632278416  0.2834402012227812  1.0000
  H   H29       1.0  0.24192379183706686  0.9566046473165458  0.20986090935839033  1.0000
  H   H30       1.0  0.27918539587297886  0.8607279013721439  0.1369800739326124  1.0000
  H   H31       1.0  0.35406994413821746  0.9727797167365111  0.12460893634563062  1.0000
  H   H32       1.0  0.48220359845305444  0.0189119938125941  0.7573390944432106  1.0000
  H   H33       1.0  0.5962926173020833  0.007181502953983501  0.672265202612401  1.0000
  H   H34       1.0  0.4430244734933098  0.7500360989369951  0.632241603162754  1.0000
  H   H35       1.0  0.5126083842499085  0.847498000968912  0.8001309880474637  1.0000
  H   H36       1.0  0.622376720139954  0.8327919168363991  0.7146834140318747  1.0000
  H   H37       1.0  0.7610520070558379  0.9542196652989149  0.7872594315842535  1.0000
  H   H38       1.0  0.7263329214936933  0.8572348255127764  0.8595548885997104  1.0000
  H   H39       1.0  0.6513188514831043  0.9691903528887595  0.8743889069561136  1.0000
  H   H40       1.0  0.9147666404323616  0.560272283189704  0.4540188323072202  1.0000
  H   H41       1.0  0.08701780981886031  0.5627273335461282  0.5350314702640163  1.0000
  H   H42       1.0  0.6079468396549643  0.6339298299676487  0.9513978617860915  1.0000
  H   H43       1.0  0.4081272732417318  0.6313835245070438  0.0440763753709987  1.0000
  H   H44       1.0  0.501084334926162  0.35472553420844827  0.7659011635127159  1.0000
  C   C1        1.0  0.5607940520183733  0.5012466556330111  0.6670750276118368  1.0000
  C   C2        1.0  0.5342977245832117  0.8925849009585676  0.4237322923865677  1.0000
  C   C3        1.0  0.46603946157802056  0.8922028346654189  0.5767299883813521  1.0000
  C   C4        1.0  0.5333805441585682  0.7928981223458609  0.4264326233177656  1.0000
  C   C5        1.0  0.4678732390019675  0.7925021948644756  0.5739676793170575  1.0000
  C   C6        1.0  0.49993171790191593  0.945127707464913  0.5002439570190091  1.0000
  C   C7        1.0  0.2670998449529378  0.4931540503061953  0.5348472771093142  1.0000
  C   C8        1.0  0.7346200607798965  0.4915792352996036  0.4616839392661518  1.0000
  C   C9        1.0  0.9356257825659496  0.41391774370765694  0.49077774005505154  1.0000
  C   C10       1.0  0.06660999511883861  0.41424842614232205  0.5078056179932062  1.0000
  C   C11       1.0  0.870441342726174  0.4914409884677937  0.4656285459193725  1.0000
  C   C12       1.0  0.4465383136413266  0.502575049063843  0.3313577138176953  1.0000
  C   C13       1.0  0.1315681592782951  0.4931291416535686  0.5282391319098565  1.0000
  C   C14       1.0  0.5815552502349847  0.5724190734195106  0.9114690993397474  1.0000
  C   C15       1.0  0.436727680031325  0.5714653738484472  0.08559988630064912  1.0000
  C   C16       1.0  0.6064649386554706  0.5749464855761914  0.8201170712227894  1.0000
  C   C17       1.0  0.4073449436050113  0.5742214801716514  0.176285634820978  1.0000
  C   C18       1.0  0.5711197227769347  0.4971359023587212  0.7661890107626875  1.0000
  C   C19       1.0  0.44400636646563646  0.4979862104286355  0.23198633939068003  1.0000
  C   C20       1.0  0.525470745032905  0.4147474360776685  0.8083003537075798  1.0000
  C   C21       1.0  0.49787783828436005  0.41709336104231204  0.1923512306245314  1.0000
  C   C22       1.0  0.5048533254176064  0.4111534979145261  0.8994763671233486  1.0000
  C   C23       1.0  0.5279829189308671  0.49213502099352985  0.9518589708484557  1.0000
  C   C24       1.0  0.5237328387469589  0.4134154665280718  0.1018493550433774  1.0000
  C   C25       1.0  0.7673731745651297  0.6453698204199015  0.73013808174926  1.0000
  C   C26       1.0  0.8862109951732647  0.6419024330892213  0.782965298198036  1.0000
  C   C27       1.0  0.9983065162595255  0.6289971339659032  0.7220389582448519  1.0000
  C   C28       1.0  0.23934160607780086  0.6412593620310787  0.262246523817403  1.0000
  C   C29       1.0  0.12185315703061408  0.6408522598334517  0.2077968806960868  1.0000
  C   C30       1.0  0.0080305174038173  0.6266048766789893  0.2667383542139419  1.0000
  C   C31       1.0  0.47402441099127673  0.9690064941155399  0.2884257417868952  1.0000
  C   C32       1.0  0.41794882022995233  0.8868807714219641  0.2368245220430794  1.0000
  C   C33       1.0  0.31771154495901044  0.9213619556681679  0.1736108195927812  1.0000
  C   C34       1.0  0.496937834707829  0.4925870294917587  0.0476541127416112  1.0000
  C   C35       1.0  0.5268455926690835  0.9678521646372574  0.7118655628493046  1.0000
  C   C36       1.0  0.584668272972209  0.8851147864528243  0.7621946748791686  1.0000
  C   C37       1.0  0.686422429069417  0.9185374957349735  0.8242802157723332  1.0000
  C   C38       1.0  0.4004495381853205  0.10267652174462683  0.5358402613325879  1.0000
  C   C39       1.0  0.5992116009332378  0.1021652659295782  0.4644669044029968  1.0000
  C   C40       1.0  0.4039506778632217  0.20193257113797358  0.5342899296242223  1.0000
  C   C41       1.0  0.5959588673558401  0.2014115177797464  0.46569977644685423  1.0000
  C   C42       1.0  0.4997768248748073  0.050656449526485396  0.5002220714653873  1.0000
  N   N1        1.0  0.4999979605764225  0.2503418608777181  0.4999049266934321  1.0000
  N   N2        1.0  0.5008028425857418  0.7449039273228805  0.5001644814253936  1.0000
  O   O1        1.0  0.538287079374399  0.5826295944346215  0.6325227451983437  1.0000
  O   O2        1.0  0.34595466836567823  0.6541858795162269  0.2053875395443612  1.0000
  O   O3        1.0  0.5721863830052315  0.9375241340665285  0.3471275687744821  1.0000
  O   O4        1.0  0.42831812705007627  0.9368817031682893  0.653476622919932  1.0000
  O   O5        1.0  0.4655880989411117  0.584215238217979  0.3660116343396425  1.0000
  O   O6        1.0  0.5680269684616023  0.4222792503852588  0.6252381838324084  1.0000
  O   O7        1.0  0.4367594489153391  0.42381258321050563  0.3734635692703137  1.0000
  O   O8        1.0  0.3174341945423507  0.5749853719926893  0.5257358696553496  1.0000
  O   O9        1.0  0.6843885200197519  0.5735141730707413  0.47153765814536536  1.0000
  O   O10       1.0  0.3231609145223119  0.41374213749041644  0.5458109015149546  1.0000
  O   O11       1.0  0.6786303709949664  0.4121775387234052  0.45255671081114457  1.0000
  O   O12       1.0  0.661850453528757  0.6563289566608503  0.7884798106767692  1.0000
