data_image0
_chemical_formula_structural       Cu8H24C24S24N24Cl8
_chemical_formula_sum              "Cu8 H24 C24 S24 N24 Cl8"
_cell_length_a       11.664584695011044
_cell_length_b       11.664665940008991
_cell_length_c       11.664627246008674
_cell_angle_alpha    90.00008625321362
_cell_angle_beta     90.00010993396154
_cell_angle_gamma    90.00011310197283

_space_group_name_H-M_alt    "P 1"
_space_group_IT_number       1

loop_
  _space_group_symop_operation_xyz
  'x, y, z'

loop_
  _atom_site_type_symbol
  _atom_site_label
  _atom_site_symmetry_multiplicity
  _atom_site_fract_x
  _atom_site_fract_y
  _atom_site_fract_z
  _atom_site_occupancy
  Cu  Cu1       1.0  0.10576222249604682  0.1057597493193114  0.1057626691300513  1.0000
  Cu  Cu2       1.0  0.3942392463105477  0.8942399129575308  0.6057623715744924  1.0000
  Cu  Cu3       1.0  0.6057604908720791  0.3942388787896505  0.8942386257746763  1.0000
  Cu  Cu4       1.0  0.8942385572727075  0.605761347145055  0.3942385149882384  1.0000
  Cu  Cu5       1.0  0.8942393219204732  0.8942380515624038  0.8942375643105791  1.0000
  Cu  Cu6       1.0  0.6057605835168188  0.10576045979211561  0.3942378618664364  1.0000
  Cu  Cu7       1.0  0.39424019625028717  0.605760636670965  0.1057616076664232  1.0000
  Cu  Cu8       1.0  0.10576041526050521  0.3942407401834914  0.6057617184531523  1.0000
  H   H1        1.0  0.16225135406143207  0.08375334288322019  0.3302285164637553  1.0000
  H   H2        1.0  0.330227171103239  0.16225107054679463  0.08375193637733251  1.0000
  H   H3        1.0  0.08375571394092418  0.33022312066456294  0.16225412071269574  1.0000
  H   H4        1.0  0.4162475778908998  0.6697783412049035  0.6622509554651687  1.0000
  H   H5        1.0  0.8302287993815014  0.3377488578728319  0.9162515036262776  1.0000
  H   H6        1.0  0.9162480808904833  0.8302289633635311  0.337748258728368  1.0000
  H   H7        1.0  0.16976996896938348  0.8377485585978595  0.5837459794806108  1.0000
  H   H8        1.0  0.6697754347898551  0.6622531157707884  0.41624761822904344  1.0000
  H   H9        1.0  0.5837457150506894  0.16977203484673  0.8377514184380248  1.0000
  H   H10       1.0  0.33774797371598453  0.9162466571864628  0.8302272864110735  1.0000
  H   H11       1.0  0.662251806928964  0.4162556841996263  0.6697771732569963  1.0000
  H   H12       1.0  0.8377476676556838  0.583740774785568  0.16977520638045013  1.0000
  H   H13       1.0  0.8377493330726862  0.9162547454787245  0.6697751461546774  1.0000
  H   H14       1.0  0.6697735160232837  0.8377501594955066  0.9162508689432161  1.0000
  H   H15       1.0  0.9162518315497366  0.6697721083579607  0.8377521137807807  1.0000
  H   H16       1.0  0.5837471081689571  0.33022803257008354  0.3377509925607783  1.0000
  H   H17       1.0  0.16977788880922162  0.6622472284348505  0.08374958711070951  1.0000
  H   H18       1.0  0.08375003434942128  0.16977569583379193  0.6622519747141382  1.0000
  H   H19       1.0  0.8302238597813271  0.1622526714305721  0.4162473956134605  1.0000
  H   H20       1.0  0.3302235377367779  0.33774897155259964  0.5837457568705987  1.0000
  H   H21       1.0  0.41624725640649984  0.8302240514474236  0.16224967228581022  1.0000
  H   H22       1.0  0.6622518561029409  0.08374599995366341  0.16977208973132463  1.0000
  H   H23       1.0  0.3377505947960486  0.5837532614525925  0.3302247747782873  1.0000
  H   H24       1.0  0.1622521621556743  0.4162458813241513  0.8302224551719917  1.0000
  C   C1        1.0  0.030010902420087904  0.9658170426235703  0.32082798185911804  1.0000
  C   C2        1.0  0.3208284954666496  0.030015619120597106  0.9658160192198154  1.0000
  C   C3        1.0  0.9658195576532478  0.32083056644765406  0.030010699367395012  1.0000
  C   C4        1.0  0.5341890789129948  0.6791656822195337  0.5300162457116926  1.0000
  C   C5        1.0  0.8208201187591371  0.4699842907413582  0.0341899746262868  1.0000
  C   C6        1.0  0.03418593320309069  0.8208185787604309  0.46998652216112197  1.0000
  C   C7        1.0  0.17918052282890776  0.9699880141635618  0.46581690174294726  1.0000
  C   C8        1.0  0.6791662361482692  0.5300239662508163  0.5341947171514435  1.0000
  C   C9        1.0  0.4658128055412832  0.1791807743387537  0.9699852850597283  1.0000
  C   C10       1.0  0.46998497813125073  0.03418551516478631  0.8208256771159698  1.0000
  C   C11       1.0  0.5300217638460154  0.5341963579758017  0.6791696342792904  1.0000
  C   C12       1.0  0.9699863017466511  0.4658078307717021  0.1791814600996915  1.0000
  C   C13       1.0  0.9699803544614197  0.034192760308812416  0.6791756807515625  1.0000
  C   C14       1.0  0.6791859083950983  0.9699873255149924  0.03418678611517831  1.0000
  C   C15       1.0  0.0341897024268931  0.6791740927561563  0.969983533036775  1.0000
  C   C16       1.0  0.46581332279078685  0.32081925931813526  0.4699882741836703  1.0000
  C   C17       1.0  0.1791745672988938  0.5300152247184969  0.9658171171508061  1.0000
  C   C18       1.0  0.9658138966148755  0.17916893464367686  0.5300171404409896  1.0000
  C   C19       1.0  0.8208270226710823  0.030017502336811202  0.5341884754655625  1.0000
  C   C20       1.0  0.3208190196647678  0.46998497938835737  0.46581237462370245  1.0000
  C   C21       1.0  0.5341810232144794  0.8208247421397061  0.030008947330287607  1.0000
  C   C22       1.0  0.5300114225135601  0.9658148575821174  0.17917541361438083  1.0000
  C   C23       1.0  0.46998835354184376  0.46582116057632567  0.32082374084266263  1.0000
  C   C24       1.0  0.030014385382159496  0.534186540958693  0.8208307754355886  1.0000
  S   S1        1.0  0.9629877873178857  0.0231950850216265  0.20887259612511858  1.0000
  S   S2        1.0  0.2088733900245217  0.9629845094349959  0.023198409057045007  1.0000
  S   S3        1.0  0.0231978413995009  0.20886742335336092  0.962986802499458  1.0000
  S   S4        1.0  0.4768008839106272  0.7911362056593421  0.462982842756155  1.0000
  S   S5        1.0  0.7088736834794884  0.5370103837932803  0.9768046938602738  1.0000
  S   S6        1.0  0.9768049589822355  0.7088780767370937  0.5370087719489265  1.0000
  S   S7        1.0  0.2911219192220145  0.0370107421334893  0.5231940509413138  1.0000
  S   S8        1.0  0.7911306669202035  0.4629848226603245  0.4768050276009106  1.0000
  S   S9        1.0  0.5231951180634268  0.291125898059903  0.037011762169029815  1.0000
  S   S10       1.0  0.5370100477242944  0.976804004668516  0.7088743096440953  1.0000
  S   S11       1.0  0.4629821368134657  0.47680424812578076  0.7911328130827685  1.0000
  S   S12       1.0  0.0370171159155959  0.5231948358163623  0.2911276063672119  1.0000
  S   S13       1.0  0.03701461439447941  0.9768027158609343  0.7911276373163361  1.0000
  S   S14       1.0  0.7911264397960949  0.037009862284882906  0.9768009670866392  1.0000
  S   S15       1.0  0.9768071321953044  0.7911243765032624  0.0370142882326618  1.0000
  S   S16       1.0  0.5231886583735558  0.2088778837129794  0.5370105323434871  1.0000
  S   S17       1.0  0.29113300470707054  0.4629839879327237  0.023193824997271403  1.0000
  S   S18       1.0  0.023194870848684004  0.2911317261966532  0.4629854604500708  1.0000
  S   S19       1.0  0.7088710522369226  0.9629887733188697  0.4768053251996704  1.0000
  S   S20       1.0  0.20887687856476594  0.537012978225377  0.5231926339673265  1.0000
  S   S21       1.0  0.4768072836447531  0.7088693309517426  0.9629867566850481  1.0000
  S   S22       1.0  0.46298549562128244  0.023192938918043606  0.29112678108285195  1.0000
  S   S23       1.0  0.5370116919478676  0.5231944100433594  0.20887427869285352  1.0000
  S   S24       1.0  0.9629861430917899  0.47680296506639763  0.7088717697823484  1.0000
  N   N1        1.0  0.1266855450525739  0.011736701305437696  0.369338979234449  1.0000
  N   N2        1.0  0.3693420471337348  0.1266872418058398  0.011738501476855802  1.0000
  N   N3        1.0  0.011735151735521802  0.3693437316793721  0.12669357914735  1.0000
  N   N4        1.0  0.4882637853591092  0.6306559620928098  0.6266922076980066  1.0000
  N   N5        1.0  0.8693481703220697  0.37329818989024244  0.988265870832663  1.0000
  N   N6        1.0  0.9882627192564117  0.8693463408686312  0.3733054300272586  1.0000
  N   N7        1.0  0.1306549547123055  0.8733054206547025  0.5117419533311534  1.0000
  N   N8        1.0  0.6306544874854225  0.6266961765201913  0.4882670006216189  1.0000
  N   N9        1.0  0.5117388605996069  0.13065728272701452  0.8733066781338439  1.0000
  N   N10       1.0  0.37330785673518824  0.9882642149116663  0.8693464987682021  1.0000
  N   N11       1.0  0.6266937806769306  0.48826625455038913  0.6306520683000587  1.0000
  N   N12       1.0  0.8733047615251053  0.5117387184576218  0.13065520494114932  1.0000
  N   N13       1.0  0.8733108555880948  0.9882628141490103  0.6306586823243876  1.0000
  N   N14       1.0  0.6306569253817997  0.8733002715922639  0.9882583027826897  1.0000
  N   N15       1.0  0.9882638207892711  0.6306514973288914  0.8733049397034451  1.0000
  N   N16       1.0  0.5117377590591942  0.36934698252557047  0.3733045965756291  1.0000
  N   N17       1.0  0.1306568032727071  0.6266927526771512  0.0117360771915287  1.0000
  N   N18       1.0  0.011735395975996701  0.1306548891659745  0.6266905169490755  1.0000
  N   N19       1.0  0.8693423032374669  0.12669752396783454  0.48826599574370994  1.0000
  N   N20       1.0  0.36934277046693603  0.3733110545504274  0.5117392338710332  1.0000
  N   N21       1.0  0.48826697029952737  0.8693439473184272  0.12669355531348  1.0000
  N   N22       1.0  0.6266954022781022  0.0117387297109843  0.1306537346779493  1.0000
  N   N23       1.0  0.37331119292564824  0.5117392619397095  0.36934302139336245  1.0000
  N   N24       1.0  0.1266933537081982  0.4882650834453132  0.8693390274516872  1.0000
  Cl  Cl1       1.0  0.22374522106598962  0.2237436162132767  0.2237443522980272  1.0000
  Cl  Cl2       1.0  0.27625561690948797  0.7762562236123429  0.7237445080766493  1.0000
  Cl  Cl3       1.0  0.7237438873291779  0.2762552447511411  0.7762537397201399  1.0000
  Cl  Cl4       1.0  0.77625493434509  0.7237439463401999  0.2762544376148668  1.0000
  Cl  Cl5       1.0  0.776254608757192  0.7762541846654543  0.7762541665555247  1.0000
  Cl  Cl6       1.0  0.7237433556203641  0.22374329184593483  0.27625486807009036  1.0000
  Cl  Cl7       1.0  0.27625679978989126  0.7237442707069022  0.2237430645500852  1.0000
  Cl  Cl8       1.0  0.22374403818311348  0.2762555691167847  0.7237432239464355  1.0000
