data_image0
_chemical_formula_structural       Zn8H96C144N16O48
_chemical_formula_sum              "Zn8 H96 C144 N16 O48"
_cell_length_a       17.60138182000008
_cell_length_b       17.601373043000535
_cell_length_c       22.891864843000626
_cell_angle_alpha    89.99997355942706
_cell_angle_beta     90.00000396720007
_cell_angle_gamma    90.00000996087347

_space_group_name_H-M_alt    "P 1"
_space_group_IT_number       1

loop_
  _space_group_symop_operation_xyz
  'x, y, z'

loop_
  _atom_site_type_symbol
  _atom_site_label
  _atom_site_symmetry_multiplicity
  _atom_site_fract_x
  _atom_site_fract_y
  _atom_site_fract_z
  _atom_site_occupancy
  Zn  Zn1       1.0  0.43287348929933966  0.9176954292663098  0.2028238664930768  1.0000
  Zn  Zn2       1.0  0.5671265125004296  0.0823043629743836  0.20282401818943194  1.0000
  Zn  Zn3       1.0  0.9328734126958838  0.5823045640633139  0.2971762349289762  1.0000
  Zn  Zn4       1.0  0.06712659760567159  0.4176957396544411  0.2971758042479138  1.0000
  Zn  Zn5       1.0  0.4176957275185273  0.9328736391493421  0.7028241944544931  1.0000
  Zn  Zn6       1.0  0.5823043193345611  0.06712642096811547  0.7028239155045028  1.0000
  Zn  Zn7       1.0  0.0823044070784746  0.4328733840386363  0.7971761330169896  1.0000
  Zn  Zn8       1.0  0.9176956482763005  0.5671260512808871  0.7971761314365864  1.0000
  H   H1        1.0  0.35877072063286153  0.0328166417331488  0.4911552712022385  1.0000
  H   H2        1.0  0.6412293071474764  0.9671835454959775  0.4911551130422112  1.0000
  H   H3        1.0  0.8587712530972453  0.46718351159807975  0.0088445667525292  1.0000
  H   H4        1.0  0.14122929936097958  0.5328169652689214  0.0088445360259257  1.0000
  H   H5        1.0  0.5328168092604029  0.8587713890289094  0.9911554604373122  1.0000
  H   H6        1.0  0.46718326357326834  0.1412290660768463  0.9911555859200333  1.0000
  H   H7        1.0  0.9671832090529975  0.35877194211610697  0.5088444830793719  1.0000
  H   H8        1.0  0.0328168203213295  0.6412288026276087  0.508844844975556  1.0000
  H   H9        1.0  0.449910159871621  0.21661375497410515  0.2234282540910613  1.0000
  H   H10       1.0  0.550090411921957  0.7833860248932039  0.2234285930971325  1.0000
  H   H11       1.0  0.9499101163696508  0.28338641420153715  0.2765720255493207  1.0000
  H   H12       1.0  0.050089892075348495  0.7166139018893884  0.2765719247947089  1.0000
  H   H13       1.0  0.7166137384003051  0.949910398027228  0.7234280253841092  1.0000
  H   H14       1.0  0.28338631030933936  0.0500896497170586  0.72342817340774  1.0000
  H   H15       1.0  0.7833862957575304  0.4499101902479338  0.7765714489762416  1.0000
  H   H16       1.0  0.21661375774069566  0.550089825582525  0.7765718529715641  1.0000
  H   H17       1.0  0.29010226346388623  0.3226884070173668  0.2677942102543298  1.0000
  H   H18       1.0  0.7098988804645358  0.6773113462075389  0.2677937217070436  1.0000
  H   H19       1.0  0.7901021975231471  0.1773117343757917  0.2322056240468058  1.0000
  H   H20       1.0  0.2098983750613783  0.8226886083580283  0.2322059310148532  1.0000
  H   H21       1.0  0.8226883528691288  0.7901018384728998  0.7677940357650002  1.0000
  H   H22       1.0  0.1773111317009111  0.20989761449112618  0.7677941214729244  1.0000
  H   H23       1.0  0.6773116535060097  0.2901016388951092  0.7322059321036818  1.0000
  H   H24       1.0  0.3226883959945183  0.7098978354404367  0.7322058482346563  1.0000
  H   H25       1.0  0.5384947428649411  0.8703581902266464  0.3096854207282789  1.0000
  H   H26       1.0  0.4615052685637976  0.12964210597890968  0.3096855500178819  1.0000
  H   H27       1.0  0.03849476826315619  0.629642302677716  0.1903146597101042  1.0000
  H   H28       1.0  0.9615052324095001  0.37035806521254233  0.190314730239443  1.0000
  H   H29       1.0  0.3703578939223319  0.0384950813669249  0.8096854579745738  1.0000
  H   H30       1.0  0.629642162559655  0.9615049145780292  0.809685301211772  1.0000
  H   H31       1.0  0.1296421721120069  0.5384952939115805  0.690315009352851  1.0000
  H   H32       1.0  0.8703578736139619  0.4615053418554425  0.6903146058731835  1.0000
  H   H33       1.0  0.0894407314844372  0.1683703167152615  0.261678522572879  1.0000
  H   H34       1.0  0.9105598437558059  0.8316305764572007  0.2616779899770449  1.0000
  H   H35       1.0  0.589440692923027  0.3316303579302442  0.238321737888036  1.0000
  H   H36       1.0  0.410559312075371  0.6683699811307804  0.2383216734212539  1.0000
  H   H37       1.0  0.6683697692693329  0.5894402085443814  0.7616787943700913  1.0000
  H   H38       1.0  0.33162971474966696  0.41055924809213457  0.7616783802929986  1.0000
  H   H39       1.0  0.8316302022208645  0.08944060025988419  0.7383216814942699  1.0000
  H   H40       1.0  0.1683698478307818  0.9105594385405381  0.7383215182551978  1.0000
  H   H41       1.0  0.4712744621463044  0.8283965954099626  0.608834056121303  1.0000
  H   H42       1.0  0.5287255762376118  0.17160295301309247  0.608833737270615  1.0000
  H   H43       1.0  0.971273841399352  0.6716036724725143  0.8911658357840011  1.0000
  H   H44       1.0  0.0287262224245737  0.3283962745415465  0.8911663084002512  1.0000
  H   H45       1.0  0.3283964652017913  0.9712742230673397  0.1088341327663045  1.0000
  H   H46       1.0  0.6716040962661367  0.028726193753861692  0.10883387218534318  1.0000
  H   H47       1.0  0.17160419915501987  0.4712733589009019  0.3911659558110046  1.0000
  H   H48       1.0  0.8283963877528037  0.5287263202364442  0.3911659630967748  1.0000
  H   H49       1.0  0.32726019935694944  0.972297382010396  0.297296279679351  1.0000
  H   H50       1.0  0.6727398109554557  0.0277029216350826  0.2972964563580973  1.0000
  H   H51       1.0  0.8272601047483404  0.5277025929584838  0.20270337928696588  1.0000
  H   H52       1.0  0.17273989704063547  0.4722977674919804  0.2027038085348849  1.0000
  H   H53       1.0  0.47229711752054016  0.8272602639197331  0.7972966403110959  1.0000
  H   H54       1.0  0.5277023697079315  0.1727397394648378  0.7972967578393337  1.0000
  H   H55       1.0  0.0277029987155402  0.327260056049539  0.7027028509405823  1.0000
  H   H56       1.0  0.9722976162638728  0.6727400041405004  0.7027036884850588  1.0000
  H   H57       1.0  0.3597541712165295  0.0344960234447953  0.6004298982777669  1.0000
  H   H58       1.0  0.640245298272923  0.9655035300249106  0.6004301774974721  1.0000
  H   H59       1.0  0.859754170458629  0.4655038297967523  0.8995697281694887  1.0000
  H   H60       1.0  0.140245894122522  0.5344961121707426  0.8995696967950195  1.0000
  H   H61       1.0  0.5344961828153386  0.8597545344921614  0.10042986237827019  1.0000
  H   H62       1.0  0.4655038097581112  0.1402458873758192  0.10042998812028972  1.0000
  H   H63       1.0  0.9655043587528382  0.3597542845109629  0.3995698555133913  1.0000
  H   H64       1.0  0.0344962289122321  0.6402453895796895  0.3995697810110528  1.0000
  H   H65       1.0  0.4745196559463735  0.8162646202808687  0.5000281564769296  1.0000
  H   H66       1.0  0.5254809407706488  0.18373499348237493  0.5000282699877019  1.0000
  H   H67       1.0  0.9745190471126433  0.6837350800282991  0.999971735601136  1.0000
  H   H68       1.0  0.025481026515400598  0.3162648016455023  0.9999722123468189  1.0000
  H   H69       1.0  0.3162644585501723  0.974519456057834  2.8229986284599998e-05  1.0000
  H   H70       1.0  0.6837349568391814  0.025480457965905097  2.84080381334e-05  1.0000
  H   H71       1.0  0.183735070096489  0.47451966493517256  0.4999718574399666  1.0000
  H   H72       1.0  0.8162649584783422  0.5254810851368462  0.49997186523130205  1.0000
  H   H73       1.0  0.5334048063734755  0.8693201700310381  0.41808681214538984  1.0000
  H   H74       1.0  0.4665952148229167  0.1306800610772925  0.4180865045013035  1.0000
  H   H75       1.0  0.033405390321632894  0.6306797538509841  0.0819132680222907  1.0000
  H   H76       1.0  0.9665946005833703  0.3693206791364858  0.0819137760267239  1.0000
  H   H77       1.0  0.3693199116768184  0.0334051049049577  0.9180864133815235  1.0000
  H   H78       1.0  0.6306795864355621  0.9665942578052337  0.9180866917054331  1.0000
  H   H79       1.0  0.13068015347273843  0.5334065190021491  0.5819140557507084  1.0000
  H   H80       1.0  0.8693204506228653  0.4665947499995085  0.5819136504111171  1.0000
  H   H81       1.0  0.2463437414786824  0.050705090301448784  0.2208762798002226  1.0000
  H   H82       1.0  0.7536556938105717  0.9492952592357894  0.22087657080209766  1.0000
  H   H83       1.0  0.7463442951870719  0.44929504348434074  0.2791235521726847  1.0000
  H   H84       1.0  0.25365571348779525  0.5507047029368195  0.2791235210843794  1.0000
  H   H85       1.0  0.5507051555774467  0.7463438790061331  0.7208764956086924  1.0000
  H   H86       1.0  0.4492948929022589  0.25365617027055265  0.7208761434338272  1.0000
  H   H87       1.0  0.949295411327604  0.24634369853756513  0.7791239246140194  1.0000
  H   H88       1.0  0.0507052105377497  0.7536557476227798  0.7791238107560616  1.0000
  H   H89       1.0  0.31134497662698374  0.9737046247063432  0.4055264305031372  1.0000
  H   H90       1.0  0.6886544753004459  0.0262956139445762  0.4055266085277154  1.0000
  H   H91       1.0  0.8113454401586964  0.5262953474957186  0.09447322761639748  1.0000
  H   H92       1.0  0.18865455187798827  0.47370450981175344  0.0944736572121343  1.0000
  H   H93       1.0  0.47370439688814503  0.8113455640178202  0.9055263578306948  1.0000
  H   H94       1.0  0.526295668229757  0.18865437437241883  0.9055269064767657  1.0000
  H   H95       1.0  0.026294580306874593  0.31134712530974434  0.5944727022279608  1.0000
  H   H96       1.0  0.9737043205088085  0.6886547042871527  0.5944735342039138  1.0000
  C   C1        1.0  0.4178621812281449  0.924556171344797  0.4859567614084668  1.0000
  C   C2        1.0  0.5821378460837181  0.07544345086868279  0.48595647950012477  1.0000
  C   C3        1.0  0.9178620779197714  0.5754432512376084  0.014043339214985903  1.0000
  C   C4        1.0  0.0821379068696331  0.4245566543698587  0.014043343735920599  1.0000
  C   C5        1.0  0.42455599580831915  0.9178622258231783  0.9859562201571136  1.0000
  C   C6        1.0  0.5754435084196174  0.08213766426728598  0.9859563723551332  1.0000
  C   C7        1.0  0.0754429999046522  0.41786384395928167  0.5140432389645966  1.0000
  C   C8        1.0  0.9245564618009892  0.5821380339375182  0.5140432324260757  1.0000
  C   C9        1.0  0.4219419714627435  0.9224131763979672  0.42157275429828184  1.0000
  C   C10       1.0  0.5780580500477227  0.0775864844793546  0.4215729082493169  1.0000
  C   C11       1.0  0.9219418743283823  0.5775868150313386  0.0784269097057262  1.0000
  C   C12       1.0  0.07805811626247561  0.422413620049788  0.0784273516060665  1.0000
  C   C13       1.0  0.4224129796974053  0.9219414721871215  0.9215730854509233  1.0000
  C   C14       1.0  0.57758651872917  0.07805845656691449  0.9215728023731488  1.0000
  C   C15       1.0  0.0775860167247586  0.4219430520322121  0.578426809060602  1.0000
  C   C16       1.0  0.9224134507822371  0.5780582190632587  0.5784272406911626  1.0000
  C   C17       1.0  0.3923504627898282  0.0892015348963398  0.20975922712302258  1.0000
  C   C18       1.0  0.6076489714976603  0.9107982531794289  0.20975952400822  1.0000
  C   C19       1.0  0.8923510108072747  0.4107980561352278  0.2902406126185113  1.0000
  C   C20       1.0  0.107648998869351  0.5892022517474018  0.2902405601096305  1.0000
  C   C21       1.0  0.5892015771371389  0.8923512451003929  0.7097598578448016  1.0000
  C   C22       1.0  0.4107979022037327  0.1076493789895068  0.7097595553992377  1.0000
  C   C23       1.0  0.9107984470140804  0.392351051263411  0.7902405106002135  1.0000
  C   C24       1.0  0.08920160771579327  0.6076489563586163  0.7902404505681132  1.0000
  C   C25       1.0  0.3840267761949931  0.9857991090677986  0.5153077878721106  1.0000
  C   C26       1.0  0.6159732537615952  0.014200495519759196  0.51530752948225  1.0000
  C   C27       1.0  0.8840267046481073  0.5142005755092214  0.9846920993911468  1.0000
  C   C28       1.0  0.11597336760312518  0.48579931534047177  0.9846920839942471  1.0000
  C   C29       1.0  0.4857994362115006  0.8840265259056749  0.0153074775686264  1.0000
  C   C30       1.0  0.514200548691818  0.11597337894261267  0.0153076145091475  1.0000
  C   C31       1.0  0.014200076703040998  0.3840278507599706  0.4846922051119691  1.0000
  C   C32       1.0  0.9857993823578324  0.6159734766252568  0.4846921898330336  1.0000
  C   C33       1.0  0.3296247109562316  0.14043616363314726  0.2269613972624782  1.0000
  C   C34       1.0  0.6703747248812632  0.8595636141124741  0.2269612788177113  1.0000
  C   C35       1.0  0.8296246803793679  0.35956398463086  0.2730388759779245  1.0000
  C   C36       1.0  0.17037475961001286  0.640435765444238  0.2730388086377644  1.0000
  C   C37       1.0  0.6404361862656457  0.8296248879109384  0.7269611775498035  1.0000
  C   C38       1.0  0.3595638627623074  0.1703745895741307  0.7269612869705854  1.0000
  C   C39       1.0  0.8595638269805974  0.3296246954965696  0.7730392131394693  1.0000
  C   C40       1.0  0.14043622619926305  0.6703747543178479  0.7730386967528275  1.0000
  C   C41       1.0  0.28095752124020373  0.26297147714737423  0.2575071600383154  1.0000
  C   C42       1.0  0.7190424854869092  0.7370288503925265  0.2575066508004156  1.0000
  C   C43       1.0  0.7809580347454173  0.237028662655888  0.2424931106126778  1.0000
  C   C44       1.0  0.2190419706288509  0.7629716739001536  0.24249300240788332  1.0000
  C   C45       1.0  0.7629714492250129  0.7809576633789204  0.7575069752364455  1.0000
  C   C46       1.0  0.2370280344180955  0.21904179576271327  0.7575070608789645  1.0000
  C   C47       1.0  0.7370285555604141  0.2809574680053117  0.7424929958749756  1.0000
  C   C48       1.0  0.2629709267298352  0.7190420001525836  0.7424929055858555  1.0000
  C   C49       1.0  0.34270039627192256  0.2185050703964109  0.2400184239892766  1.0000
  C   C50       1.0  0.6573001770165234  0.7814946995082792  0.2400183325339214  1.0000
  C   C51       1.0  0.8426997828090279  0.2814950801408855  0.2599814131104097  1.0000
  C   C52       1.0  0.15730022414101796  0.7185046777754281  0.2599817542258975  1.0000
  C   C53       1.0  0.7185056267454897  0.8427000071005181  0.7400186543662386  1.0000
  C   C54       1.0  0.28149499159626856  0.1573000306809362  0.7400183274334607  1.0000
  C   C55       1.0  0.7814949569110539  0.3426998089552454  0.7599812948498937  1.0000
  C   C56       1.0  0.21850509509221885  0.6572996487005937  0.7599812240901898  1.0000
  C   C57       1.0  0.2077717875510459  0.23309084610034597  0.2616405094777079  1.0000
  C   C58       1.0  0.7922282195485052  0.7669094789573947  0.2616399935373934  1.0000
  C   C59       1.0  0.7077717377413819  0.26690984911714816  0.2383593204427967  1.0000
  C   C60       1.0  0.29222826726039836  0.7330904899213165  0.23835922672858348  1.0000
  C   C61       1.0  0.7330908345054112  0.7077718917679477  0.7616407703428222  1.0000
  C   C62       1.0  0.2669092176474308  0.292228133028928  0.7616403947852745  1.0000
  C   C63       1.0  0.7669097256938854  0.2077717040715612  0.7383592267220253  1.0000
  C   C64       1.0  0.23309089249832482  0.792227766568729  0.7383595457260625  1.0000
  C   C65       1.0  0.48954233929350005  0.8935927301070733  0.3326153951746207  1.0000
  C   C66       1.0  0.5104576742013619  0.10640755232866889  0.3326150984719263  1.0000
  C   C67       1.0  0.989542823322445  0.606407273074481  0.1673847092626062  1.0000
  C   C68       1.0  0.0104577434212274  0.3935925404482745  0.1673847209502597  1.0000
  C   C69       1.0  0.39359308519698283  0.9895424725829828  0.8326152698290841  1.0000
  C   C70       1.0  0.6064069733511276  0.0104575095921575  0.8326150122576478  1.0000
  C   C71       1.0  0.1064070592519499  0.4895428677423367  0.6673850375461683  1.0000
  C   C72       1.0  0.8935924162706215  0.5104572136570839  0.6673846179431564  1.0000
  C   C73       1.0  0.44735134296025336  0.8722965860548229  0.5807306142579378  1.0000
  C   C74       1.0  0.5526486928914237  0.1277035473823105  0.5807307490844025  1.0000
  C   C75       1.0  0.9473512852508038  0.62770367766867  0.9192692763745072  1.0000
  C   C76       1.0  0.05264934924259989  0.37229625246899195  0.9192688610228217  1.0000
  C   C77       1.0  0.3722964242512319  0.9473511016564232  0.0807307047331065  1.0000
  C   C78       1.0  0.6277035665471544  0.05264876390381091  0.0807308701691554  1.0000
  C   C79       1.0  0.1277036678094063  0.447351349256337  0.41926895549129023  1.0000
  C   C80       1.0  0.8722963534935885  0.5526494492793715  0.4192693934657399  1.0000
  C   C81       1.0  0.3716209204219325  0.9504416959471129  0.325940084813837  1.0000
  C   C82       1.0  0.6283785243341952  0.0495580223596122  0.3259402513818372  1.0000
  C   C83       1.0  0.8716219633063388  0.5495577185963539  0.17406001334930468  1.0000
  C   C84       1.0  0.12837860403882928  0.45044209091773985  0.1740600111509281  1.0000
  C   C85       1.0  0.4504420203839956  0.871620997214329  0.8259404319430601  1.0000
  C   C86       1.0  0.5495580375626331  0.1283784208315808  0.8259405663656311  1.0000
  C   C87       1.0  0.049557535427062795  0.37162137848217464  0.6740594804135327  1.0000
  C   C88       1.0  0.9504419406969545  0.6283786989088469  0.6740598956903412  1.0000
  C   C89       1.0  0.3847858104013183  0.9875802019491715  0.5760328534256018  1.0000
  C   C90       1.0  0.6152142250270103  0.0124193661715566  0.5760330324633856  1.0000
  C   C91       1.0  0.8847863012102833  0.5124194827598528  0.923967033878064  1.0000
  C   C92       1.0  0.11521433370639035  0.48757987641909023  0.9239670178092396  1.0000
  C   C93       1.0  0.4875799810367595  0.8847855395209762  0.0760334170033303  1.0000
  C   C94       1.0  0.5124194412011319  0.11521432886016922  0.0760331172818667  1.0000
  C   C95       1.0  0.0124201001468762  0.3847857642578774  0.4239667022447122  1.0000
  C   C96       1.0  0.9875804897165779  0.6152144633192904  0.4239671241658911  1.0000
  C   C97       1.0  0.4493449331975654  0.8663743391406911  0.520227025570577  1.0000
  C   C98       1.0  0.5506550972022737  0.133625262492771  0.52022672135449  1.0000
  C   C99       1.0  0.9493448819694734  0.6336259249293903  0.9797728651679449  1.0000
  C   C100      1.0  0.05065518983857229  0.3663745370117582  0.979773325483059  1.0000
  C   C101      1.0  0.36637415939753026  0.9493447137805828  0.0202271144315844  1.0000
  C   C102      1.0  0.6336252578118504  0.0506551881134243  0.0202268440532904  1.0000
  C   C103      1.0  0.1336253648725503  0.44934549421370223  0.47977298192213164  1.0000
  C   C104      1.0  0.8663740937450156  0.5506552679881266  0.4797729834522642  1.0000
  C   C105      1.0  0.194156940018992  0.15532134793640034  0.24796404865757177  1.0000
  C   C106      1.0  0.8058430658482363  0.8446789853342267  0.24796394269915106  1.0000
  C   C107      1.0  0.6941569049618436  0.3446787767766608  0.252035780538634  1.0000
  C   C108      1.0  0.30584310127223086  0.6553209859112883  0.2520357151276329  1.0000
  C   C109      1.0  0.6553208022616488  0.6941570421694223  0.7479642964405641  1.0000
  C   C110      1.0  0.34467811238442886  0.3058429908403681  0.7479639201927243  1.0000
  C   C111      1.0  0.8446786192962321  0.1941562916427557  0.7520357054525064  1.0000
  C   C112      1.0  0.15532143199110485  0.8058431707844704  0.752036015490347  1.0000
  C   C113      1.0  0.48583751915130324  0.892298494363956  0.3932495991818783  1.0000
  C   C114      1.0  0.514161931669875  0.10770118352184713  0.39325017589024464  1.0000
  C   C115      1.0  0.9858379979416441  0.6077009400361462  0.1067500682219205  1.0000
  C   C116      1.0  0.014161995201249099  0.39229890989894756  0.1067500805654404  1.0000
  C   C117      1.0  0.39229887103709155  0.9858376296553929  0.8932499111643041  1.0000
  C   C118      1.0  0.6077011929745169  0.014161179832228797  0.8932500891845264  1.0000
  C   C119      1.0  0.10770127276784079  0.48583919772726597  0.6067499606881555  1.0000
  C   C120      1.0  0.8922987654283929  0.5141614882222283  0.6067499765391844  1.0000
  C   C121      1.0  0.2556913086905226  0.11037600100286939  0.23132670684621104  1.0000
  C   C122      1.0  0.7443092638147917  0.8896243422588908  0.2313265816750771  1.0000
  C   C123      1.0  0.7556907148090417  0.38962413440789584  0.2686731256240122  1.0000
  C   C124      1.0  0.2443087247870039  0.6103761864264213  0.2686730728775828  1.0000
  C   C125      1.0  0.6103760401323584  0.7556908791329988  0.7313269329164739  1.0000
  C   C126      1.0  0.38962400928900814  0.2443091638679816  0.7313265808813939  1.0000
  C   C127      1.0  0.8896239602604366  0.2556906945664323  0.7686730471551401  1.0000
  C   C128      1.0  0.11037552438880027  0.7443087578697885  0.7686729397867396  1.0000
  C   C129      1.0  0.3634812213900318  0.9514415990913603  0.3863558700925651  1.0000
  C   C130      1.0  0.6365193650843608  0.0485580829346262  0.3863556006118714  1.0000
  C   C131      1.0  0.863481122382339  0.5485578140367837  0.1136446644738669  1.0000
  C   C132      1.0  0.1365188713818029  0.45144203175797054  0.1136446623540266  1.0000
  C   C133      1.0  0.45144194389195036  0.8634807051238839  0.8863553454127809  1.0000
  C   C134      1.0  0.5485581194985015  0.13651924477908042  0.8863554768953108  1.0000
  C   C135      1.0  0.0485576105039982  0.3634822587734589  0.6136441329939331  1.0000
  C   C136      1.0  0.9514412920390928  0.6365189911732115  0.6136445454374027  1.0000
  C   C137      1.0  0.1435808097646429  0.28341872728974243  0.2787662333676337  1.0000
  C   C138      1.0  0.8564197670152324  0.7165810193460513  0.2787661755267052  1.0000
  C   C139      1.0  0.6435801815250244  0.21658082049310684  0.22123359313766852  1.0000
  C   C140      1.0  0.35641982193357075  0.7834189606922309  0.221233484991096  1.0000
  C   C141      1.0  0.7834192646494671  0.6435797397837391  0.7787665175851118  1.0000
  C   C142      1.0  0.2165807890464819  0.35641970659114725  0.7787665534222085  1.0000
  C   C143      1.0  0.7165807162528637  0.1435801217595625  0.7212335022436848  1.0000
  C   C144      1.0  0.283419332258994  0.8564193591650451  0.7212338011616737  1.0000
  N   N1        1.0  0.43402454009277136  0.9229415820415029  0.2992712286695109  1.0000
  N   N2        1.0  0.5659760385347496  0.07705815228054289  0.2992713821650597  1.0000
  N   N3        1.0  0.934024453886714  0.5770584114883591  0.20072843597737489  1.0000
  N   N4        1.0  0.065976115861524  0.4229419501481432  0.2007288770474815  1.0000
  N   N5        1.0  0.4229419109822601  0.9340240890746401  0.7992715574660919  1.0000
  N   N6        1.0  0.5770581445613628  0.06597591312412021  0.7992712786449586  1.0000
  N   N7        1.0  0.0770582238147313  0.434023890970714  0.7007283327609953  1.0000
  N   N8        1.0  0.9229418228494879  0.5659756022676489  0.7007287687041241  1.0000
  N   N9        1.0  0.4166350110438941  0.9324021133152556  0.6083080851916165  1.0000
  N   N10       1.0  0.5833650272926221  0.06759743542365022  0.6083078061309379  1.0000
  N   N11       1.0  0.9166349404001648  0.5675975769305737  0.8916922406430317  1.0000
  N   N12       1.0  0.08336512347117518  0.43240236976750873  0.891692242446993  1.0000
  N   N13       1.0  0.43240193106267805  0.9166347449003497  0.1083081941867476  1.0000
  N   N14       1.0  0.5675974940834009  0.08336510409897362  0.1083083455320164  1.0000
  N   N15       1.0  0.0675975875206802  0.41663443047410453  0.3916919137668984  1.0000
  N   N16       1.0  0.9324018631601306  0.5833652483471637  0.39169234404662484  1.0000
  O   O1        1.0  0.37823054220926616  0.019207564738337596  0.20179483777580737  1.0000
  O   O2        1.0  0.6217694594977913  0.9807922281202719  0.2017951105907585  1.0000
  O   O3        1.0  0.8782299668384326  0.4807925919758844  0.2982050012143205  1.0000
  O   O4        1.0  0.1217694754185743  0.5192071429864101  0.29820497427859044  1.0000
  O   O5        1.0  0.5192076391315936  0.878230183954102  0.7017954571042182  1.0000
  O   O6        1.0  0.4807924076287904  0.121769876781137  0.7017951533752509  1.0000
  O   O7        1.0  0.9807923825646796  0.3782299975027782  0.7982049163484604  1.0000
  O   O8        1.0  0.019207672882842496  0.6217700053364581  0.7982048475845573  1.0000
  O   O9        1.0  0.4112626298336011  0.25347621257699865  0.2373012971575434  1.0000
  O   O10       1.0  0.5887373750728669  0.7465241270966984  0.2373016512921069  1.0000
  O   O11       1.0  0.9112625786730177  0.24652394987990087  0.2626985435901332  1.0000
  O   O12       1.0  0.0887374285218598  0.7534758064047223  0.262698868656031  1.0000
  O   O13       1.0  0.7534761824120864  0.9112622757893974  0.7373010838483296  1.0000
  O   O14       1.0  0.2465238675475661  0.0887371954863312  0.7373012162051893  1.0000
  O   O15       1.0  0.7465244131640388  0.41126263807016267  0.7626984042174813  1.0000
  O   O16       1.0  0.25347563908413656  0.5887373860913527  0.7626987964687616  1.0000
  O   O17       1.0  0.12389313586457011  0.12455499126212287  0.2505173610456595  1.0000
  O   O18       1.0  0.8761068702327319  0.8754453404751814  0.250517247915262  1.0000
  O   O19       1.0  0.6238931059260792  0.3754451212355718  0.249482464412047  1.0000
  O   O20       1.0  0.3761069000779429  0.6245546429855721  0.24948285048643018  1.0000
  O   O21       1.0  0.6245550299480412  0.6238932020960064  0.7505176168828028  1.0000
  O   O22       1.0  0.37544502120252327  0.3761068293805749  0.7505172173547051  1.0000
  O   O23       1.0  0.8754455156688933  0.1238924584513796  0.7494824099275235  1.0000
  O   O24       1.0  0.12455453538837699  0.8761070055091622  0.7494826934111387  1.0000
  O   O25       1.0  0.45877706802196627  0.11942929784780884  0.204020066808134  1.0000
  O   O26       1.0  0.5412235020227881  0.8805704936746748  0.20401993404210117  1.0000
  O   O27       1.0  0.9587764750271004  0.380570872869292  0.2959802133040128  1.0000
  O   O28       1.0  0.0412235351667007  0.6194294315665871  0.2959801465415737  1.0000
  O   O29       1.0  0.619429323033465  0.9587767491635331  0.7040198164757997  1.0000
  O   O30       1.0  0.3805707239273702  0.041223310235800184  0.7040199728145069  1.0000
  O   O31       1.0  0.8805707126658006  0.4587765466245772  0.7959800915767447  1.0000
  O   O32       1.0  0.1194293425811921  0.5412228894132126  0.7959800567091264  1.0000
  O   O33       1.0  0.159716481353982  0.3527667237198956  0.291961302026948  1.0000
  O   O34       1.0  0.8402840966149012  0.6472335831294701  0.291961267919838  1.0000
  O   O35       1.0  0.6597164080065169  0.1472333950056921  0.2080385253367965  1.0000
  O   O36       1.0  0.3402830261259239  0.8527663941033978  0.2080388285758161  1.0000
  O   O37       1.0  0.8527660947810672  0.6597165511376488  0.7919615970949961  1.0000
  O   O38       1.0  0.147232823829448  0.3402834554508373  0.7919611981283339  1.0000
  O   O39       1.0  0.6472338889265998  0.1597163608439516  0.7080384170114016  1.0000
  O   O40       1.0  0.3527667265335594  0.8402836961421299  0.7080387253413177  1.0000
  O   O41       1.0  0.07633267820160229  0.2571167961153549  0.2786644533592977  1.0000
  O   O42       1.0  0.9236678985691286  0.7428835187191891  0.278663952932618  1.0000
  O   O43       1.0  0.5763326226809581  0.24288273997645146  0.2213353695679743  1.0000
  O   O44       1.0  0.4236668126495928  0.7571170411477153  0.221335274326691  1.0000
  O   O45       1.0  0.7571167784183288  0.5763321428597195  0.7786647459262213  1.0000
  O   O46       1.0  0.24288270713123694  0.4236673035762378  0.7786647593151699  1.0000
  O   O47       1.0  0.7428831907929591  0.07633196120961118  0.7213352977502723  1.0000
  O   O48       1.0  0.25711685772807147  0.9236675196538685  0.7213355714210011  1.0000
