data_image0
_chemical_formula_structural       Ce2Cd2H34C42N6O32
_chemical_formula_sum              "Ce2 Cd2 H34 C42 N6 O32"
_cell_length_a       9.572524931361574
_cell_length_b       11.816353019872041
_cell_length_c       13.435625994256423
_cell_angle_alpha    88.52298591381148
_cell_angle_beta     69.63662465987258
_cell_angle_gamma    85.75199322432621

_space_group_name_H-M_alt    "P 1"
_space_group_IT_number       1

loop_
  _space_group_symop_operation_xyz
  'x, y, z'

loop_
  _atom_site_type_symbol
  _atom_site_label
  _atom_site_symmetry_multiplicity
  _atom_site_fract_x
  _atom_site_fract_y
  _atom_site_fract_z
  _atom_site_occupancy
  Ce  Ce1       1.0  0.050562244475365524  0.2717752636573962  0.2628277823150853  1.0000
  Ce  Ce2       1.0  0.31234038579778894  0.7698195983257677  0.737209146148281  1.0000
  Cd  Cd1       1.0  0.5648403963370469  0.4886671261657797  0.12097113016737633  1.0000
  Cd  Cd2       1.0  0.6864633982307566  0.9879470459544919  0.8783786111393681  1.0000
  H   H1        1.0  0.9870658511307796  0.6044115806531423  0.5644175329221142  1.0000
  H   H2        1.0  0.5469564905386689  0.1039843318241154  0.43786292783141795  1.0000
  H   H3        1.0  0.798449660221301  0.7403072743353079  0.5182798726209299  1.0000
  H   H4        1.0  0.3137158864270333  0.24021862335175112  0.48344764179400807  1.0000
  H   H5        1.0  0.7077393698679161  0.6861664123211142  0.3745244216979131  1.0000
  H   H6        1.0  0.08128455236668224  0.18559489874589022  0.6257975538776748  1.0000
  H   H7        1.0  0.3154859409190607  0.8634185656562394  0.3516659490916254  1.0000
  H   H8        1.0  0.6690651610929306  0.3635369770142844  0.6486379938981486  1.0000
  H   H9        1.0  0.10384910645868209  0.8093642624897656  0.5113987772129676  1.0000
  H   H10       1.0  0.6177347747594976  0.309925651480242  0.4870460086823201  1.0000
  H   H11       1.0  0.8745250622115249  0.9454008264535078  0.5804591833243009  1.0000
  H   H12       1.0  0.45650283029311833  0.4453563035099677  0.41705466628883414  1.0000
  H   H13       1.0  0.41212359284914873  0.3600542563179374  0.8476290991416205  1.0000
  H   H14       1.0  0.26108050749255096  0.8609906748394138  0.1533733257485963  1.0000
  H   H15       1.0  0.3216699656122088  0.212404380285605  0.7561510269849663  1.0000
  H   H16       1.0  0.0777714823012445  0.7154394265561237  0.2446213121610796  1.0000
  H   H17       1.0  0.11164737117387351  0.0955770915856391  0.8684733412173599  1.0000
  H   H18       1.0  0.9803354857088067  0.5974512309573754  0.13148848083059755  1.0000
  H   H19       1.0  0.8525568347318925  0.4136579443065926  0.9928227500652581  1.0000
  H   H20       1.0  0.8501530764941805  0.9135751748270238  0.005067575891267495  1.0000
  H   H21       1.0  0.8158403901987725  0.36192715216999727  0.10606784211674385  1.0000
  H   H22       1.0  0.9236196745999904  0.861033105647124  0.8920391979354179  1.0000
  H   H23       1.0  0.36736775503440805  0.3435350942626059  0.2866184894396183  1.0000
  H   H24       1.0  0.652651458793322  0.8416227083548335  0.7130807622609865  1.0000
  H   H25       1.0  0.4782289773216488  0.2682195619717973  0.1983187905833645  1.0000
  H   H26       1.0  0.6767754824335273  0.7677031496374909  0.8024641655519957  1.0000
  H   H27       1.0  0.38196299313796095  0.640492193676188  0.2918143584647694  1.0000
  H   H28       1.0  0.675658569939671  0.1404077857734052  0.7068252458112808  1.0000
  H   H29       1.0  0.47406130706313115  0.708878775068932  0.190766246435615  1.0000
  H   H30       1.0  0.6640361788550988  0.2086153091576364  0.8091038721195432  1.0000
  H   H31       1.0  0.7752632212105367  0.6011749586414794  0.9608286599048411  1.0000
  H   H32       1.0  0.7341394260376005  0.09881795667806872  0.0417219006799954  1.0000
  H   H33       1.0  0.6529463018332818  0.5713944719463271  0.91344589934306  1.0000
  H   H34       1.0  0.5649991122965332  0.0698402608646802  0.08710169823260834  1.0000
  C   C1        1.0  0.9988394585435288  0.48833446863338287  0.4408612360947616  1.0000
  C   C2        1.0  0.4365641388540809  0.987139163375808  0.5601079516225127  1.0000
  C   C3        1.0  0.9451220346439867  0.5869886423937132  0.5011084967107067  1.0000
  C   C4        1.0  0.44261409490508186  0.0862957767084609  0.5004564382286817  1.0000
  C   C5        1.0  0.840946420302501  0.6604567373170909  0.47640982909334884  1.0000
  C   C6        1.0  0.31449780550323675  0.1599599019634255  0.5248690736467978  1.0000
  C   C7        1.0  0.7889374658020428  0.630963082882019  0.39610414796701565  1.0000
  C   C8        1.0  0.18339491365904334  0.1301972362075077  0.6043328186201933  1.0000
  C   C9        1.0  0.8437749798512969  0.5282423405113335  0.3430038025175506  1.0000
  C   C10       1.0  0.18541210135055755  0.026929985033596903  0.656813456500025  1.0000
  C   C11       1.0  0.7918043115551895  0.4833598807381634  0.25906689151646134  1.0000
  C   C12       1.0  0.050600306328746625  0.981881986301282  0.7400014234075484  1.0000
  C   C13       1.0  0.1169811939373915  0.405280405633512  0.4559527439351784  1.0000
  C   C14       1.0  0.5694227054189583  0.9042106955667464  0.5455942744234719  1.0000
  C   C15       1.0  0.20020990946883196  0.021375792305136105  0.3314186014520573  1.0000
  C   C16       1.0  0.5319587866298434  0.5205428461453536  0.6689393034015509  1.0000
  C   C17       1.0  0.21335138821523705  0.9183197877444869  0.3815112693856832  1.0000
  C   C18       1.0  0.5962746807486355  0.4181454265293709  0.6183665535560294  1.0000
  C   C19       1.0  0.0940710168700392  0.8886462266847489  0.4707641562686788  1.0000
  C   C20       1.0  0.566712103422205  0.3887230558512442  0.5280302051239474  1.0000
  C   C21       1.0  0.9676820486354886  0.9634118557077116  0.5091715865740838  1.0000
  C   C22       1.0  0.47807682368943466  0.46317130243258486  0.48914409695473904  1.0000
  C   C23       1.0  0.9629746603701079  0.0641477437031099  0.45399419332040475  1.0000
  C   C24       1.0  0.41709962505206  0.5632299359279216  0.5448861910239913  1.0000
  C   C25       1.0  0.8356161546669582  0.1535121164247215  0.4862976244668005  1.0000
  C   C26       1.0  0.3209497804442876  0.6520596804724619  0.5123117298364406  1.0000
  C   C27       1.0  0.32159360330545184  0.0667606328415218  0.2371754372142476  1.0000
  C   C28       1.0  0.5587334899158806  0.5658640404701885  0.7641067936099759  1.0000
  C   C29       1.0  0.25121219428015  0.3237283932263608  0.0002030991535235941  1.0000
  C   C30       1.0  0.2530159326530281  0.8229921893081525  4.2965383613613205e-05  1.0000
  C   C31       1.0  0.3196744376906653  0.3092467585569807  0.8908442231839118  1.0000
  C   C32       1.0  0.2117368027857934  0.8099379270099263  0.1097289239724049  1.0000
  C   C33       1.0  0.2692916354890756  0.22693438607577582  0.8412898893200165  1.0000
  C   C34       1.0  0.11106163422467571  0.7287431820036474  0.1591783022120978  1.0000
  C   C35       1.0  0.15402344110894714  0.1617750919170007  0.902449322333382  1.0000
  C   C36       1.0  0.0570105804818013  0.662968641133169  0.09759698807371818  1.0000
  C   C37       1.0  0.0932361877316055  0.1807323281830122  0.011700963924177207  1.0000
  C   C38       1.0  0.10583304656611156  0.68046456038185  0.988076404927277  1.0000
  C   C39       1.0  0.9743086152327862  0.1130042729258349  0.08873862518463234  1.0000
  C   C40       1.0  0.06358273576428547  0.6121602947560518  0.9106855349496498  1.0000
  C   C41       1.0  0.30024834200202116  0.40164323679712066  0.0663460560702873  1.0000
  C   C42       1.0  0.36824910186624754  0.89989293657478  0.9339668499178161  1.0000
  N   N1        1.0  0.9490420321126154  0.4607518977772997  0.3638014850984063  1.0000
  N   N2        1.0  0.31074409652679685  0.9591959306542392  0.6362789724094  1.0000
  N   N3        1.0  0.07590564850142564  0.0906636040535105  0.3666125146354418  1.0000
  N   N4        1.0  0.442193870418947  0.589412290129772  0.6332677157634307  1.0000
  N   N5        1.0  0.1407060121314174  0.2609299492082471  0.05812306778100409  1.0000
  N   N6        1.0  0.20015929456491208  0.759757556586834  0.9417749996562108  1.0000
  O   O1        1.0  0.1702277638426111  0.3292376092986586  0.3796556369543751  1.0000
  O   O2        1.0  0.5470798446751886  0.827402447460905  0.6212900187644053  1.0000
  O   O3        1.0  0.15646219059161137  0.41106542195588264  0.5337830195381058  1.0000
  O   O4        1.0  0.6861085110821818  0.9109554967593781  0.4689097279787617  1.0000
  O   O5        1.0  0.8570118814741929  0.3875205667609123  0.21750728921220738  1.0000
  O   O6        1.0  0.07458689907253559  0.8855767820554377  0.781158404721019  1.0000
  O   O7        1.0  0.6921764188039673  0.5402222547584827  0.23487175594284085  1.0000
  O   O8        1.0  0.9275050691322446  0.0389506328561495  0.7641466271814608  1.0000
  O   O9        1.0  0.2856450190302837  0.1640884195530248  0.20240829807367083  1.0000
  O   O10       1.0  0.4875154022956354  0.6627429092361794  0.7988794229101472  1.0000
  O   O11       1.0  0.44537790543994044  0.0125018131819132  0.20006360283176858  1.0000
  O   O12       1.0  0.6458928349188113  0.5120397122814708  0.8018701947487726  1.0000
  O   O13       1.0  0.8470505619371238  0.233555289309912  0.41668972584659514  1.0000
  O   O14       1.0  0.2621087645653901  0.7313688003843737  0.5823364692088333  1.0000
  O   O15       1.0  0.7312151944037099  0.149345411108186  0.5732594008183297  1.0000
  O   O16       1.0  0.3030970725557297  0.6481076750429082  0.4247793832195441  1.0000
  O   O17       1.0  0.21625582322661782  0.410790470321956  0.1641997043179728  1.0000
  O   O18       1.0  0.38031382862113355  0.9091547332804168  0.8360140453058166  1.0000
  O   O19       1.0  0.4213300766765117  0.44766199360060455  0.023667736484355828  1.0000
  O   O20       1.0  0.4483068429602497  0.9450452562849492  0.9765919247474952  1.0000
  O   O21       1.0  0.9499048709770934  0.134018554749332  0.1872808318379812  1.0000
  O   O22       1.0  0.13771387702122678  0.6320679811146306  0.8122344275904325  1.0000
  O   O23       1.0  0.9087434398447485  0.0439243721352156  0.054562255167674295  1.0000
  O   O24       1.0  0.9638486706848822  0.5436820628186751  0.9445395332253241  1.0000
  O   O25       1.0  0.7812741400754036  0.3656924620456508  0.04393263434220529  1.0000
  O   O26       1.0  0.828500415484264  0.8652099943575067  0.9543428969935661  1.0000
  O   O27       1.0  0.4738882257531928  0.3357609216750745  0.24038915703214775  1.0000
  O   O28       1.0  0.7136494358940267  0.8347650412137071  0.7596566596553416  1.0000
  O   O29       1.0  0.41326155121490854  0.6440046159379307  0.21280455863084313  1.0000
  O   O30       1.0  0.6270336655235269  0.1434050980296178  0.7856830051638113  1.0000
  O   O31       1.0  0.6663027901309561  0.6066425925222205  0.9767080748593527  1.0000
  O   O32       1.0  0.6417069966302833  0.10448162089040382  0.024477100977051778  1.0000
