data_image0
_chemical_formula_structural       Al4H20C28O20
_chemical_formula_sum              "Al4 H20 C28 O20"
_cell_length_a       6.688819785345672
_cell_length_b       13.108487856628196
_cell_length_c       16.936795724912603
_cell_angle_alpha    90.00088693143299
_cell_angle_beta     90.00062483044232
_cell_angle_gamma    100.18687087055473

_space_group_name_H-M_alt    "P 1"
_space_group_IT_number       1

loop_
  _space_group_symop_operation_xyz
  'x, y, z'

loop_
  _atom_site_type_symbol
  _atom_site_label
  _atom_site_symmetry_multiplicity
  _atom_site_fract_x
  _atom_site_fract_y
  _atom_site_fract_z
  _atom_site_occupancy
  Al  Al1       1.0  0.16400462136246574  0.7528696536797241  0.7499949983621262  1.0000
  Al  Al2       1.0  0.8360008546314859  0.24713011797333448  0.2500098509127966  1.0000
  Al  Al3       1.0  0.66355217174916  0.7512894027388982  0.7499925335349289  1.0000
  Al  Al4       1.0  0.3364515457424986  0.24870959049714256  0.2500087731487993  1.0000
  H   H1        1.0  0.17671286537561318  0.9729878125339652  0.9238639371653788  1.0000
  H   H2        1.0  0.8232993344018099  0.026996484024891708  0.07614268332326898  1.0000
  H   H3        1.0  0.8232822762891275  0.027029137850512096  0.4238725667464678  1.0000
  H   H4        1.0  0.17669264475539143  0.9729775369661907  0.5761393676685741  1.0000
  H   H5        1.0  0.21444301948626793  0.0833052360314639  0.046535149306023996  1.0000
  H   H6        1.0  0.7855660807341992  0.9166875731880636  0.9534738329484467  1.0000
  H   H7        1.0  0.7855475899902659  0.916693653199303  0.5465302698103045  1.0000
  H   H8        1.0  0.21441273887821666  0.08330524439089967  0.4534757602220623  1.0000
  H   H9        1.0  0.3053229441072248  0.45955432578087846  0.0478619261932849  1.0000
  H   H10       1.0  0.6946813753152625  0.540450864678661  0.9521322953632494  1.0000
  H   H11       1.0  0.6946912814300675  0.5404523913425691  0.5478604300671391  1.0000
  H   H12       1.0  0.305314349347654  0.4595566744751096  0.4521320202239991  1.0000
  H   H13       1.0  0.8398205622720311  0.4416497712697803  0.05964974583551451  1.0000
  H   H14       1.0  0.16019217988066006  0.5583670552811314  0.9403491992523811  1.0000
  H   H15       1.0  0.1601881731859933  0.5583618542267812  0.5596420037622635  1.0000
  H   H16       1.0  0.8398082479982419  0.441633250251641  0.4403439516905721  1.0000
  H   H17       1.0  0.3648082640363769  0.6149478499891715  0.7500719593310663  1.0000
  H   H18       1.0  0.6351974734408543  0.385052696217187  0.24988801723448972  1.0000
  H   H19       1.0  0.959106567301234  0.8896306448839227  0.7500843375534741  1.0000
  H   H20       1.0  0.04089680963838301  0.1103629256131669  0.24987327724353037  1.0000
  C   C1        1.0  0.45636435800567193  0.873260789303849  0.8592543273071128  1.0000
  C   C2        1.0  0.543646685388353  0.12672892618522272  0.14075229321132096  1.0000
  C   C3        1.0  0.543632305957864  0.1267438219845403  0.359259976794597  1.0000
  C   C4        1.0  0.45634878435488  0.8732589938504276  0.6407431011540438  1.0000
  C   C5        1.0  0.5206243804856783  0.0607513249021778  0.06829481471253729  1.0000
  C   C6        1.0  0.4793916759394321  0.9392399506316164  0.9317112153956586  1.0000
  C   C7        1.0  0.4793748972472614  0.9392581569590632  0.5682941854519256  1.0000
  C   C8        1.0  0.5205930674150068  0.06075005142650978  0.43171066379166934  1.0000
  C   C9        1.0  0.31731710618105075  0.9853518330820421  0.9578424086988733  1.0000
  C   C10       1.0  0.6826920715410054  0.014645623291968899  0.04216657358348639  1.0000
  C   C11       1.0  0.6826752260791906  0.014649635061367398  0.45783610839449546  1.0000
  C   C12       1.0  0.3172993550715121  0.9853516174494743  0.5421693312524736  1.0000
  C   C13       1.0  0.8726364768128362  0.630270187104422  0.64101238489485  1.0000
  C   C14       1.0  0.1273677651185139  0.3697303562074977  0.35898242706426226  1.0000
  C   C15       1.0  0.1273725931710672  0.36974022961136643  0.14102266306983316  1.0000
  C   C16       1.0  0.87264036354037  0.6302595584799775  0.8589768723473765  1.0000
  C   C17       1.0  0.33779227400243184  0.0458551729338765  0.025771526638173697  1.0000
  C   C18       1.0  0.6622165638884853  0.9541368611755272  0.9742345034588308  1.0000
  C   C19       1.0  0.6622148454183475  0.9541455944311679  0.5257760038136893  1.0000
  C   C20       1.0  0.3377504964812204  0.04585486320375759  0.47422943580843213  1.0000
  C   C21       1.0  0.8490253965098588  0.5631476725695136  0.9296657069473468  1.0000
  C   C22       1.0  0.15098939615322135  0.43685754105896973  0.07033441893666038  1.0000
  C   C23       1.0  0.15097494547782736  0.43683999297714843  0.4296692126527546  1.0000
  C   C24       1.0  0.8490263041393719  0.5631605437415954  0.5703261897302595  1.0000
  C   C25       1.0  0.00901288445602688  0.5323159401237446  0.9654455517989503  1.0000
  C   C26       1.0  0.9909999650021605  0.4676923672145675  0.0345551645297348  1.0000
  C   C27       1.0  0.9909728679793943  0.46767871953582585  0.4654436346127468  1.0000
  C   C28       1.0  0.009016859361096861  0.5323186937590874  0.5345499964352031  1.0000
  O   O1        1.0  0.616504104200807  0.8466476677457988  0.6684834850714337  1.0000
  O   O2        1.0  0.38349315196230555  0.15336757577706084  0.33152608772149955  1.0000
  O   O3        1.0  0.3834850514075043  0.15333700977294737  0.16850115382133873  1.0000
  O   O4        1.0  0.6165146546840461  0.8466457103441698  0.8315149135179851  1.0000
  O   O5        1.0  0.27810140315866516  0.848888059965546  0.8306515714971778  1.0000
  O   O6        1.0  0.7219114761765582  0.1511070810537944  0.16935504905760718  1.0000
  O   O7        1.0  0.7218907317573127  0.15111432859420398  0.3306630109937529  1.0000
  O   O8        1.0  0.2780941675158816  0.8488776527009846  0.6693418381899292  1.0000
  O   O9        1.0  0.05094358211673718  0.6575152780423251  0.8308766612562337  1.0000
  O   O10       1.0  0.949066537367294  0.3424937978197987  0.1691281880842794  1.0000
  O   O11       1.0  0.9490689345819162  0.34246779815241263  0.33087838228308897  1.0000
  O   O12       1.0  0.05094693699432893  0.6575273494119853  0.6691235148346165  1.0000
  O   O13       1.0  0.3919169177109653  0.6899115949339532  0.7499980711038033  1.0000
  O   O14       1.0  0.6080913657064925  0.31009205531540823  0.24999969303490135  1.0000
  O   O15       1.0  0.7101274050790067  0.6553357139395286  0.6685852829222299  1.0000
  O   O16       1.0  0.2898755731530116  0.34467876750833426  0.331407167395426  1.0000
  O   O17       1.0  0.2898804351070651  0.3446776633820434  0.16858829392783997  1.0000
  O   O18       1.0  0.710124176292162  0.6553151357174158  0.831401794542259  1.0000
  O   O19       1.0  0.934719829367019  0.8146519902965892  0.7499994058233029  1.0000
  O   O20       1.0  0.06527966184190598  0.18534776806699674  0.2499977678426076  1.0000
