data_image0
_chemical_formula_structural       CuH16C22N6O10
_chemical_formula_sum              "Cu1 H16 C22 N6 O10"
_cell_length_a       9.02236642225688
_cell_length_b       7.367879439896173
_cell_length_c       12.675427266540975
_cell_angle_alpha    73.32940361175184
_cell_angle_beta     72.31622915177677
_cell_angle_gamma    64.54377128369674

_space_group_name_H-M_alt    "P 1"
_space_group_IT_number       1

loop_
  _space_group_symop_operation_xyz
  'x, y, z'

loop_
  _atom_site_type_symbol
  _atom_site_label
  _atom_site_symmetry_multiplicity
  _atom_site_fract_x
  _atom_site_fract_y
  _atom_site_fract_z
  _atom_site_occupancy
  Cu  Cu1       1.0  0.9999995913616431  4.6211747745084375e-06  0.9999990706284766  1.0000
  H   H1        1.0  0.18064153495038948  0.6759105823464607  0.6410684435331436  1.0000
  H   H2        1.0  0.8193522083958983  0.32407481157645174  0.35895291020684555  1.0000
  H   H3        1.0  0.7714657666383933  0.8766647169460311  0.47083966756596146  1.0000
  H   H4        1.0  0.2285560285456327  0.1233271629616439  0.5291528518302471  1.0000
  H   H5        1.0  0.6932478756976792  0.09007789936256222  0.7734631769456257  1.0000
  H   H6        1.0  0.3067415767627822  0.909920061362051  0.2265357038092475  1.0000
  H   H7        1.0  0.3562715523798659  0.36926799412597694  0.6098226845394239  1.0000
  H   H8        1.0  0.6437342694617173  0.6307263316938218  0.3901663613903068  1.0000
  H   H9        1.0  0.5186830350113212  0.3506208011941183  0.6717955299454843  1.0000
  H   H10       1.0  0.4813180568492756  0.6493771658990752  0.3281976911441619  1.0000
  H   H11       1.0  0.3140590769170829  0.06450090471101791  0.037644908263949596  1.0000
  H   H12       1.0  0.6859149798043659  0.9355696721680148  0.9623523903230052  1.0000
  H   H13       1.0  0.14636683887732  0.184963215916369  0.7398974824617215  1.0000
  H   H14       1.0  0.8536491605172075  0.8149943673326446  0.2600966801908413  1.0000
  H   H15       1.0  0.13119056596470818  0.5889195813002813  0.3154936359358091  1.0000
  H   H16       1.0  0.8688280542250271  0.4110850663171419  0.6845070648729463  1.0000
  C   C1        1.0  0.9424637197461366  0.8796192198897473  0.7169360057299413  1.0000
  C   C2        1.0  0.05752476301494619  0.12037134561470707  0.2830742280039616  1.0000
  C   C3        1.0  0.049811569703756255  0.7619062287845607  0.6355430298286892  1.0000
  C   C4        1.0  0.950180480513673  0.2380807050548981  0.3644712073832681  1.0000
  C   C5        1.0  0.9895291457300178  0.7614622982783812  0.5459874568440669  1.0000
  C   C6        1.0  0.010479274841614516  0.2385244214708138  0.45401777928681514  1.0000
  C   C7        1.0  0.8211332910488169  0.8746400680555552  0.539489703922385  1.0000
  C   C8        1.0  0.17887436400993556  0.1253488931238991  0.4605112362989133  1.0000
  C   C9        1.0  0.7142435817648121  0.992797636818558  0.6213811684969173  1.0000
  C   C10       1.0  0.28575650675501413  0.007193020383340451  0.3786162547073603  1.0000
  C   C11       1.0  0.7744950833675974  0.9972960280153629  0.7096499880131761  1.0000
  C   C12       1.0  0.22549554324410082  0.0026950701042239267  0.2903541180228117  1.0000
  C   C13       1.0  0.010135931278235035  0.8790961284450417  0.8122641331888122  1.0000
  C   C14       1.0  0.9898485763612187  0.12090611071374009  0.18774200143958106  1.0000
  C   C15       1.0  0.11013740355227951  0.645979918292575  0.45705387284908744  1.0000
  C   C16       1.0  0.8898682170220412  0.35401503332046497  0.5429533232014664  1.0000
  C   C17       1.0  0.4476368469507008  0.2689725203428779  0.6626279626911256  1.0000
  C   C18       1.0  0.5523666372419386  0.7310252568757959  0.33736320285139954  1.0000
  C   C19       1.0  0.3050715636956483  0.10949542056364696  0.949976821099803  1.0000
  C   C20       1.0  0.6949134791480919  0.8905462868353381  0.050016550266150275  1.0000
  C   C21       1.0  0.2166301943967071  0.16767735551277957  0.800383032455301  1.0000
  C   C22       1.0  0.7833729646166394  0.8323111150034137  0.19961024992543494  1.0000
  N   N1        1.0  0.35760964938513246  0.20620422052920873  0.7740341633221703  1.0000
  N   N2        1.0  0.6423893743496409  0.7937998223264342  0.22595816273232577  1.0000
  N   N3        1.0  0.41585422152992635  0.16929171955848693  0.8687693254040314  1.0000
  N   N4        1.0  0.5841289997232479  0.8307484994842084  0.13122555558943821  1.0000
  N   N5        1.0  0.17981582120249584  0.10588385401012354  0.9115721269501622  1.0000
  N   N6        1.0  0.820181953629337  0.8941238638875219  0.0884228303003598  1.0000
  O   O1        1.0  0.9225816991732428  0.03740827273050231  0.8620297274678494  1.0000
  O   O2        1.0  0.07741197012907731  0.9626012489195402  0.13796808934457516  1.0000
  O   O3        1.0  0.138970341303434  0.7358857074022964  0.837964746572432  1.0000
  O   O4        1.0  0.8610143064243373  0.2641127070326803  0.1620461658194969  1.0000
  O   O5        1.0  0.2594475321981094  0.5437789102537492  0.45682257437058393  1.0000
  O   O6        1.0  0.7405762065423431  0.45621754887684307  0.5431828011925861  1.0000
  O   O7        1.0  0.040412992569706305  0.6633047948089796  0.37161902201765434  1.0000
  O   O8        1.0  0.9596042444168732  0.33667997469031974  0.6283879336782763  1.0000
  O   O9        1.0  0.552251951191252  0.10194783218210551  0.6058188069759751  1.0000
  O   O10       1.0  0.44775297667573705  0.8980457067951164  0.39417456919971294  1.0000
