data_image0
_chemical_formula_structural       Cd3H40C48I6N16
_chemical_formula_sum              "Cd3 H40 C48 I6 N16"
_cell_length_a       8.491776293276102
_cell_length_b       13.177619769713754
_cell_length_c       13.9066
_cell_angle_alpha    71.8403126397965
_cell_angle_beta     83.15165795623088
_cell_angle_gamma    80.98059064427997

_space_group_name_H-M_alt    "P 1"
_space_group_IT_number       1

loop_
  _space_group_symop_operation_xyz
  'x, y, z'

loop_
  _atom_site_type_symbol
  _atom_site_label
  _atom_site_symmetry_multiplicity
  _atom_site_fract_x
  _atom_site_fract_y
  _atom_site_fract_z
  _atom_site_occupancy
  Cd  Cd1       1.0  0.5000018355282522  0.4999996742008291  0.5000008254682058  1.0000
  Cd  Cd2       1.0  0.7424677115452951  0.20892369935319266  0.08788505241286522  1.0000
  Cd  Cd3       1.0  0.25753076044338025  0.7910780644630435  0.912113387406528  1.0000
  H   H1        1.0  0.2861938207277035  0.2959768510267438  0.6721983906571652  1.0000
  H   H2        1.0  0.7138117943658244  0.7040184716839589  0.327801431300209  1.0000
  H   H3        1.0  0.14558586568088572  0.1315942016331562  0.7305864306490621  1.0000
  H   H4        1.0  0.854407282318384  0.8684043416303167  0.2694147861118098  1.0000
  H   H5        1.0  0.998528214579274  0.0815774068248416  0.6143209761636967  1.0000
  H   H6        1.0  0.0014570590217602023  0.9184251621295871  0.3856796250484181  1.0000
  H   H7        1.0  0.9730092087916518  0.1961678949658889  0.4340414129333113  1.0000
  H   H8        1.0  0.02698822871773389  0.8038330637121547  0.5659594972388007  1.0000
  H   H9        1.0  0.08747718274135959  0.32337167803412825  0.25341695909135353  1.0000
  H   H10       1.0  0.9125238129847588  0.6766292806439225  0.7465822538321377  1.0000
  H   H11       1.0  0.14403808678746802  0.4555053222564069  0.2079617159251796  1.0000
  H   H12       1.0  0.8559652810831366  0.5444956364216438  0.792036605193566  1.0000
  H   H13       1.0  0.8438480553548687  0.43891222924258233  0.4203399261953892  1.0000
  H   H14       1.0  0.1561529403712427  0.5610887294354612  0.5796592867281022  1.0000
  H   H15       1.0  0.45009085113562725  0.559906786568547  0.25052854156413673  1.0000
  H   H16       1.0  0.5499105993693475  0.4400917566949261  0.749469913421649  1.0000
  H   H17       1.0  0.6110904812838883  0.5451292801793173  0.09100266926954248  1.0000
  H   H18       1.0  0.3889124584792398  0.4548676528077706  0.9089975910070011  1.0000
  H   H19       1.0  0.9017125961867692  0.4724776353589917  0.09972266597884534  1.0000
  H   H20       1.0  0.09828930909706914  0.5275184924898966  0.9002779074013461  1.0000
  H   H21       1.0  0.4263209100809037  0.7025193043691047  0.6319457158706712  1.0000
  H   H22       1.0  0.5736762242425684  0.297483264585324  0.3680547408158788  1.0000
  H   H23       1.0  0.3789291293990331  0.8830546361850935  0.656214416012091  1.0000
  H   H24       1.0  0.621073783692701  0.11694873790752779  0.3437846630443601  1.0000
  H   H25       1.0  0.3096835710353075  0.046949218294038496  0.5146743988700422  1.0000
  H   H26       1.0  0.6903145977674543  0.9530541557985828  0.48532358746379617  1.0000
  H   H27       1.0  0.2882945172535969  0.0380387539151741  0.340696825126507  1.0000
  H   H28       1.0  0.7117015825905924  0.9619630099010621  0.6593032255806648  1.0000
  H   H29       1.0  0.23765532975763654  0.9590298914649722  0.1997267145975101  1.0000
  H   H30       1.0  0.7623470036336785  0.0409702620748789  0.8002726387079023  1.0000
  H   H31       1.0  0.2673037681310221  0.8347785501494513  0.16934630202181475  1.0000
  H   H32       1.0  0.7326987168532497  0.1652207982522143  0.8306539971094081  1.0000
  H   H33       1.0  0.45268617837724184  0.0727756361020013  0.16536540973933  1.0000
  H   H34       1.0  0.5473125967973401  0.9272245174378568  0.8346349217316842  1.0000
  H   H35       1.0  0.8831617519608771  0.9952409816826702  0.015222755029817802  1.0000
  H   H36       1.0  0.1168368716207482  0.0047599769953734  0.9847751924493411  1.0000
  H   H37       1.0  0.813115059435468  0.8152008098552058  0.024147036034257545  1.0000
  H   H38       1.0  0.1868862394765571  0.1847985385464526  0.9758533494578217  1.0000
  H   H39       1.0  0.5468885767060884  0.762560069676816  0.11065205469677858  1.0000
  H   H40       1.0  0.4531150943504231  0.2374392787248496  0.8893510344056851  1.0000
  C   C1        1.0  0.20838123583263982  0.337693476206276  0.5193191752457338  1.0000
  C   C2        1.0  0.7916196349719088  0.6623018465044197  0.48068243032111724  1.0000
  C   C3        1.0  0.21951752103969818  0.2742944794967244  0.6209554315130321  1.0000
  C   C4        1.0  0.7804815573207906  0.7257040637667487  0.3790467916095963  1.0000
  C   C5        1.0  0.1410070397618526  0.1834732810812341  0.6524327395558489  1.0000
  C   C6        1.0  0.8589874459026132  0.8165244570440464  0.3475678985039253  1.0000
  C   C7        1.0  0.053734472827223094  0.1556621976282102  0.5856608948041996  1.0000
  C   C8        1.0  0.9462617786099159  0.8443387610498405  0.41433938264574993  1.0000
  C   C9        1.0  0.0396701012546998  0.2180515510440841  0.4853938827333764  1.0000
  C   C10       1.0  0.9603316524361817  0.7819453819429967  0.5146050257379785  1.0000
  C   C11       1.0  0.1192387312900749  0.309797853243019  0.4537676615478148  1.0000
  C   C12       1.0  0.8807662774316327  0.690200690020454  0.5462319725214471  1.0000
  C   C13       1.0  0.0705551711093406  0.4025763426050162  0.2671643516323741  1.0000
  C   C14       1.0  0.9294468590960675  0.5974254212112271  0.7328359863535213  1.0000
  C   C15       1.0  0.8966341843908624  0.4488339471915025  0.2614133319367938  1.0000
  C   C16       1.0  0.10336696292820588  0.5511662063483485  0.738585388646449  1.0000
  C   C17       1.0  0.7979946391225853  0.4608272857103017  0.34558149192992  1.0000
  C   C18       1.0  0.20200650819648297  0.5391728678295564  0.6544179477363556  1.0000
  C   C19       1.0  0.5769667477883972  0.5291939850689502  0.2509719941163979  1.0000
  C   C20       1.0  0.42303573719586746  0.4708053633327083  0.7490275859317991  1.0000
  C   C21       1.0  0.6674150972908421  0.5205025182785121  0.16261901051662878  1.0000
  C   C22       1.0  0.3325841326626033  0.4794952198467684  0.8373812820997061  1.0000
  C   C23       1.0  0.82866160248593  0.4800475446469719  0.16781405804533728  1.0000
  C   C24       1.0  0.171341488870155  0.5199485832019164  0.8321857098909649  1.0000
  C   C25       1.0  0.3796316650133633  0.768138067075995  0.47124925617420393  1.0000
  C   C26       1.0  0.6203644348308188  0.23186369674024115  0.5287529517820388  1.0000
  C   C27       1.0  0.3950976913283526  0.7738094605055323  0.5688789403733878  1.0000
  C   C28       1.0  0.6048994429951193  0.22619310844889637  0.43112079723013613  1.0000
  C   C29       1.0  0.3684606423519768  0.8754082387688058  0.5815566305154646  1.0000
  C   C30       1.0  0.6315402017811849  0.1245935250474304  0.4184430747482679  1.0000
  C   C31       1.0  0.3291942947056441  0.9692020073918285  0.5003295161599796  1.0000
  C   C32       1.0  0.6708050601693644  0.030801366700792695  0.4996691028960214  1.0000
  C   C33       1.0  0.31721625355567074  0.9653462005868789  0.4029552144913496  1.0000
  C   C34       1.0  0.6827804526603316  0.034652342676587  0.5970435859378752  1.0000
  C   C35       1.0  0.34337870565815365  0.8624632269062147  0.39019805009147024  1.0000
  C   C36       1.0  0.6566208008098114  0.1375393420482141  0.6098015147903341  1.0000
  C   C37       1.0  0.32147199773166335  0.8856890483516793  0.20239752395477237  1.0000
  C   C38       1.0  0.6785291495874048  0.11431110518817178  0.7976026347945294  1.0000
  C   C39       1.0  0.480811513307657  0.9124228569028432  0.14754303827831455  1.0000
  C   C40       1.0  0.5191884479391645  0.0875772966370079  0.8524586449978956  1.0000
  C   C41       1.0  0.5300114054291071  0.011624585226527998  0.13748880415722203  1.0000
  C   C42       1.0  0.4699895902970043  0.9883763734515156  0.8625096896832433  1.0000
  C   C43       1.0  0.7699372570535916  0.9689516094138922  0.052741574150253705  1.0000
  C   C44       1.0  0.2300627041932373  0.0310485441259587  0.9472586709599042  1.0000
  C   C45       1.0  0.7300419044326177  0.8687433048094491  0.05784740220153853  1.0000
  C   C46       1.0  0.2699604289586901  0.131256848730402  0.9421541083529519  1.0000
  C   C47       1.0  0.583000522843534  0.8399571990050418  0.1061845550465321  1.0000
  C   C48       1.0  0.41700092766144076  0.1600413442584241  0.8938174953543766  1.0000
  I   I1        1.0  0.8614838161970013  0.3115433928448397  0.8938164841104028  1.0000
  I   I2        1.0  0.13851599345687046  0.688457565833211  0.10618281517394479  1.0000
  I   I3        1.0  0.9909563531742407  0.1366029663300807  0.2170287470451484  1.0000
  I   I4        1.0  0.009045801952730397  0.8634044334535105  0.782965602882257  1.0000
  I   I5        1.0  0.4445121469196565  0.2976072558670069  0.14673097738768354  1.0000
  I   I6        1.0  0.5554893035853254  0.7023912873964662  0.8532717920962583  1.0000
  N   N1        1.0  0.1356253212108527  0.3890773956658293  0.36306788879366547  1.0000
  N   N2        1.0  0.8643749432218754  0.6109211475976366  0.636932809802062  1.0000
  N   N3        1.0  0.22826865478149472  0.4602274577567229  0.3706201948098312  1.0000
  N   N4        1.0  0.7717329473164369  0.5397702803685576  0.6293813632508432  1.0000
  N   N5        1.0  0.2727599211390341  0.4303149636206953  0.46355955971216645  1.0000
  N   N6        1.0  0.7272443562892903  0.5696811642282  0.5364408409463053  1.0000
  N   N7        1.0  0.6416833712219159  0.4998523339115621  0.34090673277020767  1.0000
  N   N8        1.0  0.3583165900249128  0.5001478196282889  0.6590927932569172  1.0000
  N   N9        1.0  0.33879659349157987  0.825159564160991  0.3089665982067658  1.0000
  N   N10       1.0  0.6612033677552418  0.17484058937885996  0.6910343659864112  1.0000
  N   N11       1.0  0.3701697799944199  0.7172227380446045  0.3359222341292991  1.0000
  N   N12       1.0  0.6298313673246483  0.2827774154952465  0.6640786437030287  1.0000
  N   N13       1.0  0.3937727411062468  0.6821404515731047  0.4329749988312344  1.0000
  N   N14       1.0  0.6062282546198647  0.317860507104939  0.5670263713413348  1.0000
  N   N15       1.0  0.6717163325186704  0.0394485508906328  0.09134593933386272  1.0000
  N   N16       1.0  0.32828466320744104  0.9605524077874108  0.9086532735896286  1.0000
