data_image0
_chemical_formula_structural       Ag4H36C24N8O20
_chemical_formula_sum              "Ag4 H36 C24 N8 O20"
_cell_length_a       4.94842367900601
_cell_length_b       9.176429314495783
_cell_length_c       20.05791167409149
_cell_angle_alpha    103.17081375102448
_cell_angle_beta     89.9999125992226
_cell_angle_gamma    90.00017152653754

_space_group_name_H-M_alt    "P 1"
_space_group_IT_number       1

loop_
  _space_group_symop_operation_xyz
  'x, y, z'

loop_
  _atom_site_type_symbol
  _atom_site_label
  _atom_site_symmetry_multiplicity
  _atom_site_fract_x
  _atom_site_fract_y
  _atom_site_fract_z
  _atom_site_occupancy
  Ag  Ag1       1.0  0.1599849205044563  0.6184844237275158  0.9944459542919619  1.0000
  Ag  Ag2       1.0  0.6599888203718507  0.8815153231125094  0.5055531360720451  1.0000
  Ag  Ag3       1.0  0.8400160167539993  0.3815120178201993  0.005553997560092188  1.0000
  Ag  Ag4       1.0  0.34001413775014555  0.1184878340746351  0.4944470186353058  1.0000
  H   H1        1.0  0.5179460239634963  0.0649276994617765  0.9428773008953256  1.0000
  H   H2        1.0  0.017948622399934805  0.43507368925835255  0.5571230182360623  1.0000
  H   H3        1.0  0.48204480907421043  0.9350709809621237  0.05712238624065691  1.0000
  H   H4        1.0  0.9820502940266564  0.5649283482304596  0.4428775180820709  1.0000
  H   H5        1.0  0.7181335942786619  0.9378368704765307  0.8819318405388117  1.0000
  H   H6        1.0  0.2181317249494228  0.5621640812436652  0.6180693481408426  1.0000
  H   H7        1.0  0.2818633012926028  0.06216180893843409  0.1180688436035382  1.0000
  H   H8        1.0  0.781867191474433  0.4378368370566219  0.38193107128411447  1.0000
  H   H9        1.0  0.18443803715270227  0.042513062380464796  0.8462333284055321  1.0000
  H   H10       1.0  0.684431331440095  0.4574841032819492  0.6537639945824695  1.0000
  H   H11       1.0  0.8155629001150687  0.9574833822077693  0.1537636324254592  1.0000
  H   H12       1.0  0.31556758498494725  0.5425179337001109  0.346237040239167  1.0000
  H   H13       1.0  0.4290213630873795  0.828722575617938  0.772451000184134  1.0000
  H   H14       1.0  0.9290126112523751  0.6712775765738214  0.7275485304244356  1.0000
  H   H15       1.0  0.5709856367237265  0.1712772260336877  0.22754680982922795  1.0000
  H   H16       1.0  0.0709923676995601  0.32872110234048785  0.2724526522205508  1.0000
  H   H17       1.0  0.6464264022978767  0.9707107556111859  0.7532204759034329  1.0000
  H   H18       1.0  0.14641344528837408  0.5292878485327179  0.7467814915264273  1.0000
  H   H19       1.0  0.3535785766599063  0.029289043505151796  0.24677982662770154  1.0000
  H   H20       1.0  0.8535854711257117  0.4707097116952424  0.2532190757225337  1.0000
  H   H21       1.0  0.4398412601445258  0.23350561582380888  0.7984241068288399  1.0000
  H   H22       1.0  0.9398392604402163  0.2664964088567174  0.7015766194443814  1.0000
  H   H23       1.0  0.5601536145870297  0.7664941837916641  0.2015756971998783  1.0000
  H   H24       1.0  0.0601576351365267  0.7335045089352972  0.2984242984843064  1.0000
  H   H25       1.0  0.6893042903507692  0.21222265691926623  0.8596105698482363  1.0000
  H   H26       1.0  0.1892994912856807  0.28778010797441317  0.6403913245797171  1.0000
  H   H27       1.0  0.3106986677641999  0.7877782613840763  0.1403898495762874  1.0000
  H   H28       1.0  0.8107014459778838  0.7122196901253728  0.3596099749588788  1.0000
  H   H29       1.0  0.40861937727559905  0.8483010142802954  0.6385809048920807  1.0000
  H   H30       1.0  0.9086096835982929  0.6516979879438265  0.8614185132415102  1.0000
  H   H31       1.0  0.591385601675519  0.15169542777722705  0.3614185484560296  1.0000
  H   H32       1.0  0.0913872119854844  0.34830516873198997  0.138582139970012  1.0000
  H   H33       1.0  0.1177311187337011  0.9511352755350656  0.622815188432277  1.0000
  H   H34       1.0  0.6177106525422715  0.5488655257175664  0.877185024984705  1.0000
  H   H35       1.0  0.8822779019167512  0.048864524091072795  0.37718461559490635  1.0000
  H   H36       1.0  0.38228220134336505  0.4511353920714  0.12281589294442338  1.0000
  C   C1        1.0  0.3374039376568732  0.8483985100115132  0.9092813227472477  1.0000
  C   C2        1.0  0.8374080535231486  0.6516026236713017  0.5907178460895041  1.0000
  C   C3        1.0  0.6625889162310443  0.15160017193416309  0.09071686887798341  1.0000
  C   C4        1.0  0.1625949045957427  0.34840053250233877  0.409283305624868  1.0000
  C   C5        1.0  0.510881799699341  0.9760649612096232  0.8957117574834401  1.0000
  C   C6        1.0  0.0108798041952767  0.5239356788641912  0.6042884790699503  1.0000
  C   C7        1.0  0.4891130750310282  0.023933719724077204  0.1042874311485917  1.0000
  C   C8        1.0  0.989117091385765  0.4760663586231004  0.3957120572483959  1.0000
  C   C9        1.0  0.44304434522051395  0.9466028254849514  0.7698695737261901  1.0000
  C   C10       1.0  0.9430308820486956  0.5533973468448037  0.7301309508532157  1.0000
  C   C11       1.0  0.5569626545886663  0.053398093834943  0.23012984869087214  1.0000
  C   C12       1.0  0.0569680343681256  0.44660133257168155  0.2698697332889139  1.0000
  C   C13       1.0  0.47371240920671215  0.20029788186915448  0.8470184861031383  1.0000
  C   C14       1.0  0.9737068544079508  0.2997030752248904  0.6529816174389255  1.0000
  C   C15       1.0  0.5262885280685409  0.7997041566346962  0.15298105320774616  1.0000
  C   C16       1.0  0.026292062014349  0.700297842568645  0.34701930048954926  1.0000
  C   C17       1.0  0.22320286757864952  0.9830214067901438  0.7226764984956164  1.0000
  C   C18       1.0  0.7231707211285965  0.5169806737702558  0.7773228119686808  1.0000
  C   C19       1.0  0.7768202989996381  0.0169795140622071  0.27732142840915947  1.0000
  C   C20       1.0  0.27683021613533754  0.48301800615450935  0.22267737366971835  1.0000
  C   C21       1.0  0.300669535696386  0.30126329825861115  0.9014178300633162  1.0000
  C   C22       1.0  0.8006718431014193  0.1987385159641306  0.5985834248508368  1.0000
  C   C23       1.0  0.6993253390253997  0.6987331432845351  0.09858212178939847  1.0000
  C   C24       1.0  0.1993311150159158  0.801264639702758  0.4014182253670526  1.0000
  N   N1        1.0  0.3932237303557926  0.0403101955545253  0.8398505268414668  1.0000
  N   N2        1.0  0.893219017972136  0.45968952143326197  0.660148978733794  1.0000
  N   N3        1.0  0.6067792277653865  0.9596907247758254  0.1601478985690079  1.0000
  N   N4        1.0  0.10678596098838972  0.5403113968716013  0.3398514406905093  1.0000
  N   N5        1.0  0.25636903038603254  0.9248469438738594  0.6562253003915757  1.0000
  N   N6        1.0  0.7563529596102825  0.5751540685580705  0.8437728889885961  1.0000
  N   N7        1.0  0.743635948577591  0.0751539754445076  0.34377412202570673  1.0000
  N   N8        1.0  0.24364191511972424  0.4248457305506435  0.1562274135436326  1.0000
  O   O1        1.0  0.4225883379871646  0.7940357623129582  0.9580168596006189  1.0000
  O   O2        1.0  0.9225890169264589  0.7059643801810649  0.5419826724000104  1.0000
  O   O3        1.0  0.5774024950524606  0.20596180044267232  0.04198121513165629  1.0000
  O   O4        1.0  0.077405857805914  0.2940376562912022  0.45801886092557725  1.0000
  O   O5        1.0  0.0840670190239834  0.24633664139637554  0.9188809045601689  1.0000
  O   O6        1.0  0.5840636771203478  0.25366148899700386  0.5811195480772327  1.0000
  O   O7        1.0  0.9159318973916515  0.7536609193383441  0.0811191641852744  1.0000
  O   O8        1.0  0.4159352393050569  0.7463394298100423  0.418880372844214  1.0000
  O   O9        1.0  0.38936070320336563  0.43330030297190086  0.9233562702920397  1.0000
  O   O10       1.0  0.889362415096663  0.0666994066727185  0.5766447316296067  1.0000
  O   O11       1.0  0.6106341715207932  0.5666983759347914  0.07664491235404111  1.0000
  O   O12       1.0  0.1106365013291111  0.9333003939593069  0.42335407539164294  1.0000
  O   O13       1.0  0.13003690127998624  0.8103760724143214  0.872365514663585  1.0000
  O   O14       1.0  0.6300389773202467  0.6896236287380331  0.6276340806894397  1.0000
  O   O15       1.0  0.8699559526165147  0.18962484892191606  0.12763191374096292  1.0000
  O   O16       1.0  0.36995993909465597  0.31037616834672116  0.3723682158563976  1.0000
  O   O17       1.0  0.0281583303366375  0.06395629406992497  0.7485717490000355  1.0000
  O   O18       1.0  0.528144835319587  0.4360507095342283  0.7514256628628644  1.0000
  O   O19       1.0  0.9718506903364528  0.9360502227143711  0.2514267623721196  1.0000
  O   O20       1.0  0.4718540811030821  0.5639490900842928  0.2485741411654132  1.0000
