data_image0
_chemical_formula_structural       AlH24C45O6F3
_chemical_formula_sum              "Al1 H24 C45 O6 F3"
_cell_length_a       3.959537877237367
_cell_length_b       23.592975238530318
_cell_length_c       23.60909962300163
_cell_angle_alpha    60.006069617817005
_cell_angle_beta     87.81774380024162
_cell_angle_gamma    87.73155186638722

_space_group_name_H-M_alt    "P 1"
_space_group_IT_number       1

loop_
  _space_group_symop_operation_xyz
  'x, y, z'

loop_
  _atom_site_type_symbol
  _atom_site_label
  _atom_site_symmetry_multiplicity
  _atom_site_fract_x
  _atom_site_fract_y
  _atom_site_fract_z
  _atom_site_occupancy
  Al  Al1       1.0  0.027345897091500117  0.49952784216900165  0.5000367914252024  1.0000
  H   H1        1.0  0.7422677467654639  0.33032712729310987  0.6795251152431874  1.0000
  H   H2        1.0  0.7255696432146268  0.2657164406554671  0.7998315715496531  1.0000
  H   H3        1.0  0.8330260455217557  0.22718073036326558  0.8941814140206504  1.0000
  H   H4        1.0  0.8338369308339113  0.1669431509304928  0.013478980981467688  1.0000
  H   H5        1.0  0.2483730981779787  0.804181143366172  0.26709314505519904  1.0000
  H   H6        1.0  0.24969140005534754  0.8987396827129358  0.22142107309987585  1.0000
  H   H7        1.0  0.2481674834994223  0.017424728797351494  0.1634879032291039  1.0000
  H   H8        1.0  0.5215551041137374  0.10606873996410829  0.10554418594942662  1.0000
  H   H9        1.0  0.780672435305185  0.678665710342642  0.483191195285329  1.0000
  H   H10       1.0  0.7782790675293403  0.7987626408544982  0.42719198206030745  1.0000
  H   H11       1.0  0.776293160740913  0.8945661285589278  0.3803895363276555  1.0000
  H   H12       1.0  0.7854590089952894  0.013407156066598697  0.3206635609709778  1.0000
  H   H13       1.0  0.32280149352241244  0.26391325447485053  0.4340298279254853  1.0000
  H   H14       1.0  0.24305129048492807  0.2263081736363262  0.37940533872794185  1.0000
  H   H15       1.0  0.2312741836773355  0.16793423872773863  0.3190680378738976  1.0000
  H   H16       1.0  0.5217948921822073  0.10652629901507278  0.2874610688152117  1.0000
  H   H17       1.0  0.8119898507598297  0.48409891356855883  0.3327643261059734  1.0000
  H   H18       1.0  0.7985150484715152  0.4286725857466181  0.26809883765557163  1.0000
  H   H19       1.0  0.8415192501045184  0.37621641217634755  0.2235415466100649  1.0000
  H   H20       1.0  0.8277691618781164  0.31714009287240685  0.16358619367888852  1.0000
  H   H21       1.0  0.2996917811849046  0.43548500425113446  0.8044428728549066  1.0000
  H   H22       1.0  0.18788412845102448  0.37684387208544473  0.898602973648167  1.0000
  H   H23       1.0  0.19675017825913704  0.3168647112635056  0.01777755387792723  1.0000
  H   H24       1.0  0.521502088468857  0.28832271965645606  0.10511833678805975  1.0000
  C   C1        1.0  0.5158046474940579  0.45236211283460653  0.6008585892479702  1.0000
  C   C2        1.0  0.5503609464921837  0.44601746340563136  0.45261996252074976  1.0000
  C   C3        1.0  0.515736128228184  0.600300159588066  0.4465272264206492  1.0000
  C   C4        1.0  0.6403643331158195  0.35214263402420437  0.7079783094156511  1.0000
  C   C5        1.0  0.6330880991087544  0.31630218032220364  0.7758421351920434  1.0000
  C   C6        1.0  0.6850204766467913  0.24696899360608165  0.9204485126083882  1.0000
  C   C7        1.0  0.6857760346414423  0.21250144420177008  0.988395266112974  1.0000
  C   C8        1.0  0.3655874847346753  0.7111981616904685  0.34790568939431676  1.0000
  C   C9        1.0  0.36704988894015156  0.7790204143469378  0.3145707865663925  1.0000
  C   C10       1.0  0.37128050674473906  0.9227916852949816  0.24407401677106583  1.0000
  C   C11       1.0  0.3724248522996874  0.9907224857166524  0.2104781910527223  1.0000
  C   C12       1.0  0.5125791140797421  0.4167722593174971  0.6736663940999108  1.0000
  C   C13       1.0  0.5107100644070928  0.34444096441325905  0.8133243875014814  1.0000
  C   C14       1.0  0.5112480691512433  0.30757079602859244  0.8856635328074205  1.0000
  C   C15       1.0  0.516206293563826  0.2371720191561408  0.025140980332118115  1.0000
  C   C16       1.0  0.5198964622819631  0.20117384463193844  0.0972204418122615  1.0000
  C   C17       1.0  0.5212486222124754  0.13261272585987172  0.1323183222497804  1.0000
  C   C18       1.0  0.6603923672450878  0.7073505985593014  0.436009770140892  1.0000
  C   C19       1.0  0.6573447343722593  0.775230617985926  0.4039677825283265  1.0000
  C   C20       1.0  0.6568199308809003  0.920557970659672  0.33293559442659426  1.0000
  C   C21       1.0  0.6598156801218239  0.988539972243913  0.29918708566525976  1.0000
  C   C22       1.0  0.4261824920874135  0.34601103375911885  0.443484325685752  1.0000
  C   C23       1.0  0.4270570864646075  0.31267837685861366  0.4090488633820328  1.0000
  C   C24       1.0  0.3793634648805552  0.2465841728012562  0.33266060481876997  1.0000
  C   C25       1.0  0.37289813957534795  0.21294506754006184  0.2984680432622895  1.0000
  C   C26       1.0  0.5116066456318864  0.673070305524284  0.4092884918495373  1.0000
  C   C27       1.0  0.5118698164547554  0.8130668248997068  0.34195325876071786  1.0000
  C   C28       1.0  0.5132023969883052  0.8855159556821801  0.30636697684509073  1.0000
  C   C29       1.0  0.5177146776157218  0.025444533516306902  0.23704274510282633  1.0000
  C   C30       1.0  0.5205117499151232  0.0976260869402807  0.2009120764631831  1.0000
  C   C31       1.0  0.5218000596494718  0.13293028684410757  0.23418139593852064  1.0000
  C   C32       1.0  0.7004381205896524  0.4360474856036518  0.353704091540493  1.0000
  C   C33       1.0  0.693262697196744  0.4041893056965192  0.3177105257458592  1.0000
  C   C34       1.0  0.7008798529411636  0.3311046233262117  0.24496304848890568  1.0000
  C   C35       1.0  0.692912149610443  0.2976330003318068  0.21051800743475016  1.0000
  C   C36       1.0  0.38602864000031206  0.44378530505038316  0.7114225500279333  1.0000
  C   C37       1.0  0.3900011975756217  0.40964103439447525  0.7792188519764238  1.0000
  C   C38       1.0  0.33874918670231585  0.3316682108306423  0.9228266011955101  1.0000
  C   C39       1.0  0.34278254433650807  0.29761988664548505  0.9907210470798377  1.0000
  C   C40       1.0  0.5604062771101898  0.40848005208409427  0.41732460873775074  1.0000
  C   C41       1.0  0.5553981778364517  0.34147879886451443  0.344497893736289  1.0000
  C   C42       1.0  0.5452619961846351  0.30648049770930186  0.30720317966952854  1.0000
  C   C43       1.0  0.5299094762578704  0.23757098262617402  0.23653987978961769  1.0000
  C   C44       1.0  0.5240480554317202  0.20153146967626154  0.20049725541152702  1.0000
  C   C45       1.0  0.5215784697447534  0.23497259974462983  0.13198625719260806  1.0000
  O   O1        1.0  0.28831688515575854  0.5705746059867779  0.4354892730410426  1.0000
  O   O2        1.0  0.2754844855206785  0.4930365101698015  0.5714680422864618  1.0000
  O   O3        1.0  0.30900473275428914  0.43529366730379593  0.4937390160621503  1.0000
  O   O4        1.0  0.747218097570212  0.5721939936812034  0.48866246228084265  1.0000
  O   O5        1.0  0.7807769245410089  0.48770277279223956  0.4382131251833243  1.0000
  O   O6        1.0  0.7594951324194672  0.43815312642659143  0.5727915592218552  1.0000
  F   F1        1.0  0.29693563936695005  0.31457937621569687  0.5055256311441099  1.0000
  F   F2        1.0  0.26577155310950223  0.5066051238013927  0.6819999616129949  1.0000
  F   F3        1.0  0.2220320078380383  0.6824773263548135  0.31754141091230553  1.0000
