data_image0
_chemical_formula_structural       Zr6H48C52N20Cl2O32
_chemical_formula_sum              "Zr6 H48 C52 N20 Cl2 O32"
_cell_length_a       14.89267774631248
_cell_length_b       14.855717167268175
_cell_length_c       14.851596002142742
_cell_angle_alpha    59.74703042307855
_cell_angle_beta     60.04491436169157
_cell_angle_gamma    60.02477577243054

_space_group_name_H-M_alt    "P 1"
_space_group_IT_number       1

loop_
  _space_group_symop_operation_xyz
  'x, y, z'

loop_
  _atom_site_type_symbol
  _atom_site_label
  _atom_site_symmetry_multiplicity
  _atom_site_fract_x
  _atom_site_fract_y
  _atom_site_fract_z
  _atom_site_occupancy
  Zr  Zr1       1.0  0.879835371535428  0.8816110659455841  0.6200678809597805  1.0000
  Zr  Zr2       1.0  0.11801412870973842  0.11827384448349675  0.38186688958136034  1.0000
  Zr  Zr3       1.0  0.11758172279716206  0.8803702784253031  0.6205190805770044  1.0000
  Zr  Zr4       1.0  0.879635018561842  0.11892324866825987  0.38346410438776246  1.0000
  Zr  Zr5       1.0  0.11660288130391167  0.8821718858588525  0.3834383525349523  1.0000
  Zr  Zr6       1.0  0.8822015718720735  0.11767357376863416  0.6191238842888964  1.0000
  H   H1        1.0  0.09370576524841565  0.7185105971640057  0.5945415990882381  1.0000
  H   H2        1.0  0.09384078282959507  0.09295751552198075  0.22002058958099013  1.0000
  H   H3        1.0  0.0935958938583781  0.09265414133633942  0.5937856308248114  1.0000
  H   H4        1.0  0.7195777322659112  0.09382116863616131  0.5950816547866397  1.0000
  H   H5        1.0  0.9931719566640921  0.574702370472032  0.7397625073296157  1.0000
  H   H6        1.0  0.0072569617291691375  0.40514397934076374  0.7363179312690349  1.0000
  H   H7        1.0  0.00330687560825276  0.2354532710416564  0.07290155233265952  1.0000
  H   H8        1.0  0.013327232245892181  0.23359073533621452  0.9039169696542402  1.0000
  H   H9        1.0  0.1554565889728677  0.3580737452183911  0.3227132349101823  1.0000
  H   H10       1.0  0.1926021557285509  0.472453488260193  0.2620216114301784  1.0000
  H   H11       1.0  0.8058543157754057  0.6871211972505548  0.6283397549821146  1.0000
  H   H12       1.0  0.7420823885519567  0.6075289747306981  0.647678878313485  1.0000
  H   H13       1.0  0.18398634518634768  0.6341764183279253  0.358712648043337  1.0000
  H   H14       1.0  0.24951483214931602  0.5106399065576567  0.3385853191817461  1.0000
  H   H15       1.0  0.8414966231247475  0.34063132476582325  0.6720575752460648  1.0000
  H   H16       1.0  0.8018178264968722  0.43598822467340176  0.7284776694414247  1.0000
  H   H17       1.0  0.3598040750118728  0.1481984794425343  0.17158516546761154  1.0000
  H   H18       1.0  0.4788403716508681  0.17785573524240306  0.08841089677696348  1.0000
  H   H19       1.0  0.6749144568880393  0.8142676563315234  0.8688503062553182  1.0000
  H   H20       1.0  0.588434229714359  0.7512849861244033  0.9873844536066657  1.0000
  H   H21       1.0  0.6361186291241478  0.18106568308421325  0.8316739168367492  1.0000
  H   H22       1.0  0.5166513770536696  0.24357397084577315  0.9157920744258164  1.0000
  H   H23       1.0  0.33082560508276493  0.8501562094709244  0.13776178505785466  1.0000
  H   H24       1.0  0.4175645401527816  0.8200734259091718  0.02009839776101788  1.0000
  H   H25       1.0  0.8088495807751883  0.13083974339127732  0.8736717244393051  1.0000
  H   H26       1.0  0.7419618169953635  0.15140196506587222  0.9968273271585844  1.0000
  H   H27       1.0  0.1475290778856575  0.8192646420761702  0.17186790443158637  1.0000
  H   H28       1.0  0.1877008734549007  0.762039298608002  0.07735786622308889  1.0000
  H   H29       1.0  0.8319708315093094  0.1666374033900837  0.15301800717279704  1.0000
  H   H30       1.0  0.7969150747175817  0.22843821506808115  0.03700831975129399  1.0000
  H   H31       1.0  0.18435908187382888  0.8572269998198933  0.827133702163856  1.0000
  H   H32       1.0  0.24881283660582182  0.84016922559384  0.905382731447176  1.0000
  H   H33       1.0  0.3668063333917786  0.6762562440735421  0.3160759571688132  1.0000
  H   H34       1.0  0.48457521260318254  0.5902853979890493  0.2541653754954183  1.0000
  H   H35       1.0  0.6732921677656163  0.3664203129423455  0.6460071592914359  1.0000
  H   H36       1.0  0.5881189083370654  0.4834448804656333  0.676870086790615  1.0000
  H   H37       1.0  0.6466110850356513  0.33900498763821924  0.34407695258902765  1.0000
  H   H38       1.0  0.5250299399020263  0.41791513599472546  0.31856087685572027  1.0000
  H   H39       1.0  0.33009612316691056  0.6362311123582457  0.6835283941366583  1.0000
  H   H40       1.0  0.4171170651512951  0.5172019019116121  0.745656302577885  1.0000
  H   H41       1.0  0.3669674028016842  0.8127799450269036  0.6454056950994911  1.0000
  H   H42       1.0  0.48316213251636936  0.751480478761209  0.6779984215008528  1.0000
  H   H43       1.0  0.6682911234583102  0.1480002841374528  0.3226007697595677  1.0000
  H   H44       1.0  0.5878952076673727  0.17570627344800016  0.25566022311210906  1.0000
  H   H45       1.0  0.6335811315829429  0.851449411755432  0.6856693685250407  1.0000
  H   H46       1.0  0.5161629986208137  0.8209318525778072  0.7466482134634163  1.0000
  H   H47       1.0  0.3317260426586939  0.17792865118052958  0.3501181931870363  1.0000
  H   H48       1.0  0.4145280958570438  0.24253880693024144  0.3225407725054695  1.0000
  C   C1        1.0  0.996450690962753  0.6996536196038858  0.4959675512710292  1.0000
  C   C2        1.0  0.30565961103621203  0.9966070073982037  0.19856672690450233  1.0000
  C   C3        1.0  0.9980980714045983  0.3073655688670628  0.4965697706671152  1.0000
  C   C4        1.0  0.6978682059013932  0.9974969503902925  0.8092114580307241  1.0000
  C   C5        1.0  0.9911650496807807  0.701984036394002  0.81007601580054  1.0000
  C   C6        1.0  0.6956480420208278  0.9972089688161814  0.5005355219548094  1.0000
  C   C7        1.0  0.9922801238018903  0.3080593935465429  0.20320350931973524  1.0000
  C   C8        1.0  0.30730675476058866  0.995808796481306  0.49761296139952554  1.0000
  C   C9        1.0  0.3055140781477733  0.6971619639251115  0.5006282721967283  1.0000
  C   C10       1.0  0.9977336024056594  0.9952960127980504  0.808387935156155  1.0000
  C   C11       1.0  0.6982922019884725  0.3082157287173572  0.4985752894622308  1.0000
  C   C12       1.0  0.9928662269785419  0.9978030310968005  0.20075897233569873  1.0000
  C   C13       1.0  0.9974185464968243  0.4075388132817891  0.49536700810718787  1.0000
  C   C14       1.0  0.9959515323493308  0.6019394001442463  0.4938465684042301  1.0000
  C   C15       1.0  0.08252557242802527  0.4541963830269395  0.4155349433506076  1.0000
  C   C16       1.0  0.9061727349954578  0.560834789302625  0.5674240879681279  1.0000
  C   C17       1.0  0.08576750555899072  0.5453729807059632  0.4199151774129747  1.0000
  C   C18       1.0  0.9115932284769664  0.4597981174245688  0.5743225982280366  1.0000
  C   C19       1.0  0.4049809123249941  0.9966850167342755  0.09993448369789347  1.0000
  C   C20       1.0  0.5989388491944468  0.9968249596369816  0.9083157928787812  1.0000
  C   C21       1.0  0.45543067128430437  0.0778964766927004  0.05302943158530847  1.0000
  C   C22       1.0  0.5526240809773878  0.9113930588081516  0.9595173721161316  1.0000
  C   C23       1.0  0.5464056515912361  0.08239511432353179  0.953990243618307  1.0000
  C   C24       1.0  0.4527927279554189  0.9160344251270941  0.04882391791467463  1.0000
  C   C25       1.0  0.996033598779959  0.995493820595023  0.9082001431907613  1.0000
  C   C26       1.0  0.9926142380715531  0.9960370380393399  0.10257580370900139  1.0000
  C   C27       1.0  0.9055237046862743  0.06987326314599317  0.9640545393433655  1.0000
  C   C28       1.0  0.07858223691957987  0.91607486120283  0.051750931312206185  1.0000
  C   C29       1.0  0.9074805085925274  0.07473969385110739  0.05555952223509325  1.0000
  C   C30       1.0  0.08466929279031635  0.9214611420662066  0.9509410657644609  1.0000
  C   C31       1.0  0.40495190593653513  0.5986574954277798  0.500221276822778  1.0000
  C   C32       1.0  0.5993071630320441  0.40734235224345366  0.49856171691062207  1.0000
  C   C33       1.0  0.45668835398650737  0.5533495174244719  0.4144174978937514  1.0000
  C   C34       1.0  0.5516183986196664  0.45725615687221915  0.5801313386835929  1.0000
  C   C35       1.0  0.5483308185797566  0.4548101579178549  0.4176616745667943  1.0000
  C   C36       1.0  0.4519503101148814  0.5466810693369836  0.5853045963163553  1.0000
  C   C37       1.0  0.9872393014894169  0.6016002253299033  0.9124199472368064  1.0000
  C   C38       1.0  0.9936789026659975  0.5042722280832022  0.9084591151501584  1.0000
  C   C39       1.0  0.9774609610791882  0.6038413727219023  0.009225900407479186  1.0000
  C   C40       1.0  0.9986266927010443  0.5003684238447973  0.8122330609777891  1.0000
  C   C41       1.0  0.0052915857502285925  0.4051402757662714  0.8107397967511503  1.0000
  C   C42       1.0  0.9885623174782481  0.41040906486670536  0.10260634383097061  1.0000
  C   C43       1.0  0.9771446052348977  0.5075374592786871  0.10543962803230046  1.0000
  C   C44       1.0  0.9955332635038091  0.4066000367851145  0.0049767542151216634  1.0000
  C   C45       1.0  0.0038519823586753337  0.3095191440872468  0.9998363057089747  1.0000
  C   C46       1.0  0.008380236232070924  0.3087797267462377  0.9051374051047675  1.0000
  C   C47       1.0  0.40576736113128914  0.9961251615721097  0.4983358701908217  1.0000
  C   C48       1.0  0.5962107672029046  0.9978693906371136  0.5009117229623925  1.0000
  C   C49       1.0  0.4561429018163491  0.9115969672417775  0.5799467109677182  1.0000
  C   C50       1.0  0.5495012843008665  0.07877019139374399  0.4157916783792999  1.0000
  C   C51       1.0  0.5450076146026746  0.9171313572115665  0.5858615590890113  1.0000
  C   C52       1.0  0.4516506395409292  0.0819967774577036  0.41861940899508454  1.0000
  N   N1        1.0  0.16996032530626326  0.41148626447374426  0.3335133639009769  1.0000
  N   N2        1.0  0.8122919849954184  0.6109536383750438  0.6399552607432568  1.0000
  N   N3        1.0  0.17880185916120425  0.5763744020159508  0.3455293544702585  1.0000
  N   N4        1.0  0.8260701198357193  0.4204044585620252  0.6587763908058335  1.0000
  N   N5        1.0  0.41745265335730153  0.16012761172370205  0.09521686586305837  1.0000
  N   N6        1.0  0.5970931523404058  0.8224738862332046  0.9234086741129062  1.0000
  N   N7        1.0  0.5809448851428768  0.17252340781703868  0.909414169371253  1.0000
  N   N8        1.0  0.4091403525868741  0.8348409409996833  0.08440135851580526  1.0000
  N   N9        1.0  0.8132576222273046  0.1443606864578228  0.9317165430051875  1.0000
  N   N10       1.0  0.16369193751458475  0.832210988393044  0.09199085253554531  1.0000
  N   N11       1.0  0.8190297671190478  0.1566069960793328  0.09799676757851482  1.0000
  N   N12       1.0  0.17846299631859341  0.8478200537545674  0.9023043415388868  1.0000
  N   N13       1.0  0.4208846458672394  0.5979962269226887  0.32522045072232686  1.0000
  N   N14       1.0  0.5950251222064222  0.4198399115531328  0.6621409054978216  1.0000
  N   N15       1.0  0.5863255507119545  0.4138150538765475  0.334417939167132  1.0000
  N   N16       1.0  0.4079292139203825  0.5816975164346658  0.6748729577940156  1.0000
  N   N17       1.0  0.419941260736259  0.8225699521944704  0.6612656012030413  1.0000
  N   N18       1.0  0.591762216773489  0.16178721678814156  0.32846061733664567  1.0000
  N   N19       1.0  0.580039014368182  0.8364238420056225  0.6758769114354312  1.0000
  N   N20       1.0  0.4085894406382024  0.17073179834472543  0.33670671789340634  1.0000
  Cl  Cl1       1.0  0.9580045184874066  0.5145984802968043  0.22639694520188428  1.0000
  Cl  Cl2       1.0  0.9616850361663367  0.7235876527976329  0.015763961697679598  1.0000
  O   O1        1.0  0.9208072367670752  0.7413285717385919  0.5720389429121797  1.0000
  O   O2        1.0  0.2633453084001757  0.07168674087266416  0.24173336525350927  1.0000
  O   O3        1.0  0.07329495170996127  0.264904141279409  0.4208731129300745  1.0000
  O   O4        1.0  0.7399390786991513  0.9221752350063496  0.7665597323622679  1.0000
  O   O5        1.0  0.0708821262602513  0.7364047637491137  0.7696971501102751  1.0000
  O   O6        1.0  0.7390750195107498  0.07243195493412463  0.42401431223879643  1.0000
  O   O7        1.0  0.9161182894728765  0.2683781170779013  0.2435719509591366  1.0000
  O   O8        1.0  0.2652684470650965  0.9193364142350615  0.5729601524488146  1.0000
  O   O9        1.0  0.2634335997014715  0.74099865839775  0.4241293636027309  1.0000
  O   O10       1.0  0.9222111085217718  0.07075618070587078  0.7654161284172858  1.0000
  O   O11       1.0  0.7420936289045484  0.2657821598159699  0.5735177477698272  1.0000
  O   O12       1.0  0.06812810382516693  0.9225031083789472  0.24382379703965282  1.0000
  O   O13       1.0  0.07479976816317473  0.9207131743840404  0.7652120216126834  1.0000
  O   O14       1.0  0.7388591504603638  0.2642564768312423  0.4245368500635253  1.0000
  O   O15       1.0  0.9190450053262109  0.07604391910780357  0.2406076605259956  1.0000
  O   O16       1.0  0.2612475769261519  0.7373838320272624  0.5785478991358987  1.0000
  O   O17       1.0  0.9151379685467583  0.7424053336114865  0.7700083042061864  1.0000
  O   O18       1.0  0.26392482563717573  0.0730280157403626  0.42243919231642485  1.0000
  O   O19       1.0  0.07207886809456447  0.26753678580965357  0.23770166621046943  1.0000
  O   O20       1.0  0.737531004957262  0.9215669774319858  0.5772481888606438  1.0000
  O   O21       1.0  0.7398253411070783  0.07404208507972494  0.766002245822996  1.0000
  O   O22       1.0  0.07412420473740872  0.7403731510909849  0.42260604481290903  1.0000
  O   O23       1.0  0.26155158880851537  0.922112387887985  0.2398110505681358  1.0000
  O   O24       1.0  0.9239363025497266  0.2633939565000315  0.574058995730546  1.0000
  O   O25       1.0  0.7991663540141187  0.06674504177092185  0.568300356869237  1.0000
  O   O26       1.0  0.06700996725600557  0.06597079393747408  0.5672651148322886  1.0000
  O   O27       1.0  0.06486766201980028  0.06828466335639395  0.3000176734194043  1.0000
  O   O28       1.0  0.06469938714274528  0.7985073677662342  0.5699511714948003  1.0000
  O   O29       1.0  0.14648886799442795  0.9503959663727883  0.452347203873245  1.0000
  O   O30       1.0  0.949452107231934  0.9511497561634311  0.4523612214004018  1.0000
  O   O31       1.0  0.9507405954379278  0.14755216993609097  0.4511505549315516  1.0000
  O   O32       1.0  0.9505178162859732  0.9497436565061577  0.6490118208792311  1.0000
