data_image0
_chemical_formula_structural       Nd4H52C12N4Cl12O20
_chemical_formula_sum              "Nd4 H52 C12 N4 Cl12 O20"
_cell_length_a       5.996755971250897
_cell_length_b       11.103926164056762
_cell_length_c       16.431026254025152
_cell_angle_alpha    89.99982455592136
_cell_angle_beta     89.99990171100285
_cell_angle_gamma    93.96426386420276

_space_group_name_H-M_alt    "P 1"
_space_group_IT_number       1

loop_
  _space_group_symop_operation_xyz
  'x, y, z'

loop_
  _atom_site_type_symbol
  _atom_site_label
  _atom_site_symmetry_multiplicity
  _atom_site_fract_x
  _atom_site_fract_y
  _atom_site_fract_z
  _atom_site_occupancy
  Nd  Nd1       1.0  0.9150010371957219  0.7493953893732904  0.14597395995486553  1.0000
  Nd  Nd2       1.0  0.5849943967326963  0.7506090255171997  0.6459702240110731  1.0000
  Nd  Nd3       1.0  0.08500763522674497  0.2506077618278582  0.8540303529162401  1.0000
  Nd  Nd4       1.0  0.41500454781488827  0.24939676725643525  0.3540286114179666  1.0000
  H   H1        1.0  0.5770621000438537  0.8279451156186112  0.3574829901190739  1.0000
  H   H2        1.0  0.9229365950507924  0.6720520454612353  0.8574755505075018  1.0000
  H   H3        1.0  0.4229422837259234  0.1720489866737864  0.642526191600787  1.0000
  H   H4        1.0  0.0770611133179315  0.32794201256008654  0.1425171988873473  1.0000
  H   H5        1.0  0.6090357662485316  0.672017293758273  0.3523860817038198  1.0000
  H   H6        1.0  0.8909514630211742  0.8279816184612088  0.852380155813954  1.0000
  H   H7        1.0  0.3909572207762934  0.3279794390210711  0.6476212742027982  1.0000
  H   H8        1.0  0.10904309780204355  0.17201422274745679  0.14761563660357524  1.0000
  H   H9        1.0  0.36809099949342533  0.7071038395597213  0.4678585203947422  1.0000
  H   H10       1.0  0.1318969263188592  0.7928996328480483  0.9678522292463968  1.0000
  H   H11       1.0  0.6318925449243904  0.29289824280812127  0.5321464010903867  1.0000
  H   H12       1.0  0.8680891000106498  0.20709434762053286  0.0321459975947462  1.0000
  H   H13       1.0  0.20507664149683788  0.6277679445484026  0.3927623140695502  1.0000
  H   H14       1.0  0.2949162939134382  0.8722322942051336  0.8927533131355005  1.0000
  H   H15       1.0  0.7949152472231585  0.3722341932039157  0.6072432160175154  1.0000
  H   H16       1.0  0.7050732603197716  0.1277635137650535  0.1072455223072524  1.0000
  H   H17       1.0  0.006285344370219487  0.7852494134267544  0.4494963418451263  1.0000
  H   H18       1.0  0.4936993374497332  0.7147541208813806  0.9494948511075307  1.0000
  H   H19       1.0  0.9937056362411307  0.2147599346583249  0.5505024935827123  1.0000
  H   H20       1.0  0.506292361103604  0.28524621153760416  0.0505039843297013  1.0000
  H   H21       1.0  0.20383937882535008  0.8932535017492358  0.4279345145958331  1.0000
  H   H22       1.0  0.29615356718506547  0.6067483813054365  0.9279352087016479  1.0000
  H   H23       1.0  0.7961611394911114  0.106751399427246  0.572064320833654  1.0000
  H   H24       1.0  0.7038496232097484  0.3932502233051024  0.0720636267336872  1.0000
  H   H25       1.0  0.06880636162376422  0.8195606990866937  0.3513758160270585  1.0000
  H   H26       1.0  0.4311930801246786  0.6804361627349919  0.8513750477996568  1.0000
  H   H27       1.0  0.9312004517666279  0.1804406356997816  0.6486236280088917  1.0000
  H   H28       1.0  0.5688067725439863  0.3195624197170303  0.1486256134509247  1.0000
  H   H29       1.0  0.21962546193049082  0.562314687942866  0.0634859288883121  1.0000
  H   H30       1.0  0.2803678659751227  0.9376906579126543  0.563481666512736  1.0000
  H   H31       1.0  0.7803802531410894  0.43769205180402787  0.9365171667704999  1.0000
  H   H32       1.0  0.7196357047903131  0.0623115573979831  0.4365159517091968  1.0000
  H   H33       1.0  0.36600546530010547  0.6542283498126906  0.12117298941100073  1.0000
  H   H34       1.0  0.13399162376175158  0.8457677384220191  0.621171452867209  1.0000
  H   H35       1.0  0.6339992988573682  0.3457693631951173  0.8788282804436279  1.0000
  H   H36       1.0  0.8660164781249902  0.1542299967471052  0.37882677396275  1.0000
  H   H37       1.0  0.734750593204559  0.5157873212233355  0.2458596904490378  1.0000
  H   H38       1.0  0.7652436651396426  0.984210317640418  0.7458602074243643  1.0000
  H   H39       1.0  0.26524768570144625  0.4842121528314107  0.75413853638225  1.0000
  H   H40       1.0  0.23475656790429153  0.0157918755158732  0.25413741079868396  1.0000
  H   H41       1.0  0.004436807322491587  0.516667787980971  0.24660364190434336  1.0000
  H   H42       1.0  0.4955563036740357  0.9833277038499871  0.7466034023996073  1.0000
  H   H43       1.0  0.9955593272633789  0.4833271616249705  0.7533945849324797  1.0000
  H   H44       1.0  0.5044368735640602  0.0166708343044846  0.25339239001549874  1.0000
  H   H45       1.0  0.19325272467511206  0.9726991697609575  0.0608265054186674  1.0000
  H   H46       1.0  0.30674142983577457  0.5272980752734143  0.5608243192273576  1.0000
  H   H47       1.0  0.80674555422312  0.027300304286825394  0.9391747644361815  1.0000
  H   H48       1.0  0.6932551802079273  0.47270138770276293  0.4391745162092065  1.0000
  H   H49       1.0  0.3712916093727046  0.8863826687483823  0.0874116106986875  1.0000
  H   H50       1.0  0.12870908485301405  0.6136144988759823  0.5874123990217441  1.0000
  H   H51       1.0  0.6287101974385506  0.11361863280936288  0.9125866161295022  1.0000
  H   H52       1.0  0.8712926268632585  0.3863859000046474  0.4125870450168706  1.0000
  C   C1        1.0  0.4058840453811284  0.7397718945939077  0.2580973818282217  1.0000
  C   C2        1.0  0.0940989937688173  0.7602234781489159  0.7580990968675039  1.0000
  C   C3        1.0  0.5941188597473823  0.2602240020020119  0.7418978019818283  1.0000
  C   C4        1.0  0.9058990949441108  0.23977419054881471  0.24190278159404952  1.0000
  C   C5        1.0  0.48607346116013855  0.7400748398453842  0.34536396786788975  1.0000
  C   C6        1.0  0.013917476807385826  0.7599201887789137  0.8453572152275797  1.0000
  C   C7        1.0  0.5139329718301295  0.2599228842145251  0.6546482568709922  1.0000
  C   C8        1.0  0.9860768938351822  0.24007384708388455  0.15463735998252306  1.0000
  C   C9        1.0  0.29918566966470184  0.713581522750367  0.4066371620955351  1.0000
  C   C10       1.0  0.20079560797549323  0.7864194776121278  0.9066296227669995  1.0000
  C   C11       1.0  0.7008030715175477  0.286422398196251  0.5933683679906496  1.0000
  C   C12       1.0  0.7991938511673876  0.21357542768512155  0.0933686040720403  1.0000
  N   N1        1.0  0.13473866033361048  0.8087497199772712  0.4090307563064499  1.0000
  N   N2        1.0  0.36525900840614867  0.6912486721642565  0.9090281820552664  1.0000
  N   N3        1.0  0.8652615727025573  0.1912524731720495  0.5909699049401524  1.0000
  N   N4        1.0  0.6347390803129968  0.30874899653904453  0.0909712619874412  1.0000
  Cl  Cl1       1.0  0.7503696642324652  0.5800980195881494  0.027332183044670402  1.0000
  Cl  Cl2       1.0  0.7496311917671503  0.919905166342147  0.5273322388578237  1.0000
  Cl  Cl3       1.0  0.24963381142710964  0.4199032930356169  0.9726709126206645  1.0000
  Cl  Cl4       1.0  0.25037051995377607  0.08009523254266068  0.4726653793666529  1.0000
  Cl  Cl5       1.0  0.7037390270610686  0.8860583138346312  0.027261273466734806  1.0000
  Cl  Cl6       1.0  0.7962615440264426  0.6139421643986793  0.5272607349361493  1.0000
  Cl  Cl7       1.0  0.29626249446678793  0.1139402796931606  0.9727399963880076  1.0000
  Cl  Cl8       1.0  0.20373821355344998  0.38605551538179844  0.4727387091060038  1.0000
  Cl  Cl9       1.0  0.8581179916878906  0.951877172483151  0.2487220614089836  1.0000
  Cl  Cl10      1.0  0.6418847865424123  0.548122314020837  0.7487181121470955  1.0000
  Cl  Cl11      1.0  0.14188557905890054  0.0481250428107671  0.7512828600694946  1.0000
  Cl  Cl12      1.0  0.35811497104990747  0.45187536577078175  0.2512764630573657  1.0000
  O   O1        1.0  0.539942356355496  0.7252766012772653  0.19920876179020305  1.0000
  O   O2        1.0  0.9600497533693397  0.774730255774188  0.6991998616412333  1.0000
  O   O3        1.0  0.46006316851834567  0.2747283331084418  0.8007998113130128  1.0000
  O   O4        1.0  0.03995205344813258  0.22527104578912818  0.30079593076811767  1.0000
  O   O5        1.0  0.20047370953628268  0.7560569688756755  0.2472545296796227  1.0000
  O   O6        1.0  0.2995326539469402  0.7439377059323037  0.7472482340525842  1.0000
  O   O7        1.0  0.7995543235720245  0.2439399965312603  0.7527497831917956  1.0000
  O   O8        1.0  0.7004793562109981  0.2560654674357322  0.2527506013750056  1.0000
  O   O9        1.0  0.22599845107621516  0.6426162196271646  0.0892499043699928  1.0000
  O   O10       1.0  0.27399222059717937  0.8573808731153105  0.5892519036279538  1.0000
  O   O11       1.0  0.7739996376444789  0.35738144907752906  0.9107489310679995  1.0000
  O   O12       1.0  0.7260057730331936  0.14261589291645285  0.4107463232063182  1.0000
  O   O13       1.0  0.8751908306611181  0.5618902488247031  0.2310467654942343  1.0000
  O   O14       1.0  0.6248069361195191  0.9381083826851934  0.7310468636050163  1.0000
  O   O15       1.0  0.12481402859600617  0.43810836686440524  0.7689514613358384  1.0000
  O   O16       1.0  0.37519682484053607  0.0618956379838451  0.26894649438194307  1.0000
  O   O17       1.0  0.21520485428261074  0.9049624383944701  0.0982381108329449  1.0000
  O   O18       1.0  0.2847892994148252  0.5950364407055204  0.5982382287240569  1.0000
  O   O19       1.0  0.7847953787566622  0.09503975475764288  0.9017613332042346  1.0000
  O   O20       1.0  0.7152092647652564  0.4049657413708088  0.4017606067089616  1.0000
