data_image0
_chemical_formula_structural       Dy4Zn6H72C48O72
_chemical_formula_sum              "Dy4 Zn6 H72 C48 O72"
_cell_length_a       14.557568993704203
_cell_length_b       14.557579797071064
_cell_length_c       16.04338260900212
_cell_angle_alpha    89.99994239384105
_cell_angle_beta     90.00004000072228
_cell_angle_gamma    120.00063443306071

_space_group_name_H-M_alt    "P 1"
_space_group_IT_number       1

loop_
  _space_group_symop_operation_xyz
  'x, y, z'

loop_
  _atom_site_type_symbol
  _atom_site_label
  _atom_site_symmetry_multiplicity
  _atom_site_fract_x
  _atom_site_fract_y
  _atom_site_fract_z
  _atom_site_occupancy
  Dy  Dy1       1.0  0.3333335677834555  0.6666678316840021  0.25000007210091724  1.0000
  Dy  Dy2       1.0  0.6666671087218174  0.33333203778649795  0.2500003302147605  1.0000
  Dy  Dy3       1.0  0.6666667837919319  0.33333219373044914  0.7499996255938512  1.0000
  Dy  Dy4       1.0  0.3333336394505296  0.6666675910313701  0.7499999907902719  1.0000
  Zn  Zn1       1.0  0.49999997748925307  0.5000002110053716  0.49999984884723137  1.0000
  Zn  Zn2       1.0  0.4999994454497665  0.9999991768350897  0.5000002436520603  1.0000
  Zn  Zn3       1.0  5.168994832004843e-07  0.5000004956414585  0.5000003134936791  1.0000
  Zn  Zn4       1.0  0.5000007360907189  0.5000006572867763  0.9999997675364865  1.0000
  Zn  Zn5       1.0  1.9196959758252005e-07  0.5000006515854096  0.99999960887277  1.0000
  Zn  Zn6       1.0  0.500000147524247  4.0229765132803717e-07  1.586634113e-07  1.0000
  H   H1        1.0  0.6419178717736572  0.4585754156280476  0.5500093166623613  1.0000
  H   H2        1.0  0.5414249521179713  0.18334292838601146  0.5500094105574719  1.0000
  H   H3        1.0  0.8166588931754715  0.35808394359775525  0.5500100413480666  1.0000
  H   H4        1.0  0.35808180720336935  0.5414238747130755  0.550008565420896  1.0000
  H   H5        1.0  0.45857541379352534  0.816657048888857  0.5500090948356445  1.0000
  H   H6        1.0  0.1833417630737131  0.6419171172068376  0.5500097106645397  1.0000
  H   H7        1.0  0.4585758464026596  0.6419184075447221  0.9499909089940886  1.0000
  H   H8        1.0  0.18334244960239224  0.541424764208017  0.9499908675817608  1.0000
  H   H9        1.0  0.35808418847108203  0.8166592063134105  0.9499895506270235  1.0000
  H   H10       1.0  0.5414245279115802  0.35808266483006446  0.9499910650002334  1.0000
  H   H11       1.0  0.8166572377773776  0.45857562123303136  0.9499904831027096  1.0000
  H   H12       1.0  0.6419162921023513  0.18334038593535965  0.9499911767481138  1.0000
  H   H13       1.0  0.3580831667362005  0.5414252967201493  0.44999100434226585  1.0000
  H   H14       1.0  0.45857431592624215  0.8166568066903894  0.4499909104470419  1.0000
  H   H15       1.0  0.18334135214072214  0.6419175619427122  0.4499909029658937  1.0000
  H   H16       1.0  0.6419181477752289  0.4585765472973694  0.44999175558351817  1.0000
  H   H17       1.0  0.5414246474444439  0.18334189299496745  0.4499912261694874  1.0000
  H   H18       1.0  0.8166592754361445  0.35808359514135935  0.4499906103400875  1.0000
  H   H19       1.0  0.5414247955102311  0.3580827014000578  0.050008788700282  1.0000
  H   H20       1.0  0.8166568184417359  0.4585749708686821  0.050008830112801696  1.0000
  H   H21       1.0  0.6419161631043052  0.1833408191010408  0.0500101470677521  1.0000
  H   H22       1.0  0.45857611400140297  0.6419184441144242  0.0500092560040883  1.0000
  H   H23       1.0  0.183342320604261  0.5414251973739966  0.0500092145914479  1.0000
  H   H24       1.0  0.35808257934490245  0.8166597457376317  0.050008520946143206  1.0000
  H   H25       1.0  0.6403322087138931  0.8108792688089682  0.34515522377793667  1.0000
  H   H26       1.0  0.18912110224881945  0.829451990571997  0.34515569541844116  1.0000
  H   H27       1.0  0.17054804242020788  0.359668741425523  0.3451546576008511  1.0000
  H   H28       1.0  0.35966878540676117  0.18912159259482322  0.3451547955558851  1.0000
  H   H29       1.0  0.8108785180032426  0.17054749696311725  0.3451555705354751  1.0000
  H   H30       1.0  0.8294522647659761  0.64033143304453  0.3451547384231191  1.0000
  H   H31       1.0  0.8108788591395213  0.6403315619819812  0.15484573882066846  1.0000
  H   H32       1.0  0.8294511356085011  0.18912022425590913  0.15484470430273234  1.0000
  H   H33       1.0  0.35966761486906057  0.17054951401140542  0.15484394040475993  1.0000
  H   H34       1.0  0.18912316395673653  0.359669772953339  0.15484566978622638  1.0000
  H   H35       1.0  0.17054774315307947  0.8108787595404368  0.15484483437438712  1.0000
  H   H36       1.0  0.6403307610362745  0.8294513465078385  0.15484559827134348  1.0000
  H   H37       1.0  0.35966774626471226  0.18912115320146947  0.6548450972264774  1.0000
  H   H38       1.0  0.8108785623921831  0.170547347908418  0.6548440022764269  1.0000
  H   H39       1.0  0.8294504324300788  0.6403317868440512  0.654844416783149  1.0000
  H   H40       1.0  0.6403315661686265  0.8108784328196283  0.6548449021388905  1.0000
  H   H41       1.0  0.1891211466378452  0.829451841516992  0.6548447504693443  1.0000
  H   H42       1.0  0.17054956693745985  0.35966848611169416  0.6548443359622241  1.0000
  H   H43       1.0  0.189121492436044  0.3596684634318736  0.8451552054940022  1.0000
  H   H44       1.0  0.17054813243571235  0.8108795108204917  0.8451556167017812  1.0000
  H   H45       1.0  0.640332340109538  0.8294509079990321  0.8451563805996543  1.0000
  H   H46       1.0  0.810877874553121  0.6403309393948579  0.845154651218408  1.0000
  H   H47       1.0  0.82945192148793  0.18912057893997783  0.8451548633204881  1.0000
  H   H48       1.0  0.3596670268799896  0.1705484948264911  0.8451559693525538  1.0000
  H   H49       1.0  0.6426327127921352  0.7209576521346648  0.2698986922591118  1.0000
  H   H50       1.0  0.2790399901524483  0.9216751065670299  0.269899108461182  1.0000
  H   H51       1.0  0.07832674135289604  0.3573678536234867  0.26989867935402156  1.0000
  H   H52       1.0  0.35736757282054304  0.2790425947775718  0.2698988036967265  1.0000
  H   H53       1.0  0.7209592119290632  0.07832485000714957  0.2698990108043943  1.0000
  H   H54       1.0  0.9216749181287227  0.642633767156234  0.26990006322152743  1.0000
  H   H55       1.0  0.7209585007817336  0.6426333677235476  0.2301022825785495  1.0000
  H   H56       1.0  0.9216741666736893  0.2790405235081724  0.2301000191971454  1.0000
  H   H57       1.0  0.3573668512468302  0.07832679749978413  0.2300993085455474  1.0000
  H   H58       1.0  0.2790421700193447  0.35736652090120913  0.2301016494066204  1.0000
  H   H59       1.0  0.07832542059568233  0.7209590747803319  0.2301007962380623  1.0000
  H   H60       1.0  0.642633713294252  0.9216745712536895  0.2301002602692606  1.0000
  H   H61       1.0  0.3573658683176077  0.2790413960079905  0.73010100543555  1.0000
  H   H62       1.0  0.7209596744886466  0.07832423191308645  0.7301012125436371  1.0000
  H   H63       1.0  0.9216732136252546  0.6426325683884574  0.7300985251006509  1.0000
  H   H64       1.0  0.6426341526236923  0.7209588045046688  0.7301015173078014  1.0000
  H   H65       1.0  0.27904045271193906  0.9216744884732578  0.7301006868904736  1.0000
  H   H66       1.0  0.07832720391230201  0.35736723553001337  0.7300996344733619  1.0000
  H   H67       1.0  0.2790425377283015  0.357367344624045  0.7698992850459804  1.0000
  H   H68       1.0  0.07832578830473118  0.7209598985028691  0.7698990551873734  1.0000
  H   H69       1.0  0.6426335003287348  0.9216732279140704  0.7699016357691235  1.0000
  H   H70       1.0  0.7209574946216648  0.6426328175792052  0.7698980482882546  1.0000
  H   H71       1.0  0.9216742440453204  0.2790402637000827  0.7698989014568055  1.0000
  H   H72       1.0  0.3573658450876492  0.07832624735243605  0.7699013073547434  1.0000
  C   C1        1.0  0.5170959415594608  0.6495269582827066  0.3604151325893099  1.0000
  C   C2        1.0  0.3504752803790864  0.8675684813530112  0.3604137334488158  1.0000
  C   C3        1.0  0.13243391239392102  0.48291862503047167  0.3604175799072422  1.0000
  C   C4        1.0  0.48290791093243257  0.3504751560419168  0.3604133884805946  1.0000
  C   C5        1.0  0.6495228641188363  0.13243109775311993  0.3604135410005327  1.0000
  C   C6        1.0  0.867565025298916  0.5170801608791825  0.3604177975720688  1.0000
  C   C7        1.0  0.649525477815416  0.5170935716269512  0.13958649307209467  1.0000
  C   C8        1.0  0.8675649973239459  0.3504796065721155  0.13958414516653758  1.0000
  C   C9        1.0  0.48291450011546283  0.13243313670353282  0.1395803828964191  1.0000
  C   C10       1.0  0.35047712158141303  0.4829099450580544  0.13958579048829017  1.0000
  C   C11       1.0  0.13243297760990191  0.6495216652330313  0.13958502184365784  1.0000
  C   C12       1.0  0.5170810174173821  0.8675664708990782  0.13958192770431313  1.0000
  C   C13       1.0  0.48290726401309303  0.3504743347403976  0.639586435035639  1.0000
  C   C14       1.0  0.6495243842619229  0.13243085712740316  0.6395859642460522  1.0000
  C   C15       1.0  0.8675650653123483  0.5170800265170999  0.6395796245479274  1.0000
  C   C16       1.0  0.5170927309806431  0.6495259529022667  0.6395875558336782  1.0000
  C   C17       1.0  0.3504798670375348  0.8675665480845183  0.6395842867662366  1.0000
  C   C18       1.0  0.13243434900440582  0.48291809407150066  0.6395806535033087  1.0000
  C   C19       1.0  0.3504749800196052  0.48290497365999147  0.860415074553238  1.0000
  C   C20       1.0  0.13243268433249986  0.6495217148903267  0.8604143059069002  1.0000
  C   C21       1.0  0.5170840809941948  0.8675659114394281  0.8604186914882916  1.0000
  C   C22       1.0  0.6495248942001554  0.5170925377551118  0.8604132838959444  1.0000
  C   C23       1.0  0.867566290434226  0.3504780698436678  0.8604146758509046  1.0000
  C   C24       1.0  0.4829181443674671  0.13243474430393587  0.8604183932994901  1.0000
  C   C25       1.0  0.5905683681185678  0.7416798704636849  0.30531389096454836  1.0000
  C   C26       1.0  0.2583194635162656  0.8488901749404649  0.30531248991679394  1.0000
  C   C27       1.0  0.15111173414985044  0.40942903566050154  0.3053101634955908  1.0000
  C   C28       1.0  0.40943192764644454  0.2583203423577771  0.3053134310756462  1.0000
  C   C29       1.0  0.7416801453140138  0.15110935094815414  0.30531233888370213  1.0000
  C   C30       1.0  0.8488889582110558  0.5905707805679727  0.3053103021354672  1.0000
  C   C31       1.0  0.7416807773469359  0.5905690967915409  0.19468708825107936  1.0000
  C   C32       1.0  0.8488879176371282  0.2583171393340393  0.19468852073345744  1.0000
  C   C33       1.0  0.40942914428444505  0.15111204634023076  0.1946884302751783  1.0000
  C   C34       1.0  0.25831988330180167  0.40943082592399094  0.19468701764972712  1.0000
  C   C35       1.0  0.1511113691433011  0.7416814095119123  0.1946887017172827  1.0000
  C   C36       1.0  0.5905703265742092  0.8488890661623646  0.19468941548440447  1.0000
  C   C37       1.0  0.40943129652252713  0.25831946801643124  0.6946864300402709  1.0000
  C   C38       1.0  0.7416798045278624  0.15110956013623433  0.6946872077777686  1.0000
  C   C39       1.0  0.848887533894192  0.5905706994164959  0.6946889108890204  1.0000
  C   C40       1.0  0.5905691108633206  0.7416803699907182  0.6946862666190299  1.0000
  C   C41       1.0  0.2583184357959138  0.8488896971939041  0.694688605430862  1.0000
  C   C42       1.0  0.15111247689549862  0.40942953518453623  0.6946887722495703  1.0000
  C   C43       1.0  0.2583205515005176  0.4094326990866862  0.8053138560630941  1.0000
  C   C44       1.0  0.15111106006958852  0.7416815122120327  0.8053118002714541  1.0000
  C   C45       1.0  0.5905701237597755  0.8488876887361703  0.8053118907293353  1.0000
  C   C46       1.0  0.7416797813392931  0.5905685125561251  0.8053133033550921  1.0000
  C   C47       1.0  0.8488889824320865  0.2583186159025461  0.8053109959774928  1.0000
  C   C48       1.0  0.40942854487322217  0.15111106551002262  0.8053115288297478  1.0000
  O   O1        1.0  0.4171455213374315  0.6141004600630994  0.3535007397954714  1.0000
  O   O2        1.0  0.3858989859750608  0.803049066785107  0.35350064352853383  1.0000
  O   O3        1.0  0.19694683598105905  0.5828412414268841  0.35350255413611353  1.0000
  O   O4        1.0  0.5828530177755907  0.3858987291013919  0.35350027335966433  1.0000
  O   O5        1.0  0.6140979951907894  0.19694618485524998  0.3534984996980626  1.0000
  O   O6        1.0  0.8030537639357359  0.4171600085376356  0.35350282218838197  1.0000
  O   O7        1.0  0.6141016331377572  0.4171474583051664  0.14649965815486607  1.0000
  O   O8        1.0  0.803049096860974  0.3858941495774959  0.14649786246626917  1.0000
  O   O9        1.0  0.5828438663947111  0.19695034924225768  0.14649600900870746  1.0000
  O   O10       1.0  0.3858988296189381  0.5828499471394937  0.14649888670214747  1.0000
  O   O11       1.0  0.19695205283001366  0.6141039428015063  0.14650005908070088  1.0000
  O   O12       1.0  0.417157651451923  0.8030528704527314  0.14649754936639434  1.0000
  O   O13       1.0  0.582852372838026  0.38589790114521366  0.6464995812092339  1.0000
  O   O14       1.0  0.6141009690035375  0.1969513552253306  0.6464996774758803  1.0000
  O   O15       1.0  0.8030527224004869  0.41715957718044894  0.6464965202480996  1.0000
  O   O16       1.0  0.4171473337997965  0.6141012963130593  0.6464994243351042  1.0000
  O   O17       1.0  0.3858959614562423  0.8030506184066584  0.6464999513762563  1.0000
  O   O18       1.0  0.19694864844270632  0.5828420776792456  0.646496252196151  1.0000
  O   O19       1.0  0.38590038264390364  0.5828550245077014  0.8535000395393126  1.0000
  O   O20       1.0  0.19695038370162618  0.6141026252468721  0.8534999652998678  1.0000
  O   O21       1.0  0.41715608858379494  0.8030500727684784  0.8535036886857625  1.0000
  O   O22       1.0  0.6141010475407142  0.4171464310879856  0.8535001876841903  1.0000
  O   O23       1.0  0.8030482987453735  0.38589608261294484  0.8534996386140746  1.0000
  O   O24       1.0  0.582841906929893  0.19694794815369232  0.8535033949476656  1.0000
  O   O25       1.0  0.5284303635613622  0.7642160735527741  0.2500000894298111  1.0000
  O   O26       1.0  0.2357850138652251  0.7642162408083664  0.24999999656544244  1.0000
  O   O27       1.0  0.23578572252073113  0.47157078409428993  0.25000075361776203  1.0000
  O   O28       1.0  0.47156981008748033  0.23578567264123526  0.24999906626494806  1.0000
  O   O29       1.0  0.7642148694462917  0.23578442185471027  0.25000040574963117  1.0000
  O   O30       1.0  0.7642163278534825  0.5284304592437014  0.2500008953176263  1.0000
  O   O31       1.0  0.4715691948204467  0.2357847450536569  0.7500008548842416  1.0000
  O   O32       1.0  0.764215337710155  0.23578378460608476  0.7499997011293331  1.0000
  O   O33       1.0  0.764215315989034  0.5284299282542052  0.7499989440769143  1.0000
  O   O34       1.0  0.5284308318254106  0.7642154363035449  0.7500006314294224  1.0000
  O   O35       1.0  0.23578508553230665  0.7642160001557274  0.7499999152547899  1.0000
  O   O36       1.0  0.2357851072531573  0.4715698565085091  0.7499988023773624  1.0000
  O   O37       1.0  0.6508891998668815  0.5021902665207069  0.49999989572759046  1.0000
  O   O38       1.0  0.4978106746218528  0.14869892296118808  0.5000000087010079  1.0000
  O   O39       1.0  0.8513039881367201  0.349113751014812  0.5000006525922133  1.0000
  O   O40       1.0  0.34911075511180906  0.4978101554894325  0.5000010485867747  1.0000
  O   O41       1.0  0.502189676953712  0.8513011024526591  0.5000009356136629  1.0000
  O   O42       1.0  0.14869763104824324  0.6508891283937432  0.5000002917215552  1.0000
  O   O43       1.0  0.5021902854406406  0.6508891292147256  4.852051346999999e-07  1.0000
  O   O44       1.0  0.14869866783816832  0.4978105805342637  4.429912295e-07  1.0000
  O   O45       1.0  0.3491121825020116  0.8513032683802638  0.9999995591063566  1.0000
  O   O46       1.0  0.49780966953796485  0.349111292795712  0.9999998357992793  1.0000
  O   O47       1.0  0.8513019370000235  0.5021895295888684  4.063510770000004e-08  1.0000
  O   O48       1.0  0.6508860020108569  0.14869617635867635  1.385879997e-07  1.0000
  O   O49       1.0  0.5628673226321085  0.6175629962181618  0.4087771573749421  1.0000
  O   O50       1.0  0.3824376215469415  0.9453067357828718  0.4087757037173674  1.0000
  O   O51       1.0  0.05469947463556924  0.4371340082103146  0.4087720920979336  1.0000
  O   O52       1.0  0.43713289653298654  0.38243859713571754  0.4087753550005573  1.0000
  O   O53       1.0  0.6175624135400214  0.05469229391406584  0.4087768086592547  1.0000
  O   O54       1.0  0.9453015377222085  0.5628667919545837  0.4087729405587979  1.0000
  O   O55       1.0  0.6175627454283514  0.5628677619312872  0.0912250896668425  1.0000
  O   O56       1.0  0.9453022741170685  0.38243615667351377  0.0912252761266785  1.0000
  O   O57       1.0  0.4371331433902697  0.054699640565900334  0.0912265112698876  1.0000
  O   O58       1.0  0.3824386787547737  0.437131467185573  0.09122444920851079  1.0000
  O   O59       1.0  0.05469727334132563  0.6175635752972682  0.0912261326776971  1.0000
  O   O60       1.0  0.5628664040684724  0.9453000914036809  0.0912273907742858  1.0000
  O   O61       1.0  0.43713223574979315  0.38243782238796364  0.5912244102490618  1.0000
  O   O62       1.0  0.6175623334315717  0.05469368622787152  0.5912239939771026  1.0000
  O   O63       1.0  0.9452991064742662  0.5628650399320424  0.5912282289066795  1.0000
  O   O64       1.0  0.5628689351705346  0.6175613220202082  0.59122434269473  1.0000
  O   O65       1.0  0.3824354028170233  0.9453020235094914  0.5912260055870746  1.0000
  O   O66       1.0  0.05469989738453052  0.4371335237973214  0.5912273804461351  1.0000
  O   O67       1.0  0.38243789648471693  0.43713334701289613  0.9087758546474234  1.0000
  O   O68       1.0  0.05469522346151463  0.6175626011310912  0.9087750448777214  1.0000
  O   O69       1.0  0.5628657280569768  0.9453004911070838  0.9087731864243694  1.0000
  O   O70       1.0  0.6175617790799777  0.5628670781022652  0.9087752484869752  1.0000
  O   O71       1.0  0.9453030782341542  0.3824364501168847  0.9087741883270297  1.0000
  O   O72       1.0  0.4371329702352043  0.054698163545808226  0.9087735535408898  1.0000
