data_image0
_chemical_formula_structural       Co8H128C192N16O32
_chemical_formula_sum              "Co8 H128 C192 N16 O32"
_cell_length_a       14.368733771000562
_cell_length_b       18.073920577005328
_cell_length_c       19.06070155100556
_cell_angle_alpha    90.00008482631507
_cell_angle_beta     89.99997981372404
_cell_angle_gamma    89.99997526952455

_space_group_name_H-M_alt    "P 1"
_space_group_IT_number       1

loop_
  _space_group_symop_operation_xyz
  'x, y, z'

loop_
  _atom_site_type_symbol
  _atom_site_label
  _atom_site_symmetry_multiplicity
  _atom_site_fract_x
  _atom_site_fract_y
  _atom_site_fract_z
  _atom_site_occupancy
  Co  Co1       1.0  0.9760966796714784  0.9063501324142679  0.9417675182144122  1.0000
  Co  Co2       1.0  0.023905113644808296  0.5936518388340276  0.44176746723517357  1.0000
  Co  Co3       1.0  0.5239082542172824  0.4063467670995139  0.058232593362568294  1.0000
  Co  Co4       1.0  0.47609190044477867  0.09365408140689623  0.5582344390586229  1.0000
  Co  Co5       1.0  0.023908818026726005  0.0936565336565351  0.05823611392234801  1.0000
  Co  Co6       1.0  0.9760913366342336  0.4063443148535698  0.5582356402557878  1.0000
  Co  Co7       1.0  0.47609306775062527  0.5936538128502349  0.9417652677342259  1.0000
  Co  Co8       1.0  0.5239066377002928  0.9063470518283627  0.44176552059757757  1.0000
  H   H1        1.0  0.2803021841698126  0.6299158760472708  0.027232873794432094  1.0000
  H   H2        1.0  0.7196998022095046  0.8700832320763255  0.5272345163331165  1.0000
  H   H3        1.0  0.219698986028817  0.1299177503076123  0.9727654107126044  1.0000
  H   H4        1.0  0.7802967998381547  0.37008319490562513  0.4727671184706068  1.0000
  H   H5        1.0  0.719706793308312  0.3700863637525488  0.9727665612214833  1.0000
  H   H6        1.0  0.28029664806957294  0.12991458145978643  0.472766492600364  1.0000
  H   H7        1.0  0.780301639983051  0.8700828296438914  0.0272345489429284  1.0000
  H   H8        1.0  0.219701042351268  0.629917385047179  0.5272338904646219  1.0000
  H   H9        1.0  0.9324993319342243  0.7017745917278475  0.7858046011799045  1.0000
  H   H10       1.0  0.06749696637599101  0.7982232619868342  0.2858042999053296  1.0000
  H   H11       1.0  0.5675001450203112  0.20177477565668062  0.2141957490740438  1.0000
  H   H12       1.0  0.43249924104962645  0.2982246575497244  0.7141963184291382  1.0000
  H   H13       1.0  0.06750059812218011  0.2982243283748502  0.21419693239354126  1.0000
  H   H14       1.0  0.9324980919919881  0.20177455154951932  0.7141967090283288  1.0000
  H   H15       1.0  0.432500480991834  0.7982252510110257  0.7858036859414453  1.0000
  H   H16       1.0  0.5675006890071684  0.701773709268764  0.2858041658645973  1.0000
  H   H17       1.0  0.19863732847829854  0.5652931361415768  0.2726398612554561  1.0000
  H   H18       1.0  0.8013603678730093  0.9347085699149531  0.7726405230850303  1.0000
  H   H19       1.0  0.3013617888274212  0.06529127778745904  0.7273562343577069  1.0000
  H   H20       1.0  0.6986361992024114  0.43470651620530293  0.22735752957618155  1.0000
  H   H21       1.0  0.8013646894450092  0.43470799709143654  0.7273579998416293  1.0000
  H   H22       1.0  0.19863747431700324  0.06529256331877782  0.22735733801261657  1.0000
  H   H23       1.0  0.6986381412302265  0.9347070890281515  0.27264057745840375  1.0000
  H   H24       1.0  0.3013588591653402  0.5652935104633627  0.7726419054400465  1.0000
  H   H25       1.0  0.018993030916469405  0.4794449425793062  0.6967050138942312  1.0000
  H   H26       1.0  0.9810042754320564  0.020557782901860805  0.19670513029586087  1.0000
  H   H27       1.0  0.4810072541710967  0.9794417722410741  0.3032953331175533  1.0000
  H   H28       1.0  0.5189918198146374  0.5205572154666455  0.8032965405630961  1.0000
  H   H29       1.0  0.9810082910496762  0.5205567439421444  0.3032991428792684  1.0000
  H   H30       1.0  0.0189935667563148  0.979444456903167  0.8032985018388316  1.0000
  H   H31       1.0  0.5189926758861604  0.020557147858745902  0.6967025279782674  1.0000
  H   H32       1.0  0.4810095021533272  0.4794422579171425  0.19670236981224318  1.0000
  H   H33       1.0  0.9578015279035552  0.5802823974147558  0.7722530704508087  1.0000
  H   H34       1.0  0.0421933848058202  0.9197204146010948  0.2722518964718787  1.0000
  H   H35       1.0  0.5421966228893141  0.08027984488555262  0.2277465853338896  1.0000
  H   H36       1.0  0.45780275686949784  0.4197196095687519  0.7277473177768669  1.0000
  H   H37       1.0  0.042196314285448  0.4197192891052382  0.22774846312485408  1.0000
  H   H38       1.0  0.9578037614281244  0.08028127191737161  0.7277475385452306  1.0000
  H   H39       1.0  0.45780400312334285  0.919719628497532  0.7722512757622226  1.0000
  H   H40       1.0  0.542197869142946  0.5802793105321769  0.2722521172378407  1.0000
  H   H41       1.0  0.7309235267106899  0.6034577023229347  0.6250717556664469  1.0000
  H   H42       1.0  0.2690721505017493  0.8965415592138016  0.12507363666046697  1.0000
  H   H43       1.0  0.7690746115395442  0.1034569623223902  0.37492898179444006  1.0000
  H   H44       1.0  0.23092539562686198  0.39654272291499376  0.8749302669458529  1.0000
  H   H45       1.0  0.2690784912115518  0.39654509076228817  0.3749287286301096  1.0000
  H   H46       1.0  0.7309222119102258  0.10345570104134082  0.8749299954712054  1.0000
  H   H47       1.0  0.23092531851719403  0.896542511062052  0.6250704532207507  1.0000
  H   H48       1.0  0.7690780142072882  0.6034561971871001  0.1250712666271312  1.0000
  H   H49       1.0  0.5888483016209918  0.7287865131175979  0.8036403157687316  1.0000
  H   H50       1.0  0.4111507722036478  0.7712163481126595  0.3036388358705295  1.0000
  H   H51       1.0  0.9111532485828421  0.2287826777938449  0.1963611215200629  1.0000
  H   H52       1.0  0.08884544983757081  0.27121728073131385  0.6963617447120072  1.0000
  H   H53       1.0  0.41115371630122877  0.27121683325060536  0.19635964388854887  1.0000
  H   H54       1.0  0.5888456780751313  0.22878257199022303  0.6963621730637186  1.0000
  H   H55       1.0  0.08884598551810542  0.7712167955915419  0.8036393627745396  1.0000
  H   H56       1.0  0.9111544802189828  0.7287810860879916  0.303639788861055  1.0000
  H   H57       1.0  0.9361581073880884  0.8109340758752667  0.0700734137118957  1.0000
  H   H58       1.0  0.0638417711723065  0.6890650994228197  0.5700749780113483  1.0000
  H   H59       1.0  0.5638454862256453  0.31093483004818273  0.929924990571834  1.0000
  H   H60       1.0  0.4361544953276423  0.1890632815732758  0.4299265370134646  1.0000
  H   H61       1.0  0.0638466943577924  0.18906429094156613  0.929926021301874  1.0000
  H   H62       1.0  0.9361546791063234  0.3109343739634554  0.42992603092329057  1.0000
  H   H63       1.0  0.43615722765299136  0.6890657499025536  0.07007444444375469  1.0000
  H   H64       1.0  0.5638433468625337  0.8109345319625948  0.5700744719198241  1.0000
  H   H65       1.0  0.31531639993107774  0.48958010593572965  0.2068956229512793  1.0000
  H   H66       1.0  0.6846815976275167  0.010419869107707303  0.7068962474267053  1.0000
  H   H67       1.0  0.18468248775918994  0.9895844450297493  0.7931015903954161  1.0000
  H   H68       1.0  0.8153172869290658  0.5104167398275479  0.29310278606050827  1.0000
  H   H69       1.0  0.6846842260817284  0.5104188141639696  0.7931022381444491  1.0000
  H   H70       1.0  0.3153176364735942  0.9895812641257821  0.2931016136707568  1.0000
  H   H71       1.0  0.815318834207794  0.0104200079032921  0.20689574606442557  1.0000
  H   H72       1.0  0.1846791633503244  0.4895821802732813  0.706895599675441  1.0000
  H   H73       1.0  0.16734902433476856  0.8396126777760317  0.9438383320843543  1.0000
  H   H74       1.0  0.8326520720617836  0.6603870835870183  0.44383973276663363  1.0000
  H   H75       1.0  0.33265412024903895  0.3396103094924143  0.0561597209044464  1.0000
  H   H76       1.0  0.6673467313350584  0.16038832262843536  0.5561595103552932  1.0000
  H   H77       1.0  0.8326522976326914  0.160389562023866  0.056159529013598296  1.0000
  H   H78       1.0  0.1673464660842114  0.3396101766649339  0.5561607515265123  1.0000
  H   H79       1.0  0.6673478976750715  0.6603869507577045  0.9438391894692585  1.0000
  H   H80       1.0  0.33265250276581076  0.8396128106058784  0.4438394000214883  1.0000
  H   H81       1.0  0.2554857756095075  0.7421139892677503  0.0067693855424693  1.0000
  H   H82       1.0  0.7445141324335652  0.7578861933355866  0.5067703399923998  1.0000
  H   H83       1.0  0.24451742173778263  0.24211312065425264  0.9932285311588415  1.0000
  H   H84       1.0  0.7554818343774202  0.2578861967931517  0.4932285147785009  1.0000
  H   H85       1.0  0.7445218099574406  0.25788991038123743  0.9932284755558098  1.0000
  H   H86       1.0  0.25548162189075196  0.24211051363222683  0.4932285703817526  1.0000
  H   H87       1.0  0.7554852921418488  0.7578846928787257  0.0067698545754951  1.0000
  H   H88       1.0  0.24451531185643205  0.7421149364427533  0.5067719695175369  1.0000
  H   H89       1.0  0.6553482901137145  0.6346402918103705  0.724624786403453  1.0000
  H   H90       1.0  0.3446459488222048  0.865363552090038  0.2246224065529177  1.0000
  H   H91       1.0  0.8446505272173752  0.1346366032769666  0.2753770439231857  1.0000
  H   H92       1.0  0.1553488303578661  0.3653645857123209  0.775377780993878  1.0000
  H   H93       1.0  0.34465303185213975  0.3653647144093527  0.27537674717406446  1.0000
  H   H94       1.0  0.6553470216794965  0.13463426144544144  0.7753770284620386  1.0000
  H   H95       1.0  0.1553500987942158  0.8653645299583416  0.7246234403723901  1.0000
  H   H96       1.0  0.8446517956542368  0.634633781106871  0.22462375257909165  1.0000
  H   H97       1.0  0.11686601709437382  0.6677108391221936  0.21441543415749456  1.0000
  H   H98       1.0  0.8831344901961844  0.832289669071983  0.7144175049468159  1.0000
  H   H99       1.0  0.38313861243022984  0.16770738406325592  0.785580804618398  1.0000
  H   H100      1.0  0.6168621323043055  0.3322905012265879  0.2855835523881182  1.0000
  H   H101      1.0  0.8831408725170534  0.3322925072439419  0.7855829515801531  1.0000
  H   H102      1.0  0.11686265603868412  0.16770814446318383  0.2855824547072459  1.0000
  H   H103      1.0  0.6168661893167169  0.8322893229013532  0.2144160071959078  1.0000
  H   H104      1.0  0.38313362201805035  0.6677111852937685  0.7144179811878217  1.0000
  H   H105      1.0  0.8005462676883967  0.5001828663994062  0.5569356721548218  1.0000
  H   H106      1.0  0.1994531916227018  0.9998163202229833  0.05693701714169209  1.0000
  H   H107      1.0  0.6994519264518716  0.00018170392049650006  0.44306439630338446  1.0000
  H   H108      1.0  0.3005480489817742  0.49981808815284967  0.9430647579832366  1.0000
  H   H109      1.0  0.19945575023427153  0.49981882011864087  0.4430642875013006  1.0000
  H   H110      1.0  0.8005477049769709  0.00018152523750100005  0.9430648667852423  1.0000
  H   H111      1.0  0.3005468822814948  0.9998166948220943  0.5569353890655719  1.0000
  H   H112      1.0  0.6994553608526812  0.5001819385139685  0.056934152392216206  1.0000
  H   H113      1.0  0.6946460337669221  0.8107754018819551  0.8737080842585881  1.0000
  H   H114      1.0  0.3053523114695267  0.6892270159311806  0.3737059933092439  1.0000
  H   H115      1.0  0.8053533841992221  0.3107731529642024  0.12629451691908136  1.0000
  H   H116      1.0  0.19464604280928913  0.18922669569550982  0.6262944726633533  1.0000
  H   H117      1.0  0.30534972055531284  0.18922628463880642  0.1262939739570044  1.0000
  H   H118      1.0  0.6946469226303621  0.3107741173064227  0.6262971141848297  1.0000
  H   H119      1.0  0.194648633724313  0.6892257671364918  0.8737049180954414  1.0000
  H   H120      1.0  0.8053545832032113  0.8107711178394722  0.3737060116299062  1.0000
  H   H121      1.0  0.013419189987985199  0.7117195115723619  0.13881490355237247  1.0000
  H   H122      1.0  0.9865806565567469  0.7882814313628189  0.6388163606145696  1.0000
  H   H123      1.0  0.48658471976295203  0.2117205657124899  0.8611834953029316  1.0000
  H   H124      1.0  0.5134145978498594  0.2882779914055432  0.3611851598403035  1.0000
  H   H125      1.0  0.9865876996234846  0.2882805150963251  0.8611871546605839  1.0000
  H   H126      1.0  0.013414401810216199  0.21171970187427291  0.361185172961072  1.0000
  H   H127      1.0  0.5134214738935015  0.7882811208031909  0.1388143657939906  1.0000
  H   H128      1.0  0.48658185242879887  0.7117209286977514  0.6388163737336043  1.0000
  C   C1        1.0  0.838597575286279  0.6018814422374066  0.7051973324413934  1.0000
  C   C2        1.0  0.16139319292054924  0.8981190515018228  0.2051960964993  1.0000
  C   C3        1.0  0.6614005638173808  0.10188061366541491  0.2948018288970715  1.0000
  C   C4        1.0  0.3385987847111381  0.3981194992160725  0.7948036121950748  1.0000
  C   C5        1.0  0.1614016588141283  0.39811913771556834  0.29480420113330996  1.0000
  C   C6        1.0  0.8385983856691867  0.10188152845124422  0.7948038631574404  1.0000
  C   C7        1.0  0.3386007581503777  0.898120519567712  0.7051960322001065  1.0000
  C   C8        1.0  0.6614018413010286  0.6018799741686535  0.20519634745968315  1.0000
  C   C9        1.0  0.38024490052911375  0.5159256863274351  0.0748947200878405  1.0000
  C   C10       1.0  0.6197549757858171  0.9840751563792056  0.5748944500469688  1.0000
  C   C11       1.0  0.11975911517946973  0.0159291801105255  0.9251055036374181  1.0000
  C   C12       1.0  0.8802429564847927  0.4840705838031596  0.42510629481768086  1.0000
  C   C13       1.0  0.6197564214386304  0.48407323377419686  0.9251057642061014  1.0000
  C   C14       1.0  0.3802428664033783  0.0159276367059178  0.4251049849708152  1.0000
  C   C15       1.0  0.8802463825200422  0.9840758261072441  0.07489445602055868  1.0000
  C   C16       1.0  0.11975418975043792  0.5159250165992832  0.5748947141141583  1.0000
  C   C17       1.0  0.26075069618625696  0.6160545127804157  0.0808956344364233  1.0000
  C   C18       1.0  0.739247785422812  0.88394578605282  0.5808957172227236  1.0000
  C   C19       1.0  0.2392518734251681  0.11605629616554582  0.919101581414935  1.0000
  C   C20       1.0  0.7607460253019054  0.3839440116179844  0.4191022644802942  1.0000
  C   C21       1.0  0.7392561934253481  0.383947727019347  0.9191032759401095  1.0000
  C   C22       1.0  0.2607451850789531  0.11605313404820092  0.4191021438740278  1.0000
  C   C23       1.0  0.760753624275736  0.883945390350256  0.0808962796820794  1.0000
  C   C24       1.0  0.23924833711014773  0.6160565683341874  0.5808971705364101  1.0000
  C   C25       1.0  0.7988508317062966  0.6606921881599915  0.7494617516798951  1.0000
  C   C26       1.0  0.20114200375148533  0.8393089282694391  0.24946094757584797  1.0000
  C   C27       1.0  0.7011486674807658  0.16069238306648262  0.2505395904263422  1.0000
  C   C28       1.0  0.29885070166213984  0.33930876697748147  0.7505402528292606  1.0000
  C   C29       1.0  0.20114840239386214  0.3393083917938072  0.2505408311741206  1.0000
  C   C30       1.0  0.7988509667491286  0.16069109840123016  0.7505405859993033  1.0000
  C   C31       1.0  0.2988547423533916  0.8393087501671063  0.7494593199498851  1.0000
  C   C32       1.0  0.7011485324389569  0.6606901531245131  0.24946023146495833  1.0000
  C   C33       1.0  0.8813827386026533  0.8106619474378081  0.8747190399217785  1.0000
  C   C34       1.0  0.11861630211890171  0.6893371522617572  0.37471909745575255  1.0000
  C   C35       1.0  0.6186180713363072  0.31066031450103543  0.1252814625389007  1.0000
  C   C36       1.0  0.38138205209999404  0.18933842600286974  0.6252808440322468  1.0000
  C   C37       1.0  0.11861579954247503  0.18933807923149004  0.125281969012967  1.0000
  C   C38       1.0  0.8813829319820955  0.3106612145576761  0.6252824361174019  1.0000
  C   C39       1.0  0.38138533849835443  0.6893380523164441  0.8747184971147134  1.0000
  C   C40       1.0  0.6186185739127409  0.8106593875312954  0.3747185909816863  1.0000
  C   C41       1.0  0.8569909365299965  0.7065345046428533  0.789550017108688  1.0000
  C   C42       1.0  0.14300536003582923  0.7934639082276149  0.28954916441693257  1.0000
  C   C43       1.0  0.6430085378488927  0.20653355013809724  0.2104503397981077  1.0000
  C   C44       1.0  0.3569894580544569  0.29346532391235064  0.7104509226252131  1.0000
  C   C45       1.0  0.14300899352595312  0.2934660753100077  0.2104515164659162  1.0000
  C   C46       1.0  0.8569896983323987  0.20653390530790722  0.7104507952374064  1.0000
  C   C47       1.0  0.3569920881632457  0.7934664765296162  0.7895490952173745  1.0000
  C   C48       1.0  0.6430090800915167  0.7065324896225816  0.2895490370286637  1.0000
  C   C49       1.0  0.19084124640113487  0.6560929044078848  0.11567455950314808  1.0000
  C   C50       1.0  0.8091586109210311  0.8439085555253598  0.6156745676903626  1.0000
  C   C51       1.0  0.30916408536492673  0.15609294934317572  0.8843237615936131  1.0000
  C   C52       1.0  0.6908338295593951  0.3439067506255428  0.3843249319657644  1.0000
  C   C53       1.0  0.8091677310766273  0.3439093353931709  0.8843264494317538  1.0000
  C   C54       1.0  0.19083505553589222  0.15609091785974274  0.384324342686007  1.0000
  C   C55       1.0  0.690842108291946  0.8439076306053154  0.11567357486287477  1.0000
  C   C56       1.0  0.3091591409415884  0.6560932760438902  0.6156750276904004  1.0000
  C   C57       1.0  0.14240551605983143  0.7170115981082575  0.0790416442063986  1.0000
  C   C58       1.0  0.8575950542791517  0.7829886978182403  0.5790426036078883  1.0000
  C   C59       1.0  0.3575983908274907  0.21701279037586121  0.9209551881275572  1.0000
  C   C60       1.0  0.6424008989477487  0.2829858604640592  0.4209562862505649  1.0000
  C   C61       1.0  0.8576027654634685  0.2829884285577221  0.9209572661684005  1.0000
  C   C62       1.0  0.14240000408862846  0.21701077556745224  0.4209573560476087  1.0000
  C   C63       1.0  0.6424050190073346  0.7829872362897277  0.0790421483289094  1.0000
  C   C64       1.0  0.35759624728709843  0.717012506354088  0.5790431487642208  1.0000
  C   C65       1.0  0.3051436213907621  0.556290518974052  0.1134069819022017  1.0000
  C   C66       1.0  0.6948569329432959  0.943709830836859  0.6134071600608165  1.0000
  C   C67       1.0  0.19485898056310452  0.05629226666477652  0.8865917243270186  1.0000
  C   C68       1.0  0.8051417171269649  0.44370799014311757  0.38659300374131783  1.0000
  C   C69       1.0  0.6948611803541028  0.44371116754351203  0.8865929777535511  1.0000
  C   C70       1.0  0.3051409092467736  0.056290195830918294  0.3865917503153752  1.0000
  C   C71       1.0  0.805143037359507  0.9437105264192174  0.1134071860505514  1.0000
  C   C72       1.0  0.1948568210184618  0.5562909299594098  0.6134080051926531  1.0000
  C   C73       1.0  0.8194775156431646  0.7603656997316578  0.8338616501387434  1.0000
  C   C74       1.0  0.18051945624035431  0.7396344424696579  0.33386071220220964  1.0000
  C   C75       1.0  0.6805219296038131  0.26036355626563085  0.16613930665481993  1.0000
  C   C76       1.0  0.3194774788481922  0.23963469502038492  0.6661387749536657  1.0000
  C   C77       1.0  0.1805196305905667  0.2396354335046596  0.1661393587969613  1.0000
  C   C78       1.0  0.8194776899942441  0.2603639243493134  0.6661397720919027  1.0000
  C   C79       1.0  0.31948078427500093  0.7396359171187472  0.8338606529996611  1.0000
  C   C80       1.0  0.6805224512092709  0.7603625652300964  0.3338601354203162  1.0000
  C   C81       1.0  0.21473618142429982  0.5781901264522347  0.21820378153923767  1.0000
  C   C82       1.0  0.785262932190861  0.9218109409650097  0.7182049542703905  1.0000
  C   C83       1.0  0.2852664086786661  0.07819001884747219  0.7817944306613924  1.0000
  C   C84       1.0  0.7147336418637807  0.4218095203540387  0.2817951789209586  1.0000
  C   C85       1.0  0.7852686203213751  0.4218099002139298  0.7817946041963707  1.0000
  C   C86       1.0  0.21473421404338916  0.0781896389866858  0.28179448074594393  1.0000
  C   C87       1.0  0.7147363052003898  0.9218094545360812  0.21820447971376916  1.0000
  C   C88       1.0  0.2852642003260399  0.578190506314563  0.7182047807345596  1.0000
  C   C89       1.0  0.9556921268139363  0.5090072549072036  0.6825312446515994  1.0000
  C   C90       1.0  0.04430561150406479  0.990993756575449  0.18253226829943256  1.0000
  C   C91       1.0  0.544308150417777  0.0090048423360827  0.3174688361406267  1.0000
  C   C92       1.0  0.45569118755472005  0.49099419951905093  0.8174686194985127  1.0000
  C   C93       1.0  0.044308499197413205  0.49099387832892943  0.3174702889233032  1.0000
  C   C94       1.0  0.9556929266402747  0.0090073766622751  0.8174708391947261  1.0000
  C   C95       1.0  0.4556924755946668  0.9909940777648529  0.6825305988740809  1.0000
  C   C96       1.0  0.544309438458484  0.5090041672964389  0.18252819231750547  1.0000
  C   C97       1.0  0.921442737310386  0.5657747221724846  0.7240386803109189  1.0000
  C   C98       1.0  0.078552197854421  0.9342258011102377  0.2240385661990203  1.0000
  C   C99       1.0  0.5785561172891889  0.0657727860099158  0.27596043055490327  1.0000
  C   C100      1.0  0.4214425440592464  0.4342267440440964  0.775961192967145  1.0000
  C   C101      1.0  0.0785564967897159  0.43422696434726765  0.27596285326455927  1.0000
  C   C102      1.0  0.9214428605133878  0.0657731189924817  0.7759619180957528  1.0000
  C   C103      1.0  0.421444508723468  0.9342266873731687  0.7240374305412088  1.0000
  C   C104      1.0  0.5785566900423691  0.5657716227732763  0.224037717407704  1.0000
  C   C105      1.0  0.7946159894129609  0.5772530981164578  0.6436298075921343  1.0000
  C   C106      1.0  0.20537898320114323  0.9227467458013056  0.14362964363323266  1.0000
  C   C107      1.0  0.7053821630188325  0.07725179765927241  0.35637036859859705  1.0000
  C   C108      1.0  0.29461715683554257  0.4227473051948608  0.856371673405462  1.0000
  C   C109      1.0  0.20538533255403021  0.42274858840211493  0.3563706767037402  1.0000
  C   C110      1.0  0.7946153792115355  0.07725106773434481  0.8563703160211985  1.0000
  C   C111      1.0  0.29461776703815457  0.922747675724345  0.643628017137267  1.0000
  C   C112      1.0  0.705384861087751  0.5772516149066578  0.14362881088838006  1.0000
  C   C113      1.0  0.6641388632272865  0.7243535894514681  0.7982742881847145  1.0000
  C   C114      1.0  0.33585882118583754  0.7756476035149334  0.2982728345482996  1.0000
  C   C115      1.0  0.8358626893745582  0.22435200159544885  0.20172871682807167  1.0000
  C   C116      1.0  0.1641367025015086  0.27564851862897655  0.7017288015078619  1.0000
  C   C117      1.0  0.33586245873976145  0.27564699050115854  0.20172724538970496  1.0000
  C   C118      1.0  0.6641376290925224  0.22435242315513912  0.7017286990263825  1.0000
  C   C119      1.0  0.1641386325930654  0.7756469185066023  0.7982722921055228  1.0000
  C   C120      1.0  0.8358639235100257  0.7243515080407905  0.2982732567059259  1.0000
  C   C121      1.0  0.0070992143040485  0.7937829944560735  0.05781636912977459  1.0000
  C   C122      1.0  0.992901365920325  0.7062167149059916  0.5578177097942003  1.0000
  C   C123      1.0  0.49290325912519967  0.29378306686061967  0.9421826690771269  1.0000
  C   C124      1.0  0.5070960207637897  0.2062161705466039  0.4421826466689395  1.0000
  C   C125      1.0  0.9929055874416833  0.2062159256441447  0.9421830658843788  1.0000
  C   C126      1.0  0.007095084358432801  0.29378275847987123  0.44218277450077176  1.0000
  C   C127      1.0  0.507098758798037  0.7062169598068452  0.05781676593817049  1.0000
  C   C128      1.0  0.4929032133371578  0.793783302838783  0.5578178376256631  1.0000
  C   C129      1.0  0.28121526696552474  0.5367585669026627  0.182221857213257  1.0000
  C   C130      1.0  0.7187838634080919  0.9632402309616667  0.6822236302153897  1.0000
  C   C131      1.0  0.21878386578081432  0.036760751737453704  0.8177762970743315  1.0000
  C   C132      1.0  0.7812161680033755  0.4632393971676409  0.3177776101671554  1.0000
  C   C133      1.0  0.7187874469136517  0.463240906480479  0.8177765285222378  1.0000
  C   C134      1.0  0.2812160666485255  0.036759242423187295  0.31777632943946077  1.0000
  C   C135      1.0  0.7812160642755045  0.9632398282141779  0.1822236625812934  1.0000
  C   C136      1.0  0.21878376205284417  0.5367606295014227  0.6822233987674053  1.0000
  C   C137      1.0  0.1359934410117134  0.8095926672849101  0.9873891781796896  1.0000
  C   C138      1.0  0.8640076351018421  0.690407162365709  0.4873900878290271  1.0000
  C   C139      1.0  0.3640097198175097  0.3095918797700392  0.012609882126071196  1.0000
  C   C140      1.0  0.6359911520490585  0.1904072373478627  0.5126097218953161  1.0000
  C   C141      1.0  0.8640078809559171  0.19040846594862876  0.012609207557154898  1.0000
  C   C142      1.0  0.13599090304400363  0.3095906511696285  0.5126103964645096  1.0000
  C   C143      1.0  0.6359936900174007  0.6904064870466158  0.9873890282482235  1.0000
  C   C144      1.0  0.3640080820518606  0.8095927893204974  0.4873902377600174  1.0000
  C   C145      1.0  0.18482400939125654  0.7552650072569735  0.0233406724824405  1.0000
  C   C146      1.0  0.8151765868895636  0.7447352013300801  0.5233415897165868  1.0000
  C   C147      1.0  0.3151798767942894  0.25526519490076544  0.9766572626026644  1.0000
  C   C148      1.0  0.6848193870385657  0.24473464984619409  0.4766572466708112  1.0000
  C   C149      1.0  0.8151828802208956  0.2447361259752014  0.9766571886139985  1.0000
  C   C150      1.0  0.18481916743415647  0.2552637187712818  0.47665732065910754  1.0000
  C   C151      1.0  0.6848221411294944  0.7447337251991114  0.023341123132539096  1.0000
  C   C152      1.0  0.3151777591957128  0.7552653768225214  0.5233427129847924  1.0000
  C   C153      1.0  0.7019598963633201  0.6707846507447357  0.754102209446792  1.0000
  C   C154      1.0  0.298032240977804  0.8292170262436118  0.2541003161330764  1.0000
  C   C155      1.0  0.7980402933178681  0.17078259188714642  0.24590019604485036  1.0000
  C   C156      1.0  0.20195907798590443  0.3292179975988533  0.7459008701660395  1.0000
  C   C157      1.0  0.2980407296474894  0.32921758905899184  0.24590037340820453  1.0000
  C   C158      1.0  0.7019586416563116  0.1707824471440276  0.7459012174419613  1.0000
  C   C159      1.0  0.201963116516616  0.8292168814966985  0.7540992389698715  1.0000
  C   C160      1.0  0.7980415480258714  0.6707820290700895  0.2541001387684289  1.0000
  C   C161      1.0  0.1687230722458821  0.6364569352231585  0.18509539330872823  1.0000
  C   C162      1.0  0.8312760567892711  0.8635435269960895  0.685095947688275  1.0000
  C   C163      1.0  0.33127948632463955  0.1364568636920254  0.8149023757005196  1.0000
  C   C164      1.0  0.6687184609315936  0.36354217414064754  0.3149041040542926  1.0000
  C   C165      1.0  0.8312831214102588  0.3635436447277982  0.8149050909857178  1.0000
  C   C166      1.0  0.16871830562320156  0.13645594638889952  0.31490296268799506  1.0000
  C   C167      1.0  0.6687239235106334  0.8635415031233935  0.18509496075478885  1.0000
  C   C168      1.0  0.33127659743561105  0.6364589590956129  0.6850963802420296  1.0000
  C   C169      1.0  0.833600659952488  0.5201038665953064  0.6047964593870461  1.0000
  C   C170      1.0  0.16639781052521843  0.9798959164314454  0.10479691034342407  1.0000
  C   C171      1.0  0.6663996112736896  0.020102640449174203  0.39520363691740096  1.0000
  C   C172      1.0  0.3335996904948217  0.4798965232953666  0.8952044865810862  1.0000
  C   C173      1.0  0.16640205392590704  0.4798967133562543  0.3952040249078691  1.0000
  C   C174      1.0  0.8336007276199596  0.020103003671899006  0.8952051478698663  1.0000
  C   C175      1.0  0.33360031878316937  0.979896832934856  0.6047952734581301  1.0000
  C   C176      1.0  0.6664009355174941  0.5201023968059743  0.10479547307328828  1.0000
  C   C177      1.0  0.7227181163384414  0.7689427189966126  0.8383756686706291  1.0000
  C   C178      1.0  0.27727954939812355  0.7310585368489271  0.33837416831771344  1.0000
  C   C179      1.0  0.777282020222202  0.2689399818606049  0.16162687403079445  1.0000
  C   C180      1.0  0.2227173903309421  0.2310599222000604  0.6616263561304478  1.0000
  C   C181      1.0  0.2772797258501143  0.23106062737354457  0.16162586490619188  1.0000
  C   C182      1.0  0.7227182927913632  0.2689409365379305  0.6616278898960601  1.0000
  C   C183      1.0  0.22271999770121914  0.7310589382405015  0.8383730856233881  1.0000
  C   C184      1.0  0.7772818437702754  0.7689389979015291  0.33837360352411133  1.0000
  C   C185      1.0  0.05125759981262949  0.7387191477931196  0.09635740353564158  1.0000
  C   C186      1.0  0.9487436584171361  0.7612811752852339  0.5963593575800202  1.0000
  C   C187      1.0  0.44874629532711907  0.23872028153161304  0.9036394591421695  1.0000
  C   C188      1.0  0.5512530025123397  0.26127944872392567  0.4036405512145791  1.0000
  C   C189      1.0  0.9487506817108554  0.26127977230649446  0.9036420314780501  1.0000
  C   C190      1.0  0.051252791861287506  0.23871995795038  0.40364060207645025  1.0000
  C   C191      1.0  0.551257114507557  0.7612802984173614  0.09635787731468069  1.0000
  C   C192      1.0  0.44874414372205257  0.7387205779443845  0.596358883801372  1.0000
  N   N1        1.0  0.04779869805298632  0.8286890403571974  0.0033273129122264  1.0000
  N   N2        1.0  0.9522012115935112  0.6713100302820435  0.5033280909903224  1.0000
  N   N3        1.0  0.452203756485723  0.32868865892966437  0.9966733480067588  1.0000
  N   N4        1.0  0.547796193980524  0.1713112172024438  0.49667326595903916  1.0000
  N   N5        1.0  0.952203319869824  0.17131209287746427  0.9966726467435051  1.0000
  N   N6        1.0  0.04779523868559471  0.328687229971095  0.4966734425824272  1.0000
  N   N7        1.0  0.5477996533482213  0.6713119210217684  0.003327136288064  1.0000
  N   N8        1.0  0.4522030401202741  0.8286888094663214  0.5033272183359543  1.0000
  N   N9        1.0  0.9134900982577109  0.48627335451227793  0.623149894356622  1.0000
  N   N10       1.0  0.08650863425860682  0.013729255635247701  0.12315181353049809  1.0000
  N   N11       1.0  0.5865099206893091  0.9862715418823457  0.37685032894276554  1.0000
  N   N12       1.0  0.4134898149950318  0.5137275611594776  0.8768510303198981  1.0000
  N   N13       1.0  0.08651052775367421  0.5137272254408741  0.3768521638575492  1.0000
  N   N14       1.0  0.9134905998410403  0.9862718776031729  0.8768523432428946  1.0000
  N   N15       1.0  0.4134900093677275  0.013726824935325501  0.6231491060716506  1.0000
  N   N16       1.0  0.5865101150623745  0.48627080565695735  0.12314683077553208  1.0000
  O   O1        1.0  0.39795071989794206  0.4488146346975412  0.09169678060575139  1.0000
  O   O2        1.0  0.6020494191790109  0.05118571299701102  0.5916980087282724  1.0000
  O   O3        1.0  0.10205445345311401  0.9488191828711479  0.9083019496752202  1.0000
  O   O4        1.0  0.8979459635377295  0.5511821826216378  0.40830422958162416  1.0000
  O   O5        1.0  0.6020533858923683  0.5511842854023784  0.9083021297688345  1.0000
  O   O6        1.0  0.3979477270548131  0.9488159735218742  0.4083019509284966  1.0000
  O   O7        1.0  0.8979496523348516  0.05118748319701891  0.09169800998409978  1.0000
  O   O8        1.0  0.10204909483045552  0.44881397106536974  0.5916978286302026  1.0000
  O   O9        1.0  0.8481021227218761  0.8441970544863154  0.9281982116385165  1.0000
  O   O10       1.0  0.15190176478090225  0.6558037889185614  0.42819873806583075  1.0000
  O   O11       1.0  0.6518979731128878  0.344196432803905  0.07180233770001368  1.0000
  O   O12       1.0  0.34810008736381803  0.15580222384477346  0.5718016811847733  1.0000
  O   O13       1.0  0.15189850329004878  0.15580241889924207  0.07180279729556098  1.0000
  O   O14       1.0  0.8481002531409985  0.3441984508849246  0.5718038447889809  1.0000
  O   O15       1.0  0.34809917312138344  0.6558035938648105  0.928197621955597  1.0000
  O   O16       1.0  0.6519005386488672  0.8441966962553382  0.428196704550615  1.0000
  O   O17       1.0  0.9653748314232545  0.8217126471806824  0.8557192111298801  1.0000
  O   O18       1.0  0.0346235221920139  0.6782858694429592  0.35571822632230976  1.0000
  O   O19       1.0  0.5346259725348544  0.32171328608341543  0.1442807821399512  1.0000
  O   O20       1.0  0.4653748380080883  0.1782865907781428  0.6442801257982892  1.0000
  O   O21       1.0  0.0346230107664738  0.1782868262053512  0.14428179780457376  1.0000
  O   O22       1.0  0.9653757119092035  0.32171305065862293  0.6442817333322495  1.0000
  O   O23       1.0  0.4653774372997931  0.678287847148532  0.8557160296776302  1.0000
  O   O24       1.0  0.534626483960473  0.8217106694720969  0.35571878457550804  1.0000
  O   O25       1.0  0.4248069355467123  0.5514353700181188  0.028414288202519296  1.0000
  O   O26       1.0  0.5751936583717097  0.9485642932396278  0.5284134557604077  1.0000
  O   O27       1.0  0.07519636498926731  0.05143784545799691  0.9715875590783084  1.0000
  O   O28       1.0  0.9248042931161891  0.44856088477239103  0.4715872394662028  1.0000
  O   O29       1.0  0.5751950823772988  0.448561336949439  0.9715856714501141  1.0000
  O   O30       1.0  0.42480487977333325  0.05143739327860431  0.47158597925651685  1.0000
  O   O31       1.0  0.9248084367548375  0.948564394345013  0.028415023776133797  1.0000
  O   O32       1.0  0.07519215716279601  0.5514363754811598  0.5284148187462137  1.0000
