data_image0
_chemical_formula_structural       Mn2H32C40S12N8
_chemical_formula_sum              "Mn2 H32 C40 S12 N8"
_cell_length_a       7.9863392154551835
_cell_length_b       7.986406525381743
_cell_length_c       19.26341345210472
_cell_angle_alpha    89.94462760367473
_cell_angle_beta     89.944546233971
_cell_angle_gamma    115.95531337258191

_space_group_name_H-M_alt    "P 1"
_space_group_IT_number       1

loop_
  _space_group_symop_operation_xyz
  'x, y, z'

loop_
  _atom_site_type_symbol
  _atom_site_label
  _atom_site_symmetry_multiplicity
  _atom_site_fract_x
  _atom_site_fract_y
  _atom_site_fract_z
  _atom_site_occupancy
  Mn  Mn1       1.0  0.16584663381264167  0.8341492757514077  0.2500019317327968  1.0000
  Mn  Mn2       1.0  0.8339490702099113  0.16605357544789004  0.7499989067735842  1.0000
  H   H1        1.0  0.7410796287490558  0.6111675230064081  0.23253310753661086  1.0000
  H   H2        1.0  0.25947403233657707  0.3913545779219235  0.7329809586889483  1.0000
  H   H3        1.0  0.3888461133716278  0.25890602921993633  0.2674657734612893  1.0000
  H   H4        1.0  0.6086414133549882  0.7405352634778526  0.7670171642530335  1.0000
  H   H5        1.0  0.5339953234192549  0.3483578641535204  0.15783044151683612  1.0000
  H   H6        1.0  0.4669637504521449  0.6536895338027265  0.6577044550064316  1.0000
  H   H7        1.0  0.6516481043672471  0.46599107495529085  0.3421710150069259  1.0000
  H   H8        1.0  0.34630035586176433  0.5330467083087741  0.8422947284514352  1.0000
  H   H9        1.0  0.6787667837025212  0.22066226492906083  0.06797190074102132  1.0000
  H   H10       1.0  0.32278087980750314  0.7791677304813192  0.5668185738520037  1.0000
  H   H11       1.0  0.779341578828891  0.32122210844146803  0.432032565015163  1.0000
  H   H12       1.0  0.220835092494447  0.6772317787142442  0.933185901863965  1.0000
  H   H13       1.0  0.023345792278647127  0.3700451357939302  0.0562281206414497  1.0000
  H   H14       1.0  0.9781689737179139  0.6290976776466338  0.5552462792378066  1.0000
  H   H15       1.0  0.6299516578147007  0.9766492721817459  0.44377613752301687  1.0000
  H   H16       1.0  0.3709206855755128  0.021844299068753507  0.944756843181331  1.0000
  H   H17       1.0  0.9983404088777661  0.412666646905052  0.2726664768359086  1.0000
  H   H18       1.0  0.9996651207946388  0.5871327610209606  0.772260044079758  1.0000
  H   H19       1.0  0.5873373658296828  0.0016624329101091002  0.22733689830546677  1.0000
  H   H20       1.0  0.41287854888765446  0.0003281950096222999  0.727736311036388  1.0000
  H   H21       1.0  0.05626932224177494  0.20272540598323024  0.3536793940632138  1.0000
  H   H22       1.0  0.9417454011337514  0.7966012587404452  0.8535543126897525  1.0000
  H   H23       1.0  0.7972807296998925  0.9437367744690806  0.14632166755203005  1.0000
  H   H24       1.0  0.203402313238243  0.05824687444604852  0.6464431859877922  1.0000
  H   H25       1.0  0.30828200433158076  0.34235849649629563  0.4434475587453549  1.0000
  H   H26       1.0  0.6903611023777217  0.656185532541933  0.9438524632332063  1.0000
  H   H27       1.0  0.6576468548707624  0.691729068671009  0.0565508629027818  1.0000
  H   H28       1.0  0.34381842563757203  0.309612934741061  0.5561398910096643  1.0000
  H   H29       1.0  0.4869774499759388  0.689150137065198  0.44963018483601763  1.0000
  H   H30       1.0  0.5126303104730425  0.30909033367938593  0.9500948078853145  1.0000
  H   H31       1.0  0.31084939485168667  0.513026892446135  0.050375572198362306  1.0000
  H   H32       1.0  0.690917169128909  0.48733053868530635  0.5498881387637696  1.0000
  C   C1        1.0  0.7984378655534954  0.5536636954073445  0.19297832655819752  1.0000
  C   C2        1.0  0.20236776280356852  0.4478776835860075  0.693002195594545  1.0000
  C   C3        1.0  0.4463483655757656  0.20155630294509314  0.3070225849953019  1.0000
  C   C4        1.0  0.5521208642598983  0.7976471078471836  0.8069954504413845  1.0000
  C   C5        1.0  0.6845432915122701  0.40717731552591374  0.15108730416259425  1.0000
  C   C6        1.0  0.316499222164012  0.5939599387440212  0.6507762520403448  1.0000
  C   C7        1.0  0.5928287980079148  0.3154455208696803  0.34891307808957356  1.0000
  C   C8        1.0  0.4060350270759728  0.6835116786133782  0.8492240035710453  1.0000
  C   C9        1.0  0.7644486152198413  0.33805262460202823  0.1007740266366497  1.0000
  C   C10       1.0  0.23701248231967761  0.6621651452593869  0.5999969252286377  1.0000
  C   C11       1.0  0.6619485185211716  0.23554097734884755  0.3992304518157681  1.0000
  C   C12       1.0  0.33784035770337806  0.7629989716200145  0.9000049424921956  1.0000
  C   C13       1.0  0.9567207111177682  0.4217736307307762  0.09432754134088842  1.0000
  C   C14       1.0  0.04472648000457737  0.5779929236066014  0.5935838948100242  1.0000
  C   C15       1.0  0.5782240813333672  0.04327352049984509  0.4056768948611592  1.0000
  C   C16       1.0  0.42200189156761786  0.9552757427040605  0.9064180190089816  1.0000
  C   C17       1.0  0.06493935302130902  0.5697130917864045  0.1379724005438376  1.0000
  C   C18       1.0  0.936130173246646  0.4304965897959435  0.6375403500432526  1.0000
  C   C19       1.0  0.43028816633969325  0.9350578209254581  0.3620319173601559  1.0000
  C   C20       1.0  0.5695086915012908  0.06387652169822643  0.8624564866023408  1.0000
  C   C21       1.0  0.10488324990721762  0.4694848800951021  0.3125364719451228  1.0000
  C   C22       1.0  0.893791097370027  0.5301986827974545  0.8124737609532462  1.0000
  C   C23       1.0  0.5305174418689733  0.8951151156070483  0.1874667530117264  1.0000
  C   C24       1.0  0.4698119793736879  0.10621149813907492  0.6875246877207459  1.0000
  C   C25       1.0  0.13743267194784892  0.35325255894402835  0.3583318696186809  1.0000
  C   C26       1.0  0.8612566743944612  0.6460512588940617  0.8584145524945017  1.0000
  C   C27       1.0  0.6467484525559046  0.8625725123440731  0.1416702583639236  1.0000
  C   C28       1.0  0.35394786621231594  0.1387350315291656  0.641580843681311  1.0000
  C   C29       1.0  0.27691157810933487  0.43185745331214065  0.4084838656735812  1.0000
  C   C30       1.0  0.7220355002521189  0.5670250040721571  0.9087972500795376  1.0000
  C   C31       1.0  0.5681442220461081  0.7230975714176112  0.09151875688635162  1.0000
  C   C32       1.0  0.4329821572558076  0.2779407367818863  0.5911934989020793  1.0000
  C   C33       1.0  0.3765156523996824  0.6237383900831478  0.41156563851209443  1.0000
  C   C34       1.0  0.6230347017474215  0.37502996346665907  0.9119717941117502  1.0000
  C   C35       1.0  0.3762640782803148  0.6234902110007213  0.0884401349930073  1.0000
  C   C36       1.0  0.6249815392316406  0.3769507670807642  0.5880199542215792  1.0000
  C   C37       1.0  0.2661333142565996  0.6642903409748728  0.13577014126539672  1.0000
  C   C38       1.0  0.7348684666632793  0.3361808352669868  0.6354224596356844  1.0000
  C   C39       1.0  0.33570757478999996  0.7338655709527875  0.36423517398314703  1.0000
  C   C40       1.0  0.6638124115442352  0.26513657386767164  0.8645733830831688  1.0000
  S   S1        1.0  0.06672359563501833  0.1462261548594554  0.8141545479046786  1.0000
  S   S2        1.0  0.9330739614562095  0.8538074225451315  0.3142716907353106  1.0000
  S   S3        1.0  0.8537718098038599  0.9332739526041396  0.6858487480595914  1.0000
  S   S4        1.0  0.1462010660120825  0.06692309477244152  0.18572772763562287  1.0000
  S   S5        1.0  0.06857236900680164  0.23771079947216836  0.9141210061833649  1.0000
  S   S6        1.0  0.9306514715576599  0.7623070321939169  0.4143390340023886  1.0000
  S   S7        1.0  0.7622851390258348  0.9314088526757377  0.5858812901538286  1.0000
  S   S8        1.0  0.2376916891089778  0.06933747328430681  0.08565827726989282  1.0000
  S   S9        1.0  0.8894728500394747  0.03257097027270111  0.9792102637901581  1.0000
  S   S10       1.0  0.11018050462811871  0.9674718665085821  0.4790252714981876  1.0000
  S   S11       1.0  0.9674218505660975  0.11051187015877421  0.5207916355454927  1.0000
  S   S12       1.0  0.03251794521360564  0.8898148179306988  0.020972956203941406  1.0000
  N   N1        1.0  0.9869101955143337  0.6358004115594228  0.1881542056184244  1.0000
  N   N2        1.0  0.013854310234819466  0.36504576563043406  0.688068594895775  1.0000
  N   N3        1.0  0.3642024142239749  0.013088044144410605  0.3118487423860473  1.0000
  N   N4        1.0  0.634953954963578  0.9861505090158506  0.8119311704017919  1.0000
  N   N5        1.0  0.3428934412336347  0.7989931444428181  0.18524976461073095  1.0000
  N   N6        1.0  0.6575175709100733  0.20191232932131706  0.6851916710040202  1.0000
  N   N7        1.0  0.20100840621057617  0.657107854203332  0.3147555717553487  1.0000
  N   N8        1.0  0.798095463125925  0.3424924560435161  0.8148051837412141  1.0000
