data_image0
_chemical_formula_structural       Er2H42C56O24
_chemical_formula_sum              "Er2 H42 C56 O24"
_cell_length_a       9.63708982070541
_cell_length_b       11.4789185139001
_cell_length_c       12.387660328519226
_cell_angle_alpha    75.25418097937006
_cell_angle_beta     73.99089555869783
_cell_angle_gamma    72.87613244681542

_space_group_name_H-M_alt    "P 1"
_space_group_IT_number       1

loop_
  _space_group_symop_operation_xyz
  'x, y, z'

loop_
  _atom_site_type_symbol
  _atom_site_label
  _atom_site_symmetry_multiplicity
  _atom_site_fract_x
  _atom_site_fract_y
  _atom_site_fract_z
  _atom_site_occupancy
  Er  Er1       1.0  0.27651958311533786  0.454460806232106  0.055872422562046616  1.0000
  Er  Er2       1.0  0.7234811005191374  0.5455410064899482  0.9441315303366765  1.0000
  H   H1        1.0  0.11847243948354  0.7345550891772274  0.13288418198521873  1.0000
  H   H2        1.0  0.8815259332178726  0.2654504130587014  0.8671113291064219  1.0000
  H   H3        1.0  0.9357451802635307  0.925874856356323  0.18758098798142714  1.0000
  H   H4        1.0  0.06426052575265119  0.0741316260663112  0.8124166817944812  1.0000
  H   H5        1.0  0.2591877974416406  0.14037221636810668  0.011650369503051598  1.0000
  H   H6        1.0  0.7408194964523034  0.8596286881246583  0.9883442478050953  1.0000
  H   H7        1.0  0.4422137384282722  0.947407539539412  0.9550572917747788  1.0000
  H   H8        1.0  0.557788956303547  0.0525942666740065  0.044937331726067974  1.0000
  H   H9        1.0  0.013406749590231649  0.9912180453400832  0.33258892048770167  1.0000
  H   H10       1.0  0.986597204660633  0.00878006859989  0.6674159956149525  1.0000
  H   H11       1.0  0.8409607587391363  0.0225057422547295  0.5182840580371251  1.0000
  H   H12       1.0  0.15903671667065572  0.977492332790696  0.4817215111897539  1.0000
  H   H13       1.0  0.6332846236063006  0.2129683201455775  0.5295999110185363  1.0000
  H   H14       1.0  0.3667119595817497  0.7870325309779245  0.4704011546474974  1.0000
  H   H15       1.0  0.6052245938124656  0.3730293292602056  0.353401057212885  1.0000
  H   H16       1.0  0.3947776252822237  0.6269668986589777  0.6465966273275542  1.0000
  H   H17       1.0  0.09441614601361438  0.2631967226958736  0.4387738314568424  1.0000
  H   H18       1.0  0.9055834060154456  0.7368013544321669  0.5612264282353011  1.0000
  H   H19       1.0  0.939068026988387  0.260779058880793  0.63793556031861  1.0000
  H   H20       1.0  0.060925848255770576  0.7392199137718476  0.36206494841571424  1.0000
  H   H21       1.0  0.7079653827017794  0.4272762119805761  0.6740792638627298  1.0000
  H   H22       1.0  0.29202981952300877  0.5727218352085118  0.3259195553094259  1.0000
  H   H23       1.0  0.6258963296509279  0.5881468801597121  0.513329198332805  1.0000
  H   H24       1.0  0.37409642865730325  0.411852081142136  0.4866691413331097  1.0000
  H   H25       1.0  0.5284111133721083  0.683037088685353  0.21694959066739014  1.0000
  H   H26       1.0  0.47158242078352686  0.3169628035991535  0.7830467369712297  1.0000
  H   H27       1.0  0.3601323880062566  0.8964230949040511  0.21865250881440101  1.0000
  H   H28       1.0  0.6398620137274664  0.10357774039085396  0.7813474346053297  1.0000
  H   H29       1.0  0.639115375705991  0.9839804041925785  0.38915740539410854  1.0000
  H   H30       1.0  0.36088556882560846  0.016016756063152098  0.6108451845990148  1.0000
  H   H31       1.0  0.8016615430008044  0.7677998422474485  0.3939460067594497  1.0000
  H   H32       1.0  0.19833499930899018  0.23219728119634195  0.6060519268231702  1.0000
  H   H33       1.0  0.3995907792178883  0.31822952082085004  0.2576723546146199  1.0000
  H   H34       1.0  0.6004099143907666  0.6817648485695145  0.7423309619256744  1.0000
  H   H35       1.0  0.48476895704862233  0.4268020752480339  0.19566655951020104  1.0000
  H   H36       1.0  0.5152357830238188  0.5731895263429223  0.8043357082067288  1.0000
  H   H37       1.0  0.054638858115438914  0.34839430807339505  0.014286827433430523  1.0000
  H   H38       1.0  0.9453661082362855  0.6516038034713956  0.9857138259566015  1.0000
  H   H39       1.0  0.1502114905241428  0.38778558718404793  0.8935681781293925  1.0000
  H   H40       1.0  0.8497931871565925  0.6122134508655959  0.10643151005545093  1.0000
  H   H41       1.0  0.21033393736829714  0.18952477752910812  0.2644875818055042  1.0000
  H   H42       1.0  0.7896664051776484  0.8104779548247973  0.7355121899975074  1.0000
  C   C1        1.0  0.4088290025283641  0.7142105913591903  0.02072476791606456  1.0000
  C   C2        1.0  0.5911710875295383  0.28578562760439036  0.9792750102685874  1.0000
  C   C3        1.0  0.2936309095261081  0.8286960703729842  0.04347579581270379  1.0000
  C   C4        1.0  0.7063701957628581  0.1713075912453377  0.9565211599903806  1.0000
  C   C5        1.0  0.1499622355817465  0.8229769828830269  0.10745243748237246  1.0000
  C   C6        1.0  0.8500391452738327  0.17702575051219324  0.8925446795532752  1.0000
  C   C7        1.0  0.0479589071480717  0.9294738989064655  0.13911637404276436  1.0000
  C   C8        1.0  0.9520451947557762  0.07053071467785797  0.8608821038972184  1.0000
  C   C9        1.0  0.0914261486220056  0.041712471941515596  0.10705255325522244  1.0000
  C   C10       1.0  0.9085804365115492  0.9582912326848001  0.8929488161088913  1.0000
  C   C11       1.0  0.23102667234854124  0.050594062873194894  0.037471272125486586  1.0000
  C   C12       1.0  0.7689790189981666  0.9494086953062252  0.9625248735122656  1.0000
  C   C13       1.0  0.33128537244319756  0.94383253248813  0.0062108671302140836  1.0000
  C   C14       1.0  0.6687203320078866  0.05617022740953809  0.9937860824801634  1.0000
  C   C15       1.0  0.9034810772766803  0.16239545886531198  0.2379195221469459  1.0000
  C   C16       1.0  0.09652363971720491  0.8376035843390781  0.7620825779557878  1.0000
  C   C17       1.0  0.9215016666653284  0.07329544663016918  0.33719366923813265  1.0000
  C   C18       1.0  0.07850036859343847  0.9267017215398567  0.6628094818781493  1.0000
  C   C19       1.0  0.8245630290644854  0.09189507793416848  0.4413380257511508  1.0000
  C   C20       1.0  0.17543873062766838  0.9081030184589661  0.558664964132561  1.0000
  C   C21       1.0  0.7083430965857929  0.1986233315505643  0.4481286610987071  1.0000
  C   C22       1.0  0.29165617987665376  0.801375673800578  0.5518714373608803  1.0000
  C   C23       1.0  0.6921220995449318  0.28742438893771544  0.35005312825173013  1.0000
  C   C24       1.0  0.3078798832962948  0.7125727723593228  0.649946806974036  1.0000
  C   C25       1.0  0.7887103913316195  0.27248477362130064  0.24395769857526528  1.0000
  C   C26       1.0  0.21129324647438355  0.7275105408620773  0.7560439242114116  1.0000
  C   C27       1.0  0.7693697111648274  0.37459645824704774  0.14464319796753236  1.0000
  C   C28       1.0  0.23063880293500455  0.6254007488175332  0.8553593000245316  1.0000
  C   C29       1.0  0.051404258385943535  0.43009157036229323  0.25066370062120313  1.0000
  C   C30       1.0  0.9485860182576856  0.5699120224225281  0.7493324677861113  1.0000
  C   C31       1.0  0.9494621896990552  0.42646710245620056  0.3649756991822813  1.0000
  C   C32       1.0  0.05053243518374024  0.573532797742601  0.63502118957949  1.0000
  C   C33       1.0  0.9908840533206772  0.3333987074044201  0.45645713168205054  1.0000
  C   C34       1.0  0.00911171470681892  0.6666012075816709  0.5435435340933951  1.0000
  C   C35       1.0  0.9050062852766061  0.3324683946252946  0.5670712736874323  1.0000
  C   C36       1.0  0.0949862498825525  0.6675315017726501  0.43293012063643493  1.0000
  C   C37       1.0  0.7744671468624206  0.4249900910247887  0.5875712665002696  1.0000
  C   C38       1.0  0.22552592632556676  0.5750079472086964  0.41242964631609896  1.0000
  C   C39       1.0  0.7287934777547633  0.5168744937990296  0.4977463281130739  1.0000
  C   C40       1.0  0.27119797821651304  0.48312167387790333  0.5022545888947435  1.0000
  C   C41       1.0  0.8155702966747285  0.517648026727329  0.3868885533492091  1.0000
  C   C42       1.0  0.18442656207992766  0.48235189617306423  0.6131126735493952  1.0000
  C   C43       1.0  0.6727581730088019  0.7150869197728369  0.3051769845829854  1.0000
  C   C44       1.0  0.3272430077762607  0.284909307105046  0.6948233547248182  1.0000
  C   C45       1.0  0.5493185269080242  0.7496978619398644  0.25556194758303263  1.0000
  C   C46       1.0  0.4506796095399325  0.2503085736739195  0.7444358141939347  1.0000
  C   C47       1.0  0.4572635537476091  0.8685164822808457  0.25616268081553534  1.0000
  C   C48       1.0  0.5427337675397935  0.13148901719553405  0.743834681070844  1.0000
  C   C49       1.0  0.4896831369316104  0.9533943496400424  0.303876153372329  1.0000
  C   C50       1.0  0.5103172302580035  0.0466046636254021  0.6961245062104099  1.0000
  C   C51       1.0  0.6145476337490764  0.9171083114750616  0.35295196099006904  1.0000
  C   C52       1.0  0.3854573310375501  0.08288607754476365  0.6470479722344396  1.0000
  C   C53       1.0  0.7054517571051376  0.7976879565216423  0.3550180562704811  1.0000
  C   C54       1.0  0.29454726843436424  0.202308257964134  0.64498276873627  1.0000
  C   C55       1.0  0.39554556221562354  0.0817056556168794  0.30197292223103744  1.0000
  C   C56       1.0  0.6044586329840059  0.9183026925201501  0.6980319036828818  1.0000
  O   O1        1.0  0.38652762653106976  0.40526415913060276  0.2144643019475723  1.0000
  O   O2        1.0  0.6134759588573999  0.5947311484797737  0.7855341049485889  1.0000
  O   O3        1.0  0.15719805346432741  0.35771771992764195  0.9737306300187499  1.0000
  O   O4        1.0  0.842806086187572  0.6422831762864618  0.02626953967359203  1.0000
  O   O5        1.0  0.372642395432159  0.6101835124406277  0.049495491109354424  1.0000
  O   O6        1.0  0.6273534381172539  0.38981641113671367  0.9505091945292323  1.0000
  O   O7        1.0  0.5428973720625478  0.7219653149247093  0.9767060510013367  1.0000
  O   O8        1.0  0.45710182733870425  0.2780374026419138  0.02328994378800073  1.0000
  O   O9        1.0  0.13972010121980113  0.3301719605971484  0.21933275010217562  1.0000
  O   O10       1.0  0.8602815305587301  0.6698335636634308  0.7806636403863083  1.0000
  O   O11       1.0  0.05722028511688395  0.5336653919827511  0.18280784350753987  1.0000
  O   O12       1.0  0.9427753284136458  0.4663429117406108  0.8172013371200609  1.0000
  O   O13       1.0  0.2649198733970479  0.09797305625254889  0.2757888910230407  1.0000
  O   O14       1.0  0.7350790504375907  0.902030589537176  0.7242069425337336  1.0000
  O   O15       1.0  0.43539579364750125  0.16520746528777147  0.3232740293097295  1.0000
  O   O16       1.0  0.5645986966866943  0.8347859369849359  0.6767301015873457  1.0000
  O   O17       1.0  0.6498936134815098  0.4629729223494649  0.14923498724903791  1.0000
  O   O18       1.0  0.3501086826743818  0.5370195933542447  0.850766800961651  1.0000
  O   O19       1.0  0.8694069527149679  0.3785096917958981  0.05232233030578473  1.0000
  O   O20       1.0  0.13059968327101504  0.6214902971784397  0.9476815347833212  1.0000
  O   O21       1.0  0.767118990369184  0.5995304382092996  0.2942035886319517  1.0000
  O   O22       1.0  0.23287272806431505  0.4004647995262757  0.7057966856358036  1.0000
  O   O23       1.0  0.9984538931388159  0.15201309491452258  0.13395809419916557  1.0000
  O   O24       1.0  0.0015539565836491405  0.8479971207069281  0.8660390060706933  1.0000
