data_image0
_chemical_formula_structural       Nd3H6C12N9O15
_chemical_formula_sum              "Nd3 H6 C12 N9 O15"
_cell_length_a       8.640190417796681
_cell_length_b       8.640136206491587
_cell_length_c       9.94840245645544
_cell_angle_alpha    90.00088298973299
_cell_angle_beta     89.99898886704158
_cell_angle_gamma    120.00260762897076

_space_group_name_H-M_alt    "P 1"
_space_group_IT_number       1

loop_
  _space_group_symop_operation_xyz
  'x, y, z'

loop_
  _atom_site_type_symbol
  _atom_site_label
  _atom_site_symmetry_multiplicity
  _atom_site_fract_x
  _atom_site_fract_y
  _atom_site_fract_z
  _atom_site_occupancy
  Nd  Nd1       1.0  0.7821687651399784  0.999973982979583  0.6666313246491384  1.0000
  Nd  Nd2       1.0  0.9999744748548097  0.7821733127759386  0.3333656333644798  1.0000
  Nd  Nd3       1.0  0.21779122829176598  0.21778946620428735  1.7916155527999993e-06  1.0000
  H   H1        1.0  0.09052256150287263  0.36338695136102933  0.7935442222473698  1.0000
  H   H2        1.0  0.6365931624193449  0.7270985866031835  0.46024773265182267  1.0000
  H   H3        1.0  0.27277490896106116  0.9094636711537517  0.12699624217599143  1.0000
  H   H4        1.0  0.7270816247321435  0.636597216237945  0.5397456250317418  1.0000
  H   H5        1.0  0.9094743565136056  0.2727844687018575  0.8730013183258266  1.0000
  H   H6        1.0  0.36339157458226623  0.09051365848483779  0.2064500489522345  1.0000
  C   C1        1.0  0.390610052902332  0.9067750438630143  0.4977613778468566  1.0000
  C   C2        1.0  0.09325569884018851  0.48389475738022014  0.16441786733644653  1.0000
  C   C3        1.0  0.5161409424598985  0.6093621446861163  0.8310963589472069  1.0000
  C   C4        1.0  0.483881187504771  0.09324649145772672  0.8355772854068065  1.0000
  C   C5        1.0  0.6093649379674774  0.51613168154104  0.16890527921948012  1.0000
  C   C6        1.0  0.9067757242018288  0.39061677120185573  0.5022380774349244  1.0000
  C   C7        1.0  0.3036451200687367  0.9638997340218295  0.6011317914494185  1.0000
  C   C8        1.0  0.03617136588992768  0.33979591935181475  0.26779273309826124  1.0000
  C   C9        1.0  0.6602066796611153  0.6963954403974382  0.9344812754938517  1.0000
  C   C10       1.0  0.33978406260169447  0.03616436683370236  0.7322066424574843  1.0000
  C   C11       1.0  0.6963956928123947  0.6602011899271146  0.06552113579241592  1.0000
  C   C12       1.0  0.9639018341217921  0.3036491240973263  0.39886769377423553  1.0000
  N   N1        1.0  0.08310552907206412  3.983013513678388e-05  0.666681274736206  1.0000
  N   N2        1.0  4.126435666760139e-05  0.0831105965792602  0.33331940008967825  1.0000
  N   N3        1.0  0.9169186914141251  0.916919852827519  1.0894438489000002e-06  1.0000
  N   N4        1.0  0.14312161465240789  0.9443325558340518  0.5653774078751398  1.0000
  N   N5        1.0  0.05575590109514655  0.19885612433650124  0.23202710130927076  1.0000
  N   N6        1.0  0.8011588351056105  0.8569195884704117  0.8987197444393829  1.0000
  N   N7        1.0  0.19884958036173828  0.05575237096599751  0.7679734013023777  1.0000
  N   N8        1.0  0.8569174833690952  0.8011575941872238  0.10128236409605051  1.0000
  N   N9        1.0  0.9443327223989897  0.14312560491367063  0.4346232634297494  1.0000
  O   O1        1.0  8.27419619036923e-06  0.2497741224324272  0.8332339479094131  1.0000
  O   O2        1.0  0.7501671353619415  0.750172583229798  0.4999940972123867  1.0000
  O   O3        1.0  0.2497763853776931  6.848657207566156e-06  0.16676052838017344  1.0000
  O   O4        1.0  0.3017813257679692  0.8399620938612246  0.39069919885217536  1.0000
  O   O5        1.0  0.1600914505911319  0.46192306080499895  0.057352778842414416  1.0000
  O   O6        1.0  0.5381089630056053  0.6981378223013479  0.7240102444061735  1.0000
  O   O7        1.0  0.4619208209505531  0.1600830695691471  0.9426453443179383  1.0000
  O   O8        1.0  0.6981452229797753  0.5380914083534518  0.27598726169433974  1.0000
  O   O9        1.0  0.8399524095504773  0.30178371058062237  0.609296392058127  1.0000
  O   O10       1.0  0.5447605003634733  0.9268194101869937  0.5168468057477896  1.0000
  O   O11       1.0  0.07313320506345646  0.6179510640211917  0.18353354769207192  1.0000
  O   O12       1.0  0.3820612702434047  0.4552158234413994  0.8502341051895926  1.0000
  O   O13       1.0  0.6179363357722494  0.07312331574580368  0.816462495808942  1.0000
  O   O14       1.0  0.45521440523540957  0.3820519382246559  0.14976681731166513  1.0000
  O   O15       1.0  0.9268332159309906  0.5447743904996043  0.4831564952687658  1.0000
