data_image0
_chemical_formula_structural       Zn4H62C74N18O6
_chemical_formula_sum              "Zn4 H62 C74 N18 O6"
_cell_length_a       15.057071776732528
_cell_length_b       14.976018810264426
_cell_length_c       15.032249337956209
_cell_angle_alpha    111.27205607492851
_cell_angle_beta     105.11660824760354
_cell_angle_gamma    112.85803356555819

_space_group_name_H-M_alt    "P 1"
_space_group_IT_number       1

loop_
  _space_group_symop_operation_xyz
  'x, y, z'

loop_
  _atom_site_type_symbol
  _atom_site_label
  _atom_site_symmetry_multiplicity
  _atom_site_fract_x
  _atom_site_fract_y
  _atom_site_fract_z
  _atom_site_occupancy
  Zn  Zn1       1.0  0.981926576421955  0.11735397016876448  0.626924310797989  1.0000
  Zn  Zn2       1.0  0.9950568436551205  0.8505349743656506  0.35834988356767633  1.0000
  Zn  Zn3       1.0  0.841684161206558  0.8394765752973328  0.4804708504161469  1.0000
  Zn  Zn4       1.0  0.12199110313475353  0.12560411371253366  0.5003512360622581  1.0000
  H   H1        1.0  0.15368647549362885  0.1655476213138272  0.8360006270445626  1.0000
  H   H2        1.0  0.4546747494174992  0.7919643065735968  0.5004953683429251  1.0000
  H   H3        1.0  0.6594178936156109  0.15230134295215686  0.7307326878042275  1.0000
  H   H4        1.0  0.29448469372861286  0.7962422655122052  0.5023319622427067  1.0000
  H   H5        1.0  0.913159085875975  0.24829392946499235  0.24225834540452246  1.0000
  H   H6        1.0  0.7505549057649218  0.4256990602606335  0.43419927636704614  1.0000
  H   H7        1.0  0.8969341355415917  0.3971458999113294  0.22219381639341418  1.0000
  H   H8        1.0  0.7663018006050636  0.2771432657791806  0.45378188546331455  1.0000
  H   H9        1.0  0.14148058235683444  0.7997935117821556  0.49524616699944374  1.0000
  H   H10       1.0  0.8031072803257754  0.15603558157779665  0.6994606867264112  1.0000
  H   H11       1.0  0.9720844665175218  0.9966485793509107  0.07501425690089983  1.0000
  H   H12       1.0  0.06003383925342125  0.8262043807252796  0.15589816473335116  1.0000
  H   H13       1.0  0.2496586523520249  0.023061729079586295  0.9494389986585433  1.0000
  H   H14       1.0  0.7513002840522487  0.5779608255341628  0.4318352229966038  1.0000
  H   H15       1.0  0.9943893256270041  0.16896777247955438  0.32080122026431473  1.0000
  H   H16       1.0  0.3323156694179799  0.3906442805968097  0.6615001970411641  1.0000
  H   H17       1.0  0.6391350162493906  0.7940837536848093  0.2964917635360109  1.0000
  H   H18       1.0  0.9451518288141542  0.5860505149409363  0.26348169465421023  1.0000
  H   H19       1.0  0.8109131835058959  0.16400629326876265  0.5007029865363608  1.0000
  H   H20       1.0  0.1841307669714708  0.36311167151976775  0.8688807147083539  1.0000
  H   H21       1.0  0.8563004412164328  0.8493951870337211  0.1540478574209698  1.0000
  H   H22       1.0  0.3412981091169556  0.1665704708233733  0.6595099738003825  1.0000
  H   H23       1.0  0.04446656661373535  0.5127268032449095  0.849934819749848  1.0000
  H   H24       1.0  0.6041482758133508  0.7903067339357219  0.48590022465648985  1.0000
  H   H25       1.0  0.9378434043404977  0.8023815440123839  0.6816620675777756  1.0000
  H   H26       1.0  0.19621799776168555  0.18745022856357707  0.3349734294430036  1.0000
  H   H27       1.0  0.5053943513676201  0.8911225244728057  0.10186539642469947  1.0000
  H   H28       1.0  0.636528358008867  0.9316231781699355  0.19324458072644293  1.0000
  H   H29       1.0  0.5789465949725566  0.05339204360313939  0.2883941436150296  1.0000
  H   H30       1.0  0.45514853098117664  0.9321343305326266  0.2517450098223506  1.0000
  H   H31       1.0  0.58295665243795  0.9660763620550695  0.3424778942603411  1.0000
  H   H32       1.0  0.4565242944242979  0.3432143975893992  0.794056213525309  1.0000
  H   H33       1.0  0.596395583406881  0.45268020545972115  0.8830053464866341  1.0000
  H   H34       1.0  0.913611107829979  0.6520453066022611  0.9815675569635193  1.0000
  H   H35       1.0  0.6293832174859089  0.44532952274525417  0.7264775540503763  1.0000
  H   H36       1.0  0.5751840020623575  0.30873117424511065  0.7119860288374583  1.0000
  H   H37       1.0  0.48971672003052175  0.33597279647129596  0.6345414455146212  1.0000
  H   H38       1.0  0.9208488370623937  0.10244849856837847  0.018340988195845422  1.0000
  H   H39       1.0  0.8228575786705503  0.9552198904669138  0.956681657345122  1.0000
  H   H40       1.0  0.7266860126069613  0.9498910953806287  0.7876661057045882  1.0000
  H   H41       1.0  0.7305815833747643  0.0461570380390768  0.9023734018228498  1.0000
  H   H42       1.0  0.8219587788106394  0.09786016472498459  0.8522105540666944  1.0000
  H   H43       1.0  0.33064636992248336  0.1972198114922179  0.2514379104699174  1.0000
  H   H44       1.0  0.44233964603989756  0.20737514912608648  0.22645754298837065  1.0000
  H   H45       1.0  0.22028603157149007  0.5726787128304452  0.8477751479017642  1.0000
  H   H46       1.0  0.47181646844201436  0.10920584178938236  0.3258164378106798  1.0000
  H   H47       1.0  0.47730747629235265  0.23298000229485888  0.4090296976795998  1.0000
  H   H48       1.0  0.3584101707096962  0.09631384259415646  0.34881123651287993  1.0000
  H   H49       1.0  0.9018238245743575  0.3528585721006081  0.856162838736296  1.0000
  H   H50       1.0  0.9019938468594615  0.4791800066331646  0.8828157253987073  1.0000
  H   H51       1.0  0.8229512998494071  0.4629478542220369  0.008388873394046873  1.0000
  H   H52       1.0  0.7367941000502539  0.3400844730968656  0.8764783686838984  1.0000
  H   H53       1.0  0.8205416943719469  0.3355980917813922  0.9810647865441312  1.0000
  H   H54       1.0  0.9810785087515865  0.6263963848526399  0.8719914430753521  1.0000
  H   H55       1.0  0.06691192239961197  0.7767900269622527  0.9632867208499791  1.0000
  H   H56       1.0  0.7738693976248424  0.6258950979949061  0.042963012186767416  1.0000
  H   H57       1.0  0.10223231388158638  0.7982207887379645  0.8147051423886539  1.0000
  H   H58       1.0  0.14280651431054978  0.7106712700530267  0.8425075207251923  1.0000
  H   H59       1.0  0.01847859314471371  0.6476980325572654  0.7258346007802174  1.0000
  H   H60       1.0  0.18491129789745744  0.5399401781248373  0.15515138180722235  1.0000
  H   H61       1.0  0.7789215924697357  0.7677599364544888  0.7910853977282812  1.0000
  H   H62       1.0  0.4984620678500987  0.1560627804677921  0.7340670601927644  1.0000
  C   C1        1.0  0.09463989763841597  0.0750866566504484  0.7808282006465321  1.0000
  C   C2        1.0  0.8534092868100414  0.6712824915707855  0.9523195589249555  1.0000
  C   C3        1.0  0.2134069116658565  0.5664637433515408  0.91599963064877  1.0000
  C   C4        1.0  0.774336931512998  0.657007203749785  0.9876271229341428  1.0000
  C   C5        1.0  0.30416799861796295  0.5878593453668016  0.9969626447249027  1.0000
  C   C6        1.0  0.6958114764058506  0.6814996975347326  0.9541869134508689  1.0000
  C   C7        1.0  0.2922599609670583  0.5789098459279032  0.08450275723535576  1.0000
  C   C8        1.0  0.6997357602244205  0.7227318044141952  0.8830112599811814  1.0000
  C   C9        1.0  0.19309746543017772  0.5475609410287133  0.087963601599327  1.0000
  C   C10       1.0  0.7769221367026233  0.7356722198536974  0.8454755972070276  1.0000
  C   C11       1.0  0.10283235067619498  0.5223412204370845  0.00354374822335053  1.0000
  C   C12       1.0  0.09217538865281223  0.9135888677561539  0.2152121081254706  1.0000
  C   C13       1.0  0.8537598593755857  0.7088069104618312  0.8791645480241856  1.0000
  C   C14       1.0  0.5057560950588779  0.7064306168815975  0.07225899383843175  1.0000
  C   C15       1.0  0.5010993747940587  0.5619535318887757  0.8916659663440926  1.0000
  C   C16       1.0  0.17578744568928756  0.8903411272362188  0.5300617735482476  1.0000
  C   C17       1.0  0.7687306836039126  0.0662509676219685  0.6459922978007884  1.0000
  C   C18       1.0  0.6067536921166405  0.7260984145129612  0.07531982166648989  1.0000
  C   C19       1.0  0.4014385408897353  0.5316966080094973  0.8950281540328575  1.0000
  C   C20       1.0  0.6017925592239447  0.6571996603467765  0.9780191899967721  1.0000
  C   C21       1.0  0.4049808301948515  0.609473233029142  0.9870843891187848  1.0000
  C   C22       1.0  0.4882127300797662  0.07587616714420158  0.6818786116922483  1.0000
  C   C23       1.0  0.2848333674831806  0.981908865631162  0.5953272632608417  1.0000
  C   C24       1.0  0.46535407173852406  0.8725619680874105  0.5520528675403826  1.0000
  C   C25       1.0  0.5791567911890282  0.07365903549635529  0.6798175621741864  1.0000
  C   C26       1.0  0.37457624056562355  0.8749090127346619  0.5537906389045731  1.0000
  C   C27       1.0  0.5694726212256992  0.9728678440644882  0.6114783439065333  1.0000
  C   C28       1.0  0.3828484272296321  0.9773332253964141  0.6149076790932213  1.0000
  C   C29       1.0  0.877070068460206  0.2866907592483797  0.28477164177437697  1.0000
  C   C30       1.0  0.7854597047789581  0.3865537408832082  0.39054640647947286  1.0000
  C   C31       1.0  0.8679410721931119  0.3714119902163375  0.27343941266419597  1.0000
  C   C32       1.0  0.7943950926677275  0.30187052595036323  0.4016944686839068  1.0000
  C   C33       1.0  0.8273644280448379  0.42800179035710767  0.33084539193440327  1.0000
  C   C34       1.0  0.662488851033316  0.9727776901685626  0.5996153261277398  1.0000
  C   C35       1.0  0.8464114692102811  0.2542992060196383  0.35427630586281117  1.0000
  C   C36       1.0  0.014887523185706119  0.999944534197766  0.9491275180721247  1.0000
  C   C37       1.0  0.20792619096487636  0.026667325007458886  0.0766258664871913  1.0000
  C   C38       1.0  0.03249155169914529  0.003874251215442799  0.04647625457240421  1.0000
  C   C39       1.0  0.18795868210198557  0.017284104701118994  0.9762010697637253  1.0000
  C   C40       1.0  0.8017810257361119  0.596774887591394  0.3931069657819038  1.0000
  C   C41       1.0  0.9568024345399663  0.16044440114200847  0.3722811130962712  1.0000
  C   C42       1.0  0.12700884864252518  0.014266506367981399  0.10937892917576873  1.0000
  C   C43       1.0  0.09106600208210837  0.0007225216738717982  0.9100825877899867  1.0000
  C   C44       1.0  0.2806832276452056  0.3668320858164052  0.6976119183641674  1.0000
  C   C45       1.0  0.838124757180857  0.5321505902128649  0.3383456462510992  1.0000
  C   C46       1.0  0.7070393733493456  0.8157042909261204  0.2783880029339301  1.0000
  C   C47       1.0  0.8996044763659152  0.6004646381593088  0.30655855315274755  1.0000
  C   C48       1.0  0.8637832123043976  0.1588061436058723  0.4645242320214323  1.0000
  C   C49       1.0  0.20520650551026873  0.3535835139630947  0.8037415589388603  1.0000
  C   C50       1.0  0.8165307509681196  0.8416750165175416  0.2037733477671965  1.0000
  C   C51       1.0  0.27707261394704824  0.07730187613771729  0.614165909271698  1.0000
  C   C52       1.0  0.6676371342264246  0.8800234487530999  0.5378340527835732  1.0000
  C   C53       1.0  0.9839845137414043  0.8895778259606074  0.7017086061203416  1.0000
  C   C54       1.0  0.16104212412636087  0.09765861905442819  0.306091620150113  1.0000
  C   C55       1.0  0.064134274836121  0.9879118765345322  0.8029242825809108  1.0000
  C   C56       1.0  0.8806501155244033  0.18820898450137238  0.38869678788801565  1.0000
  C   C57       1.0  0.1331005903227407  0.0099542536128538  0.20677261828385707  1.0000
  C   C58       1.0  0.3788286872800342  0.5965474426059386  0.17056322310180155  1.0000
  C   C59       1.0  0.62236241397877  0.7509654556164731  0.8471080819869456  1.0000
  C   C60       1.0  0.5506203586561113  0.8958407062971216  0.17586894872751904  1.0000
  C   C61       1.0  0.5409657495340238  0.9655644903865618  0.270348373034416  1.0000
  C   C62       1.0  0.5280401248349307  0.41353325979741845  0.8034187443688056  1.0000
  C   C63       1.0  0.5572742244422101  0.373663338793733  0.7138741722211109  1.0000
  C   C64       1.0  0.8638405638363693  0.021557943627200902  0.9400353057146734  1.0000
  C   C65       1.0  0.781310856787158  0.029531550750100194  0.8662365740271272  1.0000
  C   C66       1.0  0.37682849091273585  0.15616429075616617  0.23931480735907942  1.0000
  C   C67       1.0  0.30146228571672384  0.4247177926680265  0.8055133704319317  1.0000
  C   C68       1.0  0.42343470662734706  0.14741498259582636  0.3359926490363847  1.0000
  C   C69       1.0  0.906769624928344  0.4262459713436824  0.9169560464863196  1.0000
  C   C70       1.0  0.8167149906766724  0.3890543175209659  0.9477936230991093  1.0000
  C   C71       1.0  0.013026032354140767  0.7090928551125019  0.8774546708613615  1.0000
  C   C72       1.0  0.07227909089772307  0.7167508135527356  0.8107492131769549  1.0000
  C   C73       1.0  0.7064433895805777  0.7998491761163748  0.17939779956037688  1.0000
  C   C74       1.0  0.11347328966506603  0.5324116227802803  0.9171400986083854  1.0000
  N   N1        1.0  0.03583618118791069  0.03173953294226099  0.6743691479033275  1.0000
  N   N2        1.0  0.9267172671169703  0.11947569411915991  0.4916274971442577  1.0000
  N   N3        1.0  0.13392072705521224  0.2627345488906768  0.7034162833382708  1.0000
  N   N4        1.0  0.8755303254660375  0.8749840528193502  0.3070127021254123  1.0000
  N   N5        1.0  0.17234346325305683  0.0439701486387065  0.561627608846493  1.0000
  N   N6        1.0  0.7687757872136557  0.9158909507055241  0.5482366134765827  1.0000
  N   N7        1.0  0.9683885810725951  0.917602593991617  0.6257948025035986  1.0000
  N   N8        1.0  0.13847538044401375  0.05657977792443348  0.3688297308466417  1.0000
  N   N9        1.0  0.44637706325682536  0.6093420791404895  0.24254241286583786  1.0000
  N   N10       1.0  0.5611387660120779  0.7761886362939091  0.8177833934840635  1.0000
  N   N11       1.0  0.09502295862394301  0.9417463533203402  0.31245656597904764  1.0000
  N   N12       1.0  0.10966235617229354  0.9286476918420945  0.5096003251771749  1.0000
  N   N13       1.0  0.8317720874076286  0.0318323238899225  0.6157880119423071  1.0000
  N   N14       1.0  0.8387518974817207  0.6946942099911337  0.39413213572970557  1.0000
  N   N15       1.0  0.983596699238987  0.12037775954544828  0.4349314569480712  1.0000
  N   N16       1.0  0.18165136926329944  0.2709630584490624  0.6380052739432713  1.0000
  N   N17       1.0  0.8079958979443088  0.8592141069419554  0.3525371881356704  1.0000
  N   N18       1.0  0.8997639765039762  0.6972535980897092  0.3400719024908768  1.0000
  O   O1        1.0  0.5033122037045528  0.7814794196116279  0.1566669856808644  1.0000
  O   O2        1.0  0.5029881546417058  0.49638281184706307  0.7998826541021344  1.0000
  O   O3        1.0  0.9256456384502126  0.9947022596347634  0.8879112521036703  1.0000
  O   O4        1.0  0.30515636071211805  0.04457623876094629  0.14094685893006442  1.0000
  O   O5        1.0  0.009066388890985832  0.4898343971114797  0.013381248000015845  1.0000
  O   O6        1.0  0.923288326399131  0.7209707601263202  0.8357026822509822  1.0000
