data_image0
_chemical_formula_structural       H36Au12C36N24
_chemical_formula_sum              "H36 Au12 C36 N24"
_cell_length_a       8.245611523061509
_cell_length_b       10.940206299876333
_cell_length_c       14.240447463025937
_cell_angle_alpha    89.99996132422791
_cell_angle_beta     90.00021641150556
_cell_angle_gamma    107.14168059876143

_space_group_name_H-M_alt    "P 1"
_space_group_IT_number       1

loop_
  _space_group_symop_operation_xyz
  'x, y, z'

loop_
  _atom_site_type_symbol
  _atom_site_label
  _atom_site_symmetry_multiplicity
  _atom_site_fract_x
  _atom_site_fract_y
  _atom_site_fract_z
  _atom_site_occupancy
  H   H1        1.0  0.005053705037866538  0.42866738249642117  0.2652183859027489  1.0000
  H   H2        1.0  0.9949494871893451  0.07133251715920612  0.7652115714546925  1.0000
  H   H3        1.0  0.9949502792105352  0.5713336573028869  0.7347875378618127  1.0000
  H   H4        1.0  0.005051329039169294  0.9286666031128876  0.2347873300556671  1.0000
  H   H5        1.0  0.13450399713109115  0.6309489395635667  0.14498348850129622  1.0000
  H   H6        1.0  0.8654970012623696  0.8690512640389872  0.6449776413889907  1.0000
  H   H7        1.0  0.8654987730949488  0.3690520970180061  0.8550210308116917  1.0000
  H   H8        1.0  0.1345038149661448  0.13094785623309957  0.3550212601213687  1.0000
  H   H9        1.0  0.8849716423445315  0.7541205731819505  0.1419541731599026  1.0000
  H   H10       1.0  0.11502859553047541  0.745877715415084  0.6419523717021606  1.0000
  H   H11       1.0  0.11502758989310992  0.24587758732831594  0.8580468350243535  1.0000
  H   H12       1.0  0.8849750187160411  0.2541223678370202  0.3580472320361211  1.0000
  H   H13       1.0  0.38872691171234663  0.8921163320265606  0.280405004166667  1.0000
  H   H14       1.0  0.6112721042256267  0.6078858606863734  0.7804057608901617  1.0000
  H   H15       1.0  0.6112710024218446  0.10788469168384301  0.7195931951149107  1.0000
  H   H16       1.0  0.388729081983314  0.3921142161309278  0.21959314062034713  1.0000
  H   H17       1.0  0.1236205533003557  0.8880731506388532  0.3985463690244799  1.0000
  H   H18       1.0  0.8763801089455472  0.6119281634844144  0.8985477016497683  1.0000
  H   H19       1.0  0.8763782048733901  0.11192691974386555  0.6014525324833856  1.0000
  H   H20       1.0  0.12362144724620093  0.3880728698783146  0.10145190208602632  1.0000
  H   H21       1.0  0.048626663884306295  0.6492269245804252  0.4832396150488734  1.0000
  H   H22       1.0  0.9513765274663089  0.850776359428373  0.9832395824831651  1.0000
  H   H23       1.0  0.9513732042354874  0.3507760154383562  0.516760690909706  1.0000
  H   H24       1.0  0.04862502872543933  0.14922467393434863  0.0167600212526224  1.0000
  H   H25       1.0  0.12686949712595927  0.2136700402651712  0.5741969274022837  1.0000
  H   H26       1.0  0.8731262237794084  0.2863325888812227  0.07419657960754482  1.0000
  H   H27       1.0  0.8731264630369396  0.7863290671381976  0.42580337855303446  1.0000
  H   H28       1.0  0.12686963230716947  0.7136693849404737  0.9258037263469064  1.0000
  H   H29       1.0  0.2554239030243579  0.009149113755682904  0.563641272661343  1.0000
  H   H30       1.0  0.7445725902360182  0.4908525553850043  0.0636405381910734  1.0000
  H   H31       1.0  0.7445720571385338  0.9908499936476858  0.436359033293968  1.0000
  H   H32       1.0  0.25542690789619377  0.5091494280878949  0.936357661091975  1.0000
  H   H33       1.0  0.5265102346557099  0.0930121283018295  0.4405548242306665  1.0000
  H   H34       1.0  0.47348454018808184  0.4069849901190495  0.9405523160491995  1.0000
  H   H35       1.0  0.4734869395295577  0.9069869823192747  0.5594468861762252  1.0000
  H   H36       1.0  0.5265178600265372  0.5930150899144239  0.05944307433701111  1.0000
  Au  Au1       1.0  0.6265315563390957  0.3841663591046541  0.3578825957938037  1.0000
  Au  Au2       1.0  0.3734694671490217  0.11583263619356644  0.857880723231311  1.0000
  Au  Au3       1.0  0.373469259898954  0.6158327611683276  0.6421191146170527  1.0000
  Au  Au4       1.0  0.6265313490794923  0.884166484078527  0.1421181782790484  1.0000
  Au  Au5       1.0  0.5573422278846891  0.6580102687990463  0.2824332750330143  1.0000
  Au  Au6       1.0  0.44265885987749715  0.841990975086006  0.7824328401232918  1.0000
  Au  Au7       1.0  0.44265969828749263  0.341991721108883  0.7175663287029297  1.0000
  Au  Au8       1.0  0.5573403723553767  0.15800718542381284  0.2175667636107121  1.0000
  Au  Au9       1.0  0.2884455827410903  0.46593632005473745  0.4416225521242296  1.0000
  Au  Au10      1.0  0.7115559053378463  0.0340655946379158  0.9416235658925061  1.0000
  Au  Au11      1.0  0.7115519614174418  0.5340637471109063  0.5583770516074367  1.0000
  Au  Au12      1.0  0.28844686487150284  0.9659354419421008  0.05837603784461012  1.0000
  C   C1        1.0  0.9511089924104682  0.5032642481705524  0.2433141872773206  1.0000
  C   C2        1.0  0.048893147787240014  0.9967341077651644  0.7433107066766385  1.0000
  C   C3        1.0  0.048893037849950374  0.4967348753201648  0.7566889275851097  1.0000
  C   C4        1.0  0.9511092524416825  0.003265972269652201  0.2566888970603145  1.0000
  C   C5        1.0  0.014891630497224665  0.6060930621648739  0.1823143544438892  1.0000
  C   C6        1.0  0.9851085114676368  0.8939042954188923  0.6823108618636128  1.0000
  C   C7        1.0  0.9851100297779994  0.39390510478018836  0.8176873559681326  1.0000
  C   C8        1.0  0.014893518776098312  0.10609482807026896  0.31768733742293886  1.0000
  C   C9        1.0  0.8914287025059553  0.6702620487957773  0.1807240511630965  1.0000
  C   C10       1.0  0.10857264268030781  0.8297353109995245  0.6807214897796428  1.0000
  C   C11       1.0  0.1085729577668815  0.32973611814906423  0.8192769570238029  1.0000
  C   C12       1.0  0.8914301275314289  0.1702657255807125  0.3192788161825959  1.0000
  C   C13       1.0  0.31844145162701665  0.8173740561187871  0.3278205918782363  1.0000
  C   C14       1.0  0.6815575163184563  0.682627210044814  0.8278214629615448  1.0000
  C   C15       1.0  0.6815564625119421  0.18262696759206423  0.6721790118535864  1.0000
  C   C16       1.0  0.31844366989287215  0.3173728667727006  0.17217814077408636  1.0000
  C   C17       1.0  0.18301196905630956  0.8131460887392807  0.38775887088743133  1.0000
  C   C18       1.0  0.8169874059138067  0.686855215342071  0.8877593328192717  1.0000
  C   C19       1.0  0.816983991104202  0.18685301866386794  0.6122407328427569  1.0000
  C   C20       1.0  0.18301452025598763  0.313146774565631  0.11223956869154962  1.0000
  C   C21       1.0  0.14541406847735772  0.694001255809461  0.4318319141870434  1.0000
  C   C22       1.0  0.8545880338147857  0.8060000825875525  0.9318316938901037  1.0000
  C   C23       1.0  0.8545846897011629  0.3059988145736909  0.5681683917710673  1.0000
  C   C24       1.0  0.14541473639218344  0.19400095399224432  0.0681672076218831  1.0000
  C   C25       1.0  0.23253747541183153  0.20252437327781794  0.5336842735811373  1.0000
  C   C26       1.0  0.7674548023924217  0.297476310715247  0.0336857962758899  1.0000
  C   C27       1.0  0.7674616527518765  0.797476653650989  0.4663174368273815  1.0000
  C   C28       1.0  0.23253630170724202  0.7025227838196246  0.9663166163495093  1.0000
  C   C29       1.0  0.3002174529651214  0.09995281332430755  0.5275012818149207  1.0000
  C   C30       1.0  0.6997787948773466  0.40004883295364396  0.0275004969192594  1.0000
  C   C31       1.0  0.6997804611833728  0.900048210387432  0.472501130817399  1.0000
  C   C32       1.0  0.3002191192616124  0.5999521907572074  0.9724991068125634  1.0000
  C   C33       1.0  0.4373887263029844  0.14093259277822776  0.46594998403304544  1.0000
  C   C34       1.0  0.5626073309398407  0.35906741134416365  0.9659490995399266  1.0000
  C   C35       1.0  0.5626076038403341  0.8590674711703487  0.5340503219224217  1.0000
  C   C36       1.0  0.4373926412467313  0.6409326622554019  0.0340483975190082  1.0000
  N   N1        1.0  0.7987666510864316  0.5063559886717004  0.27633124132757564  1.0000
  N   N2        1.0  0.20123608330587223  0.9936433446966433  0.776328796707979  1.0000
  N   N3        1.0  0.20123537916921921  0.4936431348185694  0.7236704690846026  1.0000
  N   N4        1.0  0.7987659469426235  0.0063557787929653005  0.2236708070288245  1.0000
  N   N5        1.0  0.7616864810533528  0.6093363867503498  0.23790260637815663  1.0000
  N   N6        1.0  0.23831562240200554  0.8906619657625046  0.7379009983992546  1.0000
  N   N7        1.0  0.238316393237085  0.3906617834117869  0.7620984018100645  1.0000
  N   N8        1.0  0.7616867778245364  0.10933811427208442  0.2620979031125827  1.0000
  N   N9        1.0  0.3594241786882223  0.7071254544930526  0.335769151421097  1.0000
  N   N10       1.0  0.6405760572510533  0.7928758199161766  0.835769875800196  1.0000
  N   N11       1.0  0.6405749494683378  0.29287557243508644  0.6642304523120475  1.0000
  N   N12       1.0  0.3594263429754889  0.2071242601184125  0.1642290257116414  1.0000
  N   N13       1.0  0.2530248455634805  0.6312325342227469  0.3999433026715167  1.0000
  N   N14       1.0  0.7469774101604971  0.8687697405461635  0.8999428151012836  1.0000
  N   N15       1.0  0.7469742825930794  0.3687684927053994  0.6000563010616278  1.0000
  N   N16       1.0  0.25302536004408444  0.13123129603341255  0.1000553841855734  1.0000
  N   N17       1.0  0.3232343435368464  0.2986393881195753  0.4781797713465323  1.0000
  N   N18       1.0  0.676763380752206  0.20136158350194228  0.9781785155574668  1.0000
  N   N19       1.0  0.6767635706116552  0.7013616355921642  0.5218226412857875  1.0000
  N   N20       1.0  0.3232365914391338  0.7986384900980642  0.0218203859517203  1.0000
  N   N21       1.0  0.4500957045490567  0.2609804090994388  0.4371180074774799  1.0000
  N   N22       1.0  0.5499010009426186  0.23901862345571362  0.9371178599556984  1.0000
  N   N23       1.0  0.5499018396118629  0.7390196580664324  0.562882298479316  1.0000
  N   N24       1.0  0.45009860126830165  0.7609804935990854  0.0628810415533323  1.0000
