data_image0
_chemical_formula_structural       Er4H172C196N8Cl12O40
_chemical_formula_sum              "Er4 H172 C196 N8 Cl12 O40"
_cell_length_a       12.374927536486489
_cell_length_b       18.24148465276741
_cell_length_c       24.766197341168926
_cell_angle_alpha    90.00127477109993
_cell_angle_beta     89.9977156548004
_cell_angle_gamma    109.83479653849415

_space_group_name_H-M_alt    "P 1"
_space_group_IT_number       1

loop_
  _space_group_symop_operation_xyz
  'x, y, z'

loop_
  _atom_site_type_symbol
  _atom_site_label
  _atom_site_symmetry_multiplicity
  _atom_site_fract_x
  _atom_site_fract_y
  _atom_site_fract_z
  _atom_site_occupancy
  Er  Er1       1.0  0.2250512290735641  0.7710746676429352  0.7859523547886766  1.0000
  Er  Er2       1.0  0.7749147744181358  0.2288841229122554  0.2859504399305024  1.0000
  Er  Er3       1.0  0.5460208331730809  0.771082770370782  0.7140414637672023  1.0000
  Er  Er4       1.0  0.45395274912208805  0.2288797215647804  0.2140354559985056  1.0000
  H   H1        1.0  0.06693147905814803  0.8893414521072458  0.7589846747491293  1.0000
  H   H2        1.0  0.01003426524513867  0.9980312714321683  0.7986514891557875  1.0000
  H   H3        1.0  0.10459546878792741  0.060991574729008825  0.8844287337337989  1.0000
  H   H4        1.0  0.25708250849193354  0.0152776468439981  0.925311999384391  1.0000
  H   H5        1.0  0.3045371091424157  0.9080446509778923  0.879705875628389  1.0000
  H   H6        1.0  0.07469277814634266  0.5458546857034108  0.897218987324429  1.0000
  H   H7        1.0  0.06909783703171965  0.8026274364951435  0.9310341735511187  1.0000
  H   H8        1.0  0.9168975737513987  0.7892967675369036  0.0886992790063772  1.0000
  H   H9        1.0  0.9007464607814057  0.6510280661269192  0.0962513421624251  1.0000
  H   H10       1.0  0.9840045065782307  0.42425352921378595  0.902805253490186  1.0000
  H   H11       1.0  0.11535051734501411  0.43354625111143  0.9368147763364975  1.0000
  H   H12       1.0  0.9941951464537198  0.29291287114522646  0.9222798130444333  1.0000
  H   H13       1.0  0.011855614577861226  0.31463175331057164  0.992363934186301  1.0000
  H   H14       1.0  0.8801945694367177  0.3070086316283566  0.9595681793162569  1.0000
  H   H15       1.0  0.6669371043751298  0.35631028654663766  0.09024347089749091  1.0000
  H   H16       1.0  0.9096768457000618  0.43501843624854786  0.24624707368001006  1.0000
  H   H17       1.0  0.19145901390303513  0.6344625541261948  0.1927317134676301  1.0000
  H   H18       1.0  0.10352572955427058  0.6244546057908097  0.102094451987135  1.0000
  H   H19       1.0  0.72204656709593  0.3336552535971079  0.0032334146274237995  1.0000
  H   H20       1.0  0.6004836518899309  0.3647858630979854  0.9962189761640587  1.0000
  H   H21       1.0  0.6560551546078769  0.32735728220195875  0.9059660677109493  1.0000
  H   H22       1.0  0.6822597251930703  0.4292617249158326  0.9073976252949976  1.0000
  H   H23       1.0  0.7985139031840233  0.39354305887899693  0.9142256420561098  1.0000
  H   H24       1.0  0.397364119843253  0.8317952025137811  0.9085008315859399  1.0000
  H   H25       1.0  0.7087795886220789  0.9802414328893863  0.793637950295917  1.0000
  H   H26       1.0  0.9305875884766194  0.15468537078476166  0.8994627301505318  1.0000
  H   H27       1.0  0.8012344777644814  0.09974224155902792  0.9766683977147395  1.0000
  H   H28       1.0  0.2707492700502313  0.8456411281338915  0.9755064393269491  1.0000
  H   H29       1.0  0.34149777280961047  0.7775864357412204  0.987976609016556  1.0000
  H   H30       1.0  0.19070973788343062  0.7634502973994727  0.057895365719318206  1.0000
  H   H31       1.0  0.3294560940051595  0.7989898616097832  0.0886696879127413  1.0000
  H   H32       1.0  0.2525627699591625  0.8633792738526084  0.0755527000513538  1.0000
  H   H33       1.0  0.9670414514330119  0.6428116927647095  0.7425226178728154  1.0000
  H   H34       1.0  0.8498675340409888  0.7662495699021648  0.631999556297238  1.0000
  H   H35       1.0  0.9289848418805986  0.8173501789814566  0.6878192211542284  1.0000
  H   H36       1.0  0.038762566170703346  0.8649318915820529  0.6034521984433354  1.0000
  H   H37       1.0  0.11339400340262529  0.8183878360419855  0.6449766231317184  1.0000
  H   H38       1.0  0.03602839512478792  0.7693630896595921  0.5871481714486394  1.0000
  H   H39       1.0  0.8406382217926806  0.5812995226766091  0.6856272759372075  1.0000
  H   H40       1.0  0.7510614870951641  0.6319386044825207  0.661205780695859  1.0000
  H   H41       1.0  0.802018424531532  0.5603753157240092  0.5859448468688697  1.0000
  H   H42       1.0  0.8656166634118493  0.6610932367275737  0.5740938048844058  1.0000
  H   H43       1.0  0.9515474340275388  0.6068088126714031  0.5982863655064747  1.0000
  H   H44       1.0  0.9330791755417778  0.1106344630030094  0.2589817005257942  1.0000
  H   H45       1.0  0.9900152105715917  0.0019655723676166004  0.2986613424200328  1.0000
  H   H46       1.0  0.8954590472651774  0.9390273950803377  0.3844461647030357  1.0000
  H   H47       1.0  0.7429734884644644  0.9847459487757176  0.4253356465234718  1.0000
  H   H48       1.0  0.6954731488610266  0.09194161881834621  0.3796952229946839  1.0000
  H   H49       1.0  0.9252736515156953  0.4541178296886841  0.3971951573577854  1.0000
  H   H50       1.0  0.9308923412914537  0.19734786316631409  0.43103428123632886  1.0000
  H   H51       1.0  0.08310944874276056  0.21072232692147708  0.5886952322922809  1.0000
  H   H52       1.0  0.09925351968289677  0.3489975391721671  0.5962314767191046  1.0000
  H   H53       1.0  0.01600256850201015  0.5757575249858532  0.40278420381811486  1.0000
  H   H54       1.0  0.8846554273536213  0.5664582644725015  0.4368004653138087  1.0000
  H   H55       1.0  0.005803711293701351  0.7070897016219886  0.4222740434897432  1.0000
  H   H56       1.0  0.9881448460412656  0.685364180279805  0.4923579889734455  1.0000
  H   H57       1.0  0.11980780710816663  0.6929956051491714  0.4595603070818228  1.0000
  H   H58       1.0  0.3330488620708395  0.6436750274423917  0.5902387166115943  1.0000
  H   H59       1.0  0.09029624148418228  0.5649578894299836  0.74622326027432  1.0000
  H   H60       1.0  0.8085107982038765  0.3655083941073727  0.6927064441569614  1.0000
  H   H61       1.0  0.89644992755192  0.3755232900667096  0.6020700147625817  1.0000
  H   H62       1.0  0.27797495872137995  0.6663533751767403  0.5032240752029509  1.0000
  H   H63       1.0  0.3995352590607197  0.6352281884543557  0.4962110338098711  1.0000
  H   H64       1.0  0.34396793043828205  0.6726701323796007  0.4059574261569736  1.0000
  H   H65       1.0  0.31776567997298594  0.5707657088619628  0.40738177731300595  1.0000
  H   H66       1.0  0.20150714884643842  0.6064751418068893  0.4142139117091048  1.0000
  H   H67       1.0  0.6026347631743008  0.16819553094739353  0.40850095495721916  1.0000
  H   H68       1.0  0.291190766845034  0.019754757389876  0.2936600220257617  1.0000
  H   H69       1.0  0.06939979187887953  0.8452970828922018  0.3994930886254835  1.0000
  H   H70       1.0  0.1987530712001301  0.9002593094300836  0.4766902125742618  1.0000
  H   H71       1.0  0.7292486711652373  0.15435516287330125  0.47551067287695753  1.0000
  H   H72       1.0  0.6585191429403351  0.22241585044819348  0.4879817563054374  1.0000
  H   H73       1.0  0.8093087268805945  0.23654798933329604  0.5578901716074114  1.0000
  H   H74       1.0  0.6705719013806045  0.20102107492693477  0.5886800039561848  1.0000
  H   H75       1.0  0.7474544721313237  0.1366209971572943  0.5755592133369092  1.0000
  H   H76       1.0  0.0329230568804206  0.3571727415383564  0.24252509912753342  1.0000
  H   H77       1.0  0.1501457613142279  0.23376311044190604  0.1319988840603301  1.0000
  H   H78       1.0  0.07102081723971307  0.1826545055537139  0.18781403995328114  1.0000
  H   H79       1.0  0.9612516468207983  0.13507807619634343  0.103443410115247  1.0000
  H   H80       1.0  0.8866105822136275  0.18161918969149574  0.1449733184710098  1.0000
  H   H81       1.0  0.9639968764156565  0.2306583160057016  0.0871457425722753  1.0000
  H   H82       1.0  0.1593450360473269  0.41870687984184923  0.1856347047251745  1.0000
  H   H83       1.0  0.24893425679317718  0.3680727170796203  0.1612093792102627  1.0000
  H   H84       1.0  0.19800450991838403  0.4396460738524369  0.08595830854576998  1.0000
  H   H85       1.0  0.13440051251505736  0.3389309078724239  0.0740899240051505  1.0000
  H   H86       1.0  0.04846810896246004  0.39321915172764216  0.098282667954571  1.0000
  H   H87       1.0  0.8225313698719033  0.8893115665377777  0.7410987342096006  1.0000
  H   H88       1.0  0.9882099698697286  0.9979836846133804  0.7014237352258306  1.0000
  H   H89       1.0  0.956719402955443  0.0609058378624496  0.6156115024334241  1.0000
  H   H90       1.0  0.7584707744966296  0.015280987924654698  0.5747481325700649  1.0000
  H   H91       1.0  0.6036729030485475  0.9081361075813065  0.6203901713273154  1.0000
  H   H92       1.0  0.470771854376629  0.5458958310457404  0.6025266785591512  1.0000
  H   H93       1.0  0.7334722156466356  0.8026753243216761  0.5689913435004001  1.0000
  H   H94       1.0  0.8728428948706295  0.7895432935572586  0.41142064105657994  1.0000
  H   H95       1.0  0.7509049873032296  0.6512145775923345  0.40380146639014924  1.0000
  H   H96       1.0  0.4403113434062931  0.4244564561828881  0.5969449917651346  1.0000
  H   H97       1.0  0.3181447787610452  0.43357049425946315  0.5629362198193988  1.0000
  H   H98       1.0  0.29896153679198534  0.2930283463201207  0.5775769887958192  1.0000
  H   H99       1.0  0.30297205920718534  0.31458261646094604  0.5074622034554537  1.0000
  H   H100      1.0  0.42711724907580617  0.30718547762818815  0.5403141510573093  1.0000
  H   H101      1.0  0.6896128423846547  0.3564230798796899  0.4096043445876418  1.0000
  H   H102      1.0  0.5255066140425909  0.4351420356455833  0.2536392041844877  1.0000
  H   H103      1.0  0.4438382551859944  0.6348327982594526  0.3071432102286025  1.0000
  H   H104      1.0  0.5213507272103184  0.6245596105742306  0.39783572657159283  1.0000
  H   H105      1.0  0.6121804225027317  0.3337744319999699  0.4964915038306614  1.0000
  H   H106      1.0  0.7649029317893437  0.3650143294569475  0.503473948740222  1.0000
  H   H107      1.0  0.6718994952387121  0.32743463749542906  0.5937589171786399  1.0000
  H   H108      1.0  0.7475303057489525  0.42934145969042  0.5923276124118573  1.0000
  H   H109      1.0  0.5955796383920812  0.3935788004141614  0.5855046142633711  1.0000
  H   H110      1.0  0.4346659107427228  0.8320070200821731  0.5916431780411102  1.0000
  H   H111      1.0  0.2718135698021341  0.9804311871375047  0.7065312399934953  1.0000
  H   H112      1.0  0.22404907058291457  0.15475806317129323  0.6007493151586374  1.0000
  H   H113      1.0  0.29834851822132424  0.099819705650404  0.5235061477010632  1.0000
  H   H114      1.0  0.5752221623048186  0.8458912401738773  0.5246647117804244  1.0000
  H   H115      1.0  0.4363533088485382  0.7779089604107553  0.5121807807085262  1.0000
  H   H116      1.0  0.5729690009621747  0.7636410001883718  0.4423413686381679  1.0000
  H   H117      1.0  0.46986508622674716  0.7991724952197998  0.4115006510282981  1.0000
  H   H118      1.0  0.6111878002445792  0.863531296467052  0.4245930185455862  1.0000
  H   H119      1.0  0.6753947130033494  0.6427632584933036  0.7577757493058997  1.0000
  H   H120      1.0  0.9169026641006538  0.7664420479351223  0.8678752296547572  1.0000
  H   H121      1.0  0.8887661495881786  0.8173805260356488  0.8119993648980569  1.0000
  H   H122      1.0  0.8272661894987648  0.8654359913809272  0.8963912050202367  1.0000
  H   H123      1.0  0.7058289185918197  0.8189360632732346  0.8549771184030845  1.0000
  H   H124      1.0  0.7341546174809749  0.7699871503088147  0.912846844267449  1.0000
  H   H125      1.0  0.7403774536840616  0.5814278059517123  0.8146755411818489  1.0000
  H   H126      1.0  0.8806883527734043  0.6319839626672135  0.8390089337422567  1.0000
  H   H127      1.0  0.7581018385887787  0.5607530075424804  0.9143675279637123  1.0000
  H   H128      1.0  0.7955694404781967  0.6615205180644281  0.9260859689995087  1.0000
  H   H129      1.0  0.6552409661621182  0.6073337671217586  0.9019637217476344  1.0000
  H   H130      1.0  0.17741388898264174  0.11064545798443248  0.24108661357626462  1.0000
  H   H131      1.0  0.011730539685693498  0.0019914577386543997  0.20140708071647143  1.0000
  H   H132      1.0  0.043232296158393475  0.9390844754191363  0.1155841633074886  1.0000
  H   H133      1.0  0.241495775874611  0.9847163558655722  0.0747236425475961  1.0000
  H   H134      1.0  0.39627953311541825  0.09184028354621888  0.12039073649849999  1.0000
  H   H135      1.0  0.5292293640026173  0.45407507904346284  0.1025523408752633  1.0000
  H   H136      1.0  0.26651703726052023  0.1972986333798445  0.0689885579758425  1.0000
  H   H137      1.0  0.12715295230587734  0.2104725374995269  0.9114270169333523  1.0000
  H   H138      1.0  0.24911801683246887  0.34879940473015836  0.9038157546469704  1.0000
  H   H139      1.0  0.559687168736957  0.5755388550142655  0.0969579076288767  1.0000
  H   H140      1.0  0.6818778477141976  0.5664336878193978  0.0629574498448733  1.0000
  H   H141      1.0  0.7010309170346006  0.7069614609173486  0.0775920675859965  1.0000
  H   H142      1.0  0.6970415800416137  0.6854109168410575  0.0074762007450602  1.0000
  H   H143      1.0  0.5728846803586264  0.6928044147766813  0.0403202491849015  1.0000
  H   H144      1.0  0.31039646524206416  0.6435676688783473  0.9096109427478822  1.0000
  H   H145      1.0  0.47446928437403807  0.5648233167738469  0.753653348622997  1.0000
  H   H146      1.0  0.5561779062589521  0.3651472573980072  0.8071572920466253  1.0000
  H   H147      1.0  0.4786843578479462  0.37542748563240025  0.8978478897848916  1.0000
  H   H148      1.0  0.3878269026362063  0.6662471986042603  0.996497332523269  1.0000
  H   H149      1.0  0.23510408386486145  0.6349814811305096  0.0034680725189205003  1.0000
  H   H150      1.0  0.32808250395734717  0.6725950130347584  0.09375301363864709  1.0000
  H   H151      1.0  0.25248324723828114  0.5706864250667749  0.09233729238847128  1.0000
  H   H152      1.0  0.40443155012805937  0.6064658931372977  0.08552234719763162  1.0000
  H   H153      1.0  0.5653258480918666  0.167991716416978  0.09164485003986302  1.0000
  H   H154      1.0  0.7281743905206  0.0195620913147607  0.2065114784273661  1.0000
  H   H155      1.0  0.7759484238489305  0.8452390467675314  0.10071267770770478  1.0000
  H   H156      1.0  0.7016551683089673  0.9001839482337958  0.0234795665385761  1.0000
  H   H157      1.0  0.42481286088729325  0.154152641311768  0.024661692862594  1.0000
  H   H158      1.0  0.5636868515144897  0.22212543033551674  0.0121793364253548  1.0000
  H   H159      1.0  0.42708163345168504  0.23640205370866596  0.9423458189015008  1.0000
  H   H160      1.0  0.5301694378200708  0.2008689801359438  0.9114939813075581  1.0000
  H   H161      1.0  0.3888465230768858  0.13652317458664953  0.9245889203796622  1.0000
  H   H162      1.0  0.3245680609416937  0.35721205523684324  0.2577518184496341  1.0000
  H   H163      1.0  0.08311240294366226  0.23358427455538325  0.3678839676661667  1.0000
  H   H164      1.0  0.11120697330540709  0.1826176579499617  0.3120071092330647  1.0000
  H   H165      1.0  0.17275160614633475  0.13458255365960528  0.3963941065072376  1.0000
  H   H166      1.0  0.29418045356764816  0.18107843124893455  0.35496826534269127  1.0000
  H   H167      1.0  0.2658628914620421  0.2300415215056475  0.4128421864331315  1.0000
  H   H168      1.0  0.25964833228946554  0.4185791576421991  0.3146664306430651  1.0000
  H   H169      1.0  0.11932923215132968  0.36803148438914945  0.3390030049490989  1.0000
  H   H170      1.0  0.24191231437922056  0.439261115398871  0.4143578993564958  1.0000
  H   H171      1.0  0.20443790911988197  0.33849317841936266  0.4260798756652946  1.0000
  H   H172      1.0  0.3447662625556092  0.3926726138784034  0.40196056264661456  1.0000
  C   C1        1.0  0.10658180794993642  0.9193394447870133  0.7957822616604419  1.0000
  C   C2        1.0  0.07523879129313817  0.9793495317243239  0.818073125936138  1.0000
  C   C3        1.0  0.12853537998316966  0.0148088799422013  0.8654591157102516  1.0000
  C   C4        1.0  0.21281413105082692  0.9895718772159443  0.888272763614431  1.0000
  C   C5        1.0  0.23906208362491538  0.9292753903074029  0.863354980146447  1.0000
  C   C6        1.0  0.9652338666124365  0.565493184734528  0.0216559855399154  1.0000
  C   C7        1.0  0.0023007621555988975  0.5303374788392857  0.9784670169848226  1.0000
  C   C8        1.0  0.047775127460674464  0.5731629062771545  0.9313179727799294  1.0000
  C   C9        1.0  0.060512733701912576  0.651297627489363  0.9273711712365086  1.0000
  C   C10       1.0  0.031548930488952395  0.7689306699651083  0.9667632125281287  1.0000
  C   C11       1.0  0.9915414422821698  0.8026998366990554  0.0083924117485523  1.0000
  C   C12       1.0  0.9458924587213744  0.7607339741822727  0.0559004217546715  1.0000
  C   C13       1.0  0.9377061360915986  0.683788887987589  0.05999577727379801  1.0000
  C   C14       1.0  0.9762577317013595  0.6455416076812597  0.0178691121613923  1.0000
  C   C15       1.0  0.02552108437067348  0.6899367018015854  0.970474538567707  1.0000
  C   C16       1.0  0.11265251290186747  0.693391408843141  0.8767810741019276  1.0000
  C   C17       1.0  0.02108068878448681  0.41266665840684885  0.9410051270342877  1.0000
  C   C18       1.0  0.9739177877071442  0.3268258229554277  0.9548727013800544  1.0000
  C   C19       1.0  0.9071690574290655  0.5158022270926281  0.0678429004447736  1.0000
  C   C20       1.0  0.8031860195743263  0.45630372786777673  0.0577228003042976  1.0000
  C   C21       1.0  0.7483170904257578  0.4024187641742786  0.0983064471586701  1.0000
  C   C22       1.0  0.7967347317564446  0.40599318868036244  0.1490109919198304  1.0000
  C   C23       1.0  0.9513686402875122  0.4758705567929765  0.2143660388725053  1.0000
  C   C24       1.0  0.05352356894282904  0.53511530571528  0.2243422947336242  1.0000
  C   C25       1.0  0.11008287238094981  0.5888674822613779  0.1837735696402376  1.0000
  C   C26       1.0  0.06093002247958177  0.5826933315858015  0.1333472126511452  1.0000
  C   C27       1.0  0.9557489784005071  0.522868571242725  0.12062207414383863  1.0000
  C   C28       1.0  0.9009693347797167  0.46729419649305737  0.1620802853993055  1.0000
  C   C29       1.0  0.7366288655401333  0.34099413953820357  0.1872914606102043  1.0000
  C   C30       1.0  0.691558715245307  0.37837784201040137  0.9852968414326853  1.0000
  C   C31       1.0  0.7083506456990705  0.38255489282011707  0.9246890993443485  1.0000
  C   C32       1.0  0.6023408658023115  0.9800276762767768  0.9735741835276741  1.0000
  C   C33       1.0  0.5025735203239917  0.9159658068024258  0.9662537877461689  1.0000
  C   C34       1.0  0.47632899812762725  0.8808208492825998  0.9150367744595017  1.0000
  C   C35       1.0  0.5485881720887561  0.9087475913681473  0.8712435281331423  1.0000
  C   C36       1.0  0.7281059497406019  0.0063084878589663  0.8335260787016524  1.0000
  C   C37       1.0  0.8245425831322136  0.07069247110612048  0.8422128888791036  1.0000
  C   C38       1.0  0.8527691192909898  0.10455720442309509  0.89392772788392  1.0000
  C   C39       1.0  0.7806884404278734  0.07389440546656091  0.9366218712725002  1.0000
  C   C40       1.0  0.6784686774366192  0.008727506454185598  0.9296652932106683  1.0000
  C   C41       1.0  0.6525865775800452  0.9733230685561762  0.8771910469752483  1.0000
  C   C42       1.0  0.5089051526791691  0.8678658655152062  0.818602079572095  1.0000
  C   C43       1.0  0.32603496800640386  0.8292244702498126  0.0045214038339765  1.0000
  C   C44       1.0  0.2716219182497355  0.812835571452503  0.059921516208895305  1.0000
  C   C45       1.0  0.9790706710895165  0.7009826847683557  0.7257666685008317  1.0000
  C   C46       1.0  0.9285430901165058  0.7759978754948165  0.6555874543877779  1.0000
  C   C47       1.0  0.03578842921596249  0.8087398120702644  0.6206368839820939  1.0000
  C   C48       1.0  0.8382967909671778  0.6288973192867714  0.6589760408868487  1.0000
  C   C49       1.0  0.8670266984637108  0.6137255876772373  0.6011282346909894  1.0000
  C   C50       1.0  0.8934250085772462  0.08064919988439809  0.2957812015649424  1.0000
  C   C51       1.0  0.9247933040637548  0.020652815580305597  0.3180757042536371  1.0000
  C   C52       1.0  0.8715197122057532  0.9852098363684623  0.3654749560649151  1.0000
  C   C53       1.0  0.787229824557997  0.010445977902996596  0.3882855914226013  1.0000
  C   C54       1.0  0.7609555139813724  0.0707164889639245  0.3633499403073372  1.0000
  C   C55       1.0  0.034766854873559766  0.4345139408377108  0.5216291202729053  1.0000
  C   C56       1.0  0.9976760855061002  0.4696623471153459  0.4784480537934073  1.0000
  C   C57       1.0  0.9522148846090062  0.4268298798320842  0.4312975988463137  1.0000
  C   C58       1.0  0.9394755260860989  0.3486910265183312  0.4273582482381856  1.0000
  C   C59       1.0  0.9684568558938621  0.2310637562180986  0.4667558560141599  1.0000
  C   C60       1.0  0.00845658987602599  0.19730303233581742  0.5083912497247951  1.0000
  C   C61       1.0  0.05409965581215909  0.23927593984148393  0.5558998452543875  1.0000
  C   C62       1.0  0.062299841694255065  0.31622516066807543  0.5599813605994939  1.0000
  C   C63       1.0  0.023733078484994424  0.35445963927197244  0.5178528624930934  1.0000
  C   C64       1.0  0.9744516832063467  0.31005369305837865  0.4704671473770929  1.0000
  C   C65       1.0  0.8873239124113754  0.3065849133093437  0.3767713271334898  1.0000
  C   C66       1.0  0.9789305408060256  0.5873361651363707  0.44098806604453233  1.0000
  C   C67       1.0  0.026085832451997106  0.673173689050138  0.4548647590921533  1.0000
  C   C68       1.0  0.09281390704229149  0.48420260107494073  0.5678160959933862  1.0000
  C   C69       1.0  0.19681380555357453  0.5436928073061154  0.5577074141753187  1.0000
  C   C70       1.0  0.25166906922422067  0.5975730679137001  0.5982977148247457  1.0000
  C   C71       1.0  0.2032481519246899  0.594003400187482  0.6490003408013223  1.0000
  C   C72       1.0  0.048615410522685844  0.5241129192087683  0.7143391566622697  1.0000
  C   C73       1.0  0.9464574618418667  0.46487180004792344  0.7243187299007516  1.0000
  C   C74       1.0  0.8898966810021277  0.4111085915811543  0.6837506549188035  1.0000
  C   C75       1.0  0.939045658953944  0.4172960543728124  0.6333209958449686  1.0000
  C   C76       1.0  0.04424321081667418  0.4771194799332719  0.6205957191835907  1.0000
  C   C77       1.0  0.09901902105168146  0.5326944085834171  0.662057787258803  1.0000
  C   C78       1.0  0.26336725460653543  0.6589994650061968  0.6872810805353923  1.0000
  C   C79       1.0  0.30845733655335283  0.6216319840999986  0.485286455749133  1.0000
  C   C80       1.0  0.29167029182435295  0.6174663615052438  0.4246785764743706  1.0000
  C   C81       1.0  0.3976524463638356  0.0199849060296771  0.4735884816551774  1.0000
  C   C82       1.0  0.49741873677793075  0.08404026720860709  0.46626028217031035  1.0000
  C   C83       1.0  0.5236600146790097  0.11918512285086541  0.4150433220535845  1.0000
  C   C84       1.0  0.4514120382137108  0.09124147878466  0.3712534817730386  1.0000
  C   C85       1.0  0.2718745304126313  0.9936981429242164  0.3335503906098793  1.0000
  C   C86       1.0  0.17544197946862275  0.929310779400801  0.3422360495469619  1.0000
  C   C87       1.0  0.14722281130342194  0.8954350823912521  0.3939533184752904  1.0000
  C   C88       1.0  0.21929971196693993  0.9261165172854503  0.43664491178387277  1.0000
  C   C89       1.0  0.321526288555809  0.9912862374196864  0.4296825180942676  1.0000
  C   C90       1.0  0.3473946642721231  0.0266888078559049  0.3772092844349828  1.0000
  C   C91       1.0  0.49109484549106946  0.1321079321094771  0.3186119122075297  1.0000
  C   C92       1.0  0.6739655720307383  0.17077310239823615  0.5045299441518196  1.0000
  C   C93       1.0  0.7283940401816906  0.1871644905814804  0.5599260093034033  1.0000
  C   C94       1.0  0.02088831707180106  0.2990155114487294  0.2257502652075871  1.0000
  C   C95       1.0  0.0714590656592762  0.22400113326845172  0.1555813280342093  1.0000
  C   C96       1.0  0.9642166078342599  0.19126747112751732  0.1206285549615771  1.0000
  C   C97       1.0  0.16169494283013108  0.3711104757041142  0.1589769887121264  1.0000
  C   C98       1.0  0.13298109934755326  0.3862954212313596  0.1011283897469539  1.0000
  C   C99       1.0  0.8129054292569861  0.9193165830092482  0.7042981099585505  1.0000
  C   C100      1.0  0.9043063366212962  0.9793113493425736  0.682008035097553  1.0000
  C   C101      1.0  0.886557739402548  0.014758457706768998  0.6345961673861069  1.0000
  C   C102      1.0  0.7770334743505741  0.9895601140473147  0.6117769680900196  1.0000
  C   C103      1.0  0.6904099160244498  0.929335989809182  0.6367149574407805  1.0000
  C   C104      1.0  0.6005559916257823  0.565606745423537  0.4782420326558707  1.0000
  C   C105      1.0  0.5280098431911282  0.530461336593433  0.5213278067719501  1.0000
  C   C106      1.0  0.5251945652658776  0.573234350699117  0.5684957015458423  1.0000
  C   C107      1.0  0.5905851905959311  0.6513611907839449  0.572532644292707  1.0000
  C   C108      1.0  0.7374527694360464  0.7690284647282225  0.533256837680014  1.0000
  C   C109      1.0  0.8113406908880522  0.8028674008710084  0.49168439249165635  1.0000
  C   C110      1.0  0.8151905939371387  0.7609190401022657  0.4441769184135538  1.0000
  C   C111      1.0  0.7465160070386005  0.6839494013739156  0.4400455343115511  1.0000
  C   C112      1.0  0.6695400184217346  0.645662694378693  0.4821134071548628  1.0000
  C   C113      1.0  0.6644458112472192  0.6900207065353142  0.5294985692498813  1.0000
  C   C114      1.0  0.58061365485257  0.693391444561847  0.6231718680050307  1.0000
  C   C115      1.0  0.39160358494607556  0.4127677510368031  0.5587582517422547  1.0000
  C   C116      1.0  0.3531117183784289  0.3269095086471054  0.5449536318847308  1.0000
  C   C117      1.0  0.6090955182511878  0.5159656062154883  0.4320374343073965  1.0000
  C   C118      1.0  0.6535363110897805  0.45646453794930153  0.44212081206054427  1.0000
  C   C119      1.0  0.654410178545973  0.40255259906937374  0.4015428759074169  1.0000
  C   C120      1.0  0.6094886456178726  0.40607927488917994  0.35085208293115494  1.0000
  C   C121      1.0  0.5248289429421718  0.4760333192698455  0.2855148477660876  1.0000
  C   C122      1.0  0.4821996975802064  0.5353934481983842  0.2755315872671815  1.0000
  C   C123      1.0  0.47951317545538785  0.5891823366283121  0.3160909667943272  1.0000
  C   C124      1.0  0.5222134198005364  0.5828425689865072  0.3665548366467988  1.0000
  C   C125      1.0  0.5674748589446422  0.5229709227489039  0.3792663821800417  1.0000
  C   C126      1.0  0.566597172117511  0.4673968614105278  0.3377989309875957  1.0000
  C   C127      1.0  0.6044832294464014  0.3410602432205394  0.3125671590834926  1.0000
  C   C128      1.0  0.6873741668319157  0.37852076528808715  0.5144296841281033  1.0000
  C   C129      1.0  0.6747639650023203  0.3826138644701444  0.5750269541852902  1.0000
  C   C130      1.0  0.377729477986712  0.9801618102594251  0.5265828947285982  1.0000
  C   C131      1.0  0.41360062823794397  0.9161829626051843  0.5339052998756202  1.0000
  C   C132      1.0  0.40467432962656597  0.8810028160414376  0.5851099736442933  1.0000
  C   C133      1.0  0.3602896299490936  0.9089139929897172  0.628888056614592  1.0000
  C   C134      1.0  0.27837406623614663  0.006456879032498401  0.6666369606743316  1.0000
  C   C135      1.0  0.24630459664242474  0.0708211066360747  0.6579824632119086  1.0000
  C   C136      1.0  0.2517538277356053  0.10463276055461532  0.6062642096342472  1.0000
  C   C137      1.0  0.2931570664542065  0.0739947120398483  0.5635561408513965  1.0000
  C   C138      1.0  0.33028488550205287  0.008857395864566802  0.5704848421974447  1.0000
  C   C139      1.0  0.3208242504542936  0.9734620319781513  0.6229486253432555  1.0000
  C   C140      1.0  0.3590670907349674  0.8680383336809852  0.6815316649942461  1.0000
  C   C141      1.0  0.5035334064970128  0.8295254148319984  0.49564751544604485  1.0000
  C   C142      1.0  0.5415191838423964  0.8130499319656933  0.4402598143208749  1.0000
  C   C143      1.0  0.7217740707817838  0.7010113164514705  0.774382270389566  1.0000
  C   C144      1.0  0.8479269390541686  0.7762166733379984  0.844339885907175  1.0000
  C   C145      1.0  0.7737928384064504  0.8092389010797163  0.8792953948521856  1.0000
  C   C146      1.0  0.790474698387179  0.6290920238497505  0.8412475376499486  1.0000
  C   C147      1.0  0.7466250896812312  0.6141191782003474  0.8991138210127971  1.0000
  C   C148      1.0  0.18707168546961836  0.08065626855137252  0.2042901498316638  1.0000
  C   C149      1.0  0.09565479816124167  0.020672858740262305  0.1819984918265618  1.0000
  C   C150      1.0  0.11339464079093615  0.9852297783481417  0.134578279943625  1.0000
  C   C151      1.0  0.22294144903056431  0.0104243216270206  0.1117663316310811  1.0000
  C   C152      1.0  0.3095447994993847  0.07065402305810409  0.1367124641487862  1.0000
  C   C153      1.0  0.3994641512185878  0.4343907488239296  0.9782587633334643  1.0000
  C   C154      1.0  0.47200608281499257  0.4695341304210033  0.021344366586156096  1.0000
  C   C155      1.0  0.4748255368282202  0.4267495089116338  0.0685102916115881  1.0000
  C   C156      1.0  0.40940471722887384  0.34862272127757177  0.0725420081248132  1.0000
  C   C157      1.0  0.26253638771743937  0.2309590016913674  0.0332615481981904  1.0000
  C   C158      1.0  0.18864540553650497  0.19713201954634477  0.9916852844880568  1.0000
  C   C159      1.0  0.18481568709946566  0.2390873223043783  0.9441830171975525  1.0000
  C   C160      1.0  0.25348430888516293  0.31606215042064173  0.9400591978584601  1.0000
  C   C161      1.0  0.3304667533308957  0.35433776473159634  0.9821261628297934  1.0000
  C   C162      1.0  0.33555457600905914  0.3099643791615065  0.0295031195458648  1.0000
  C   C163      1.0  0.41936217216251487  0.3065820711291636  0.12318034298707659  1.0000
  C   C164      1.0  0.6084053708379996  0.587222971015713  0.05877240617065381  1.0000
  C   C165      1.0  0.646889938516992  0.6730821940618624  0.04496479356797071  1.0000
  C   C166      1.0  0.39093012905272667  0.48403068802844024  0.9320515161913293  1.0000
  C   C167      1.0  0.34651934786619165  0.5435400511582529  0.942136353505397  1.0000
  C   C168      1.0  0.3456025257159395  0.5974339628389842  0.9015556860271375  1.0000
  C   C169      1.0  0.3904872340214638  0.5938821318201593  0.8508582859777859  1.0000
  C   C170      1.0  0.47516224893452363  0.5239353736645356  0.7855254809102803  1.0000
  C   C171      1.0  0.5177892817750304  0.4645756939677455  0.7755420104390113  1.0000
  C   C172      1.0  0.5205043068677638  0.4108001697209716  0.8161061061234777  1.0000
  C   C173      1.0  0.4778128327470695  0.41714935360187155  0.8665697208514943  1.0000
  C   C174      1.0  0.43254490220066083  0.477016507327427  0.8792815373366099  1.0000
  C   C175      1.0  0.43339967662181755  0.5325736960714308  0.8378113469565349  1.0000
  C   C176      1.0  0.3954603910087967  0.6588854985206112  0.8125747334669243  1.0000
  C   C177      1.0  0.31263577157755407  0.6214810194965709  0.0144297107644604  1.0000
  C   C178      1.0  0.3252398286038698  0.6174143713141689  0.0750294886905749  1.0000
  C   C179      1.0  0.6222651339593738  0.01985004301619849  0.0265672702677691  1.0000
  C   C180      1.0  0.5864045769237619  0.083838313236825  0.0338946716443331  1.0000
  C   C181      1.0  0.5953328492812843  0.11900632350543822  0.0851013597264512  1.0000
  C   C182      1.0  0.6396796466877106  0.09106834005586961  0.1288785027159349  1.0000
  C   C183      1.0  0.7216179709578935  0.9935381974732489  0.1666135323260605  1.0000
  C   C184      1.0  0.7536929210145401  0.9291738544142729  0.1579500703311254  1.0000
  C   C185      1.0  0.7482542596462378  0.8953702511967592  0.1062269289211173  1.0000
  C   C186      1.0  0.7068533417700564  0.9260222980903308  0.0635234196151018  1.0000
  C   C187      1.0  0.6697074904083207  0.9911521301766798  0.0704624105221399  1.0000
  C   C188      1.0  0.6791766707366803  0.0265406197494826  0.1229275335477098  1.0000
  C   C189      1.0  0.6409132217987262  0.13195344476945076  0.18151064433616432  1.0000
  C   C190      1.0  0.4965030851470828  0.17051077484210003  0.9956434419934155  1.0000
  C   C191      1.0  0.4585208057600596  0.1869925108184987  0.940261614701491  1.0000
  C   C192      1.0  0.2782092560638461  0.29897704107366974  0.2743797090281745  1.0000
  C   C193      1.0  0.15206422516590834  0.22378718857390822  0.344347894561075  1.0000
  C   C194      1.0  0.2262215152807343  0.1907765014919889  0.37929411389222883  1.0000
  C   C195      1.0  0.20953906693903682  0.37091937362585264  0.3412426824108152  1.0000
  C   C196      1.0  0.25338651997712697  0.38589066146718654  0.39910793269159933  1.0000
  N   N1        1.0  0.1859283247610647  0.8934356842551948  0.8182400947605117  1.0000
  N   N2        1.0  0.9183975759868447  0.7014841146217706  0.6814855505955889  1.0000
  N   N3        1.0  0.8140869474182679  0.1065637506373847  0.31823862069403225  1.0000
  N   N4        1.0  0.08160578983105175  0.2985117438006313  0.18148690526300024  1.0000
  N   N5        1.0  0.7076612892224076  0.8934729126495854  0.681823151968132  1.0000
  N   N6        1.0  0.7831891968970195  0.7016463041961174  0.8186024200177044  1.0000
  N   N7        1.0  0.29233197032994696  0.10652702912435791  0.18182603286504673  1.0000
  N   N8        1.0  0.21680335559592828  0.2983513861785667  0.3186043040614734  1.0000
  Cl  Cl1       1.0  0.9967167976889115  0.8987499699716255  0.0027160556407040005  1.0000
  Cl  Cl2       1.0  0.11667251837298659  0.5440991270461311  0.2879752456899922  1.0000
  Cl  Cl3       1.0  0.91538590031643  0.1135363747869249  0.7886659626799855  1.0000
  Cl  Cl4       1.0  0.0032749581723052973  0.10125398849182692  0.5027259374119027  1.0000
  Cl  Cl5       1.0  0.8832937875410564  0.4558929077517178  0.7879544089192834  1.0000
  Cl  Cl6       1.0  0.08458985244617157  0.8864504251293893  0.2886853876431559  1.0000
  Cl  Cl7       1.0  0.9021279586263161  0.8989444926523689  0.4974114361423574  1.0000
  Cl  Cl8       1.0  0.4281073642181568  0.5444604745058614  0.21189304122344774  1.0000
  Cl  Cl9       1.0  0.1985157775776258  0.1136747331004813  0.7115801351642048  1.0000
  Cl  Cl10      1.0  0.09785691213005517  0.10105500418305978  0.997403276038881  1.0000
  Cl  Cl11      1.0  0.5718847483373324  0.4555177242193906  0.7118994096774075  1.0000
  Cl  Cl12      1.0  0.8014929577615602  0.8863221103346034  0.2115513341537323  1.0000
  O   O1        1.0  0.19232244210574825  0.7599651418894453  0.8807749792736885  1.0000
  O   O2        1.0  0.07839114690500529  0.6622531574535203  0.8311665678811267  1.0000
  O   O3        1.0  0.990106374195946  0.4538673216458591  0.9846702440643823  1.0000
  O   O4        1.0  0.62815180710961  0.31698032688988326  0.186996378012914  1.0000
  O   O5        1.0  0.799422781867264  0.313055198858784  0.2154790258505344  1.0000
  O   O6        1.0  0.7580430552224654  0.453554068268879  0.007107060391248901  1.0000
  O   O7        1.0  0.40127481806032955  0.8450064857756415  0.8099657901359123  1.0000
  O   O8        1.0  0.5822158994296487  0.8564814982277725  0.7868939242904531  1.0000
  O   O9        1.0  0.43363533784605557  0.8921555733894377  0.0104486844309761  1.0000
  O   O10       1.0  0.04558683505223369  0.7617607751304334  0.747883226515988  1.0000
  O   O11       1.0  0.8076626071346739  0.24000482378975363  0.3807790539397118  1.0000
  O   O12       1.0  0.9215477495999379  0.3377604327289844  0.33116553205004357  1.0000
  O   O13       1.0  0.009921845318920836  0.5461424966045813  0.4846484260701942  1.0000
  O   O14       1.0  0.37184530155434453  0.6830103599929559  0.6869910914464371  1.0000
  O   O15       1.0  0.2005948750082424  0.686971417893659  0.7154529952124378  1.0000
  O   O16       1.0  0.24196054216841378  0.546458107930917  0.5070928374701253  1.0000
  O   O17       1.0  0.5987252016803879  0.15493689294880394  0.30998111778797727  1.0000
  O   O18       1.0  0.4178640545740109  0.1435647244867653  0.2868989462032446  1.0000
  O   O19       1.0  0.5663643589675046  0.10785256805710469  0.5104490523393537  1.0000
  O   O20       1.0  0.9543347577724287  0.23823888030091198  0.2478572912444648  1.0000
  O   O21       1.0  0.5678750838320211  0.7600795232989411  0.6192571250406972  1.0000
  O   O22       1.0  0.5836520002258182  0.6621443054726583  0.6687461999241293  1.0000
  O   O23       1.0  0.46375212858261944  0.4539889923624115  0.5150822107171251  1.0000
  O   O24       1.0  0.688932697434879  0.3170289901525294  0.31286895131035664  1.0000
  O   O25       1.0  0.5137816129774038  0.3132370217512204  0.2843495352228658  1.0000
  O   O26       1.0  0.6958938770252628  0.45369590789298536  0.4927268438491624  1.0000
  O   O27       1.0  0.44380622184092283  0.8451347909407262  0.6901653845993678  1.0000
  O   O28       1.0  0.2743904753482623  0.8566764439065437  0.7132369205697842  1.0000
  O   O29       1.0  0.4589681255486083  0.8925090786202362  0.4897270997030958  1.0000
  O   O30       1.0  0.7162051036792577  0.761735654699699  0.7521190107828132  1.0000
  O   O31       1.0  0.43215091946104417  0.2399096769229914  0.11924971483627192  1.0000
  O   O32       1.0  0.416370112864051  0.33785954226308945  0.16874999914586652  1.0000
  O   O33       1.0  0.5362896890386323  0.5460023130635605  0.0150902638360151  1.0000
  O   O34       1.0  0.31100691427617727  0.682903934634929  0.8128656845742981  1.0000
  O   O35       1.0  0.4861668853632323  0.6867899295538252  0.7843626210326208  1.0000
  O   O36       1.0  0.3041477431323755  0.5463064430219973  0.9927384308587862  1.0000
  O   O37       1.0  0.5562156139513021  0.1548961497235055  0.19012866474999868  1.0000
  O   O38       1.0  0.7255519650472948  0.1433513049449147  0.213239835129464  1.0000
  O   O39       1.0  0.5410447408138168  0.10751770660682068  0.9897202956386479  1.0000
  O   O40       1.0  0.28383528809330016  0.23825823579163335  0.2521359335813429  1.0000
