data_image0
_chemical_formula_structural       Gd4H20C36O28
_chemical_formula_sum              "Gd4 H20 C36 O28"
_cell_length_a       7.106477974004868
_cell_length_b       7.418579343342154
_cell_length_c       18.355524403985452
_cell_angle_alpha    97.20719406531218
_cell_angle_beta     89.9999828919194
_cell_angle_gamma    89.99986951422159

_space_group_name_H-M_alt    "P 1"
_space_group_IT_number       1

loop_
  _space_group_symop_operation_xyz
  'x, y, z'

loop_
  _atom_site_type_symbol
  _atom_site_label
  _atom_site_symmetry_multiplicity
  _atom_site_fract_x
  _atom_site_fract_y
  _atom_site_fract_z
  _atom_site_occupancy
  Gd  Gd1       1.0  0.022408090499027398  0.6327142649985407  0.7435054793995376  1.0000
  Gd  Gd2       1.0  0.5224065406251482  0.8672861402815147  0.7564943927822085  1.0000
  Gd  Gd3       1.0  0.9775934306487528  0.36728529022419565  0.25649472531814865  1.0000
  Gd  Gd4       1.0  0.47759357335416297  0.13271477364375536  0.24350588155083125  1.0000
  H   H1        1.0  0.690619746114166  0.4532389415859372  0.7843590202234978  1.0000
  H   H2        1.0  0.19061870842068632  0.04676172253163461  0.7156411993834482  1.0000
  H   H3        1.0  0.3093817750338205  0.5467606154377692  0.21564063979086964  1.0000
  H   H4        1.0  0.8093814055586249  0.9532391913936354  0.28435907494959173  1.0000
  H   H5        1.0  0.8270658591455271  0.2950121672694764  0.8014629740429909  1.0000
  H   H6        1.0  0.32706586362964174  0.20498819096913934  0.6985372141921005  1.0000
  H   H7        1.0  0.1729356620006044  0.7049887466542162  0.1985373002898854  1.0000
  H   H8        1.0  0.6729356575179326  0.7950113624526338  0.3014635352288977  1.0000
  H   H9        1.0  0.8421744365553606  0.5425286449016016  0.4806395331610601  1.0000
  H   H10       1.0  0.3421725679375243  0.9574710866176307  0.019360718743193714  1.0000
  H   H11       1.0  0.15782567742559908  0.4574709103227123  0.5193606715567896  1.0000
  H   H12       1.0  0.6578247317098018  0.042528468609845015  0.9806394859749757  1.0000
  H   H13       1.0  0.16786990686272674  0.4203774932898058  0.9669568093679571  1.0000
  H   H14       1.0  0.6678678086041571  0.0796218649283773  0.5330428011512537  1.0000
  H   H15       1.0  0.8321344286172518  0.5796234224316948  0.033042920261280494  1.0000
  H   H16       1.0  0.3321337125438291  0.9203776920953289  0.46695685886311367  1.0000
  H   H17       1.0  0.7147932424970379  0.6002431971202782  0.9062626770874757  1.0000
  H   H18       1.0  0.21479286192015928  0.8997594942813553  0.5937372900912549  1.0000
  H   H19       1.0  0.28520968581612033  0.39975771860280673  0.09373705254191829  1.0000
  H   H20       1.0  0.7852072520577166  0.10024278014583392  0.406262509153656  1.0000
  C   C1        1.0  0.6211085068337355  0.5357374005792935  0.5606516595337181  1.0000
  C   C2        1.0  0.1211091142288439  0.964262779834961  0.9393492793611742  1.0000
  C   C3        1.0  0.378890199980205  0.46426215284564176  0.4393490898876067  1.0000
  C   C4        1.0  0.8788909997517037  0.0357367717874268  0.06065201476329919  1.0000
  C   C5        1.0  0.42737543357076646  0.5108773987777513  0.571317669345518  1.0000
  C   C6        1.0  0.927376274831829  0.9891220950629817  0.928683199132358  1.0000
  C   C7        1.0  0.57262327324338  0.489122156448147  0.42868253537249495  1.0000
  C   C8        1.0  0.07262102481549701  0.010877460164486801  0.0713170055858114  1.0000
  C   C9        1.0  0.6918960737321811  0.5251007253846326  0.4892091494116925  1.0000
  C   C10       1.0  0.1918941700381396  0.9749007053237337  0.010790117253172601  1.0000
  C   C11       1.0  0.3081040402491979  0.4748988334416141  0.5107899658995194  1.0000
  C   C12       1.0  0.8081017224394883  0.025101570909150408  0.9892091372889167  1.0000
  C   C13       1.0  0.7554562873057975  0.5695379696628465  0.6231172900453146  1.0000
  C   C14       1.0  0.2554570233787175  0.930461914980299  0.8768819838503318  1.0000
  C   C15       1.0  0.244542419508555  0.43046158736401463  0.3768823699693797  1.0000
  C   C16       1.0  0.744540276267166  0.06953900074909572  0.12311774577971588  1.0000
  C   C17       1.0  0.3312926183433262  0.5357464675263232  0.6443196686090146  1.0000
  C   C18       1.0  0.8312907606797992  0.9642573196147098  0.8556808861028242  1.0000
  C   C19       1.0  0.6687089028044538  0.4642530876964203  0.3556805361086717  1.0000
  C   C20       1.0  0.16870653896587842  0.035743594313714815  0.14431938823054216  1.0000
  C   C21       1.0  0.36213623219262553  0.5319980047228087  0.853262650691583  1.0000
  C   C22       1.0  0.862134525814774  0.9680029976735088  0.6467372129949638  1.0000
  C   C23       1.0  0.6378652889553675  0.4680015523008978  0.1467370093227842  1.0000
  C   C24       1.0  0.13786699533156374  0.03199791805114671  0.3532625166345937  1.0000
  C   C25       1.0  0.4342844870161713  0.5098000797041566  0.9283879668839887  1.0000
  C   C26       1.0  0.9342841923743136  0.9902007627533396  0.571611335510724  1.0000
  C   C27       1.0  0.5657184412969869  0.49020083601892156  0.0716117627454125  1.0000
  C   C28       1.0  0.0657173287753281  0.009797435569417702  0.42838825488844623  1.0000
  C   C29       1.0  0.313185162912518  0.4549076728884246  0.9817825805562777  1.0000
  C   C30       1.0  0.8131831585375338  0.045092716469461905  0.5182176108705078  1.0000
  C   C31       1.0  0.6868177654006401  0.5450932428346535  0.018217149073123603  1.0000
  C   C32       1.0  0.18681554827661268  0.9549068387564364  0.48178259384750527  1.0000
  C   C33       1.0  0.621624765855529  0.5549216514657334  0.9473449709557966  1.0000
  C   C34       1.0  0.1216229013182613  0.9450785295949304  0.5526554231173647  1.0000
  C   C35       1.0  0.37837956962444946  0.4450792642557674  0.052654758673440896  1.0000
  C   C36       1.0  0.8783772126624997  0.05492102382842031  0.44734532630379686  1.0000
  O   O1        1.0  0.6935619566497806  0.6310178586822845  0.6875197710049291  1.0000
  O   O2        1.0  0.19355866752796666  0.8689821629158914  0.8124800618252549  1.0000
  O   O3        1.0  0.3064395644965643  0.368983057042371  0.3124799586246283  1.0000
  O   O4        1.0  0.806438632121015  0.13101603361063505  0.1875200732777174  1.0000
  O   O5        1.0  0.8201298128399443  0.4045135329232538  0.7759661666679916  1.0000
  O   O6        1.0  0.3201286522752298  0.09548548216457682  0.7240339535467797  1.0000
  O   O7        1.0  0.1798703011410225  0.59548602230106  0.2240340380498509  1.0000
  O   O8        1.0  0.6798714617040814  0.904515431760693  0.2759663207862602  1.0000
  O   O9        1.0  0.9289065241654982  0.5386998203236288  0.6135826782500402  1.0000
  O   O10       1.0  0.4289043649005038  0.9612996736900856  0.8864171004695223  1.0000
  O   O11       1.0  0.07109358981567482  0.4612997367016548  0.3864169817644907  1.0000
  O   O12       1.0  0.5710915275783605  0.03870124023991653  0.11358317386400782  1.0000
  O   O13       1.0  0.30784056681904554  0.701201988398566  0.6746754915546518  1.0000
  O   O14       1.0  0.8078405349883796  0.7987977770121192  0.8253243150001878  1.0000
  O   O15       1.0  0.6921581399936584  0.29879892732925134  0.32532423807523964  1.0000
  O   O16       1.0  0.19215817182762152  0.2012004213137857  0.17467527539930927  1.0000
  O   O17       1.0  0.2531612320308767  0.4066283830005163  0.6708331236886521  1.0000
  O   O18       1.0  0.7531602809878847  0.09336806481185533  0.8291668726931504  1.0000
  O   O19       1.0  0.746838881949877  0.5933711704228345  0.3291676257325094  1.0000
  O   O20       1.0  0.24683701866315738  0.9066287766156408  0.17083210338800103  1.0000
  O   O21       1.0  0.187651800313823  0.509532757448625  0.8395764164612132  1.0000
  O   O22       1.0  0.6876500297567888  0.9904672755959684  0.6604239624309826  1.0000
  O   O23       1.0  0.8123497208337582  0.49046679597315557  0.1604243329597921  1.0000
  O   O24       1.0  0.3123500842223166  0.009533636528338704  0.3395768566053761  1.0000
  O   O25       1.0  0.47953611787952616  0.5821711193552803  0.8063620895296211  1.0000
  O   O26       1.0  0.979535902596723  0.9178296198584096  0.693637747164132  1.0000
  O   O27       1.0  0.5204639961001973  0.41782979817192273  0.19363709539678095  1.0000
  O   O28       1.0  0.020465618550851203  0.08216993356336393  0.3063630022568731  1.0000
