data_image0
_chemical_formula_structural       Zn4H40C48I8N16
_chemical_formula_sum              "Zn4 H40 C48 I8 N16"
_cell_length_a       8.336833643259835
_cell_length_b       11.722774282202687
_cell_length_c       15.049859024571353
_cell_angle_alpha    90.00056156559549
_cell_angle_beta     90.0008517411415
_cell_angle_gamma    90.00030450442189

_space_group_name_H-M_alt    "P 1"
_space_group_IT_number       1

loop_
  _space_group_symop_operation_xyz
  'x, y, z'

loop_
  _atom_site_type_symbol
  _atom_site_label
  _atom_site_symmetry_multiplicity
  _atom_site_fract_x
  _atom_site_fract_y
  _atom_site_fract_z
  _atom_site_occupancy
  Zn  Zn1       1.0  0.7247494567101569  0.9934258883334266  0.7500047389525051  1.0000
  Zn  Zn2       1.0  0.7752612187398213  0.49342362907176346  0.2499969141577623  1.0000
  Zn  Zn3       1.0  0.22476877360564632  0.5065905632574613  0.7500007013502528  1.0000
  Zn  Zn4       1.0  0.27524694982258774  0.006574655347591799  0.2500028432320889  1.0000
  H   H1        1.0  0.406422152289089  0.0596860403711901  0.826244879051032  1.0000
  H   H2        1.0  0.09358078951159851  0.5596818542762421  0.17375377915203677  1.0000
  H   H3        1.0  0.9064459681098996  0.4403177867230355  0.6737626737465944  1.0000
  H   H4        1.0  0.5935522995217327  0.9403085816482246  0.3262478523042276  1.0000
  H   H5        1.0  0.5935502642539134  0.940304266769786  0.1737607096187261  1.0000
  H   H6        1.0  0.9064468036322993  0.4403058937491977  0.8262358627425286  1.0000
  H   H7        1.0  0.0935600343533167  0.5596887282306041  0.3262402572954954  1.0000
  H   H8        1.0  0.4064513039591802  0.059693668110895694  0.6737570720848467  1.0000
  H   H9        1.0  0.3022504673969665  0.8318167055949814  0.0440754585071517  1.0000
  H   H10       1.0  0.19773779738794423  0.33180972768766276  0.9559200842062341  1.0000
  H   H11       1.0  0.8022437144920004  0.6681761932207593  0.455927236031613  1.0000
  H   H12       1.0  0.6977524370040128  0.16818907727711266  0.5440717873519105  1.0000
  H   H13       1.0  0.6977363430745882  0.1681693363661836  0.9559294657468911  1.0000
  H   H14       1.0  0.8022406163555615  0.6681677837559974  0.044068228527287104  1.0000
  H   H15       1.0  0.1977526919741948  0.3318277625864354  0.5440743660443133  1.0000
  H   H16       1.0  0.3022511664168306  0.8318319393116836  0.4559231702422579  1.0000
  H   H17       1.0  0.5630945164103665  0.7343102155869661  0.0135535989574649  1.0000
  H   H18       1.0  0.9368949523003351  0.23430617249556457  0.9864472879567361  1.0000
  H   H19       1.0  0.0630837758965512  0.7656886401943976  0.48644512239806653  1.0000
  H   H20       1.0  0.436919568194341  0.2657011772015849  0.5135478924199717  1.0000
  H   H21       1.0  0.43690548851339617  0.26568350374594013  0.986448667550029  1.0000
  H   H22       1.0  0.06307986321618128  0.7656815755246383  0.013557636254553503  1.0000
  H   H23       1.0  0.9369138300513882  0.23431616864749563  0.5135551507701734  1.0000
  H   H24       1.0  0.5630900326264336  0.7343172802454347  0.4864417495242677  1.0000
  H   H25       1.0  0.7366052005319758  0.8078051382216387  0.8882272593011892  1.0000
  H   H26       1.0  0.763394435642283  0.3078011994153655  0.1117755507970628  1.0000
  H   H27       1.0  0.2366018794839206  0.6922096502009507  0.6117709700085785  1.0000
  H   H28       1.0  0.2633996937782398  0.1922089845838073  0.3882267663165422  1.0000
  H   H29       1.0  0.2633888069130422  0.19220052364625667  0.11177168493949813  1.0000
  H   H30       1.0  0.2366031704619758  0.6922027564569362  0.8882366826126501  1.0000
  H   H31       1.0  0.7634017239248864  0.30779686472080664  0.3882273098172249  1.0000
  H   H32       1.0  0.7366099071091625  0.8077992364256801  0.6117708490829301  1.0000
  H   H33       1.0  0.1442816674066876  0.07546808433502152  0.8970166137707666  1.0000
  H   H34       1.0  0.35571539958272075  0.5754631579255758  0.10297884971663512  1.0000
  H   H35       1.0  0.6442902769208203  0.42452455560626134  0.6029980712407337  1.0000
  H   H36       1.0  0.8557006709668401  0.9245248164619254  0.39701232712570095  1.0000
  H   H37       1.0  0.8556907491963059  0.9245102802876343  0.1029969483473252  1.0000
  H   H38       1.0  0.6443001983158538  0.42451094132952244  0.8969935161637679  1.0000
  H   H39       1.0  0.3556989325960558  0.5754819593169316  0.3970048597318439  1.0000
  H   H40       1.0  0.1443065310247036  0.07548084546922951  0.6029932617501145  1.0000
  C   C1        1.0  0.4349743119568004  0.9856847169326028  0.867511585690828  1.0000
  C   C2        1.0  0.0650247452655677  0.4856794509231151  0.1324871945109436  1.0000
  C   C3        1.0  0.9349925143112185  0.5143222605866384  0.6324955948839419  1.0000
  C   C4        1.0  0.5650108374413277  0.014319777144038402  0.3675148092214258  1.0000
  C   C5        1.0  0.5649981045861309  0.014312414519729103  0.13249200963236524  1.0000
  C   C6        1.0  0.934998049933533  0.5143117092670052  0.8675044407517093  1.0000
  C   C7        1.0  0.0650062911827831  0.48568169524063615  0.3675086650341157  1.0000
  C   C8        1.0  0.43499876353252626  0.985690149981643  0.6324887863074125  1.0000
  C   C9        1.0  0.32810473483638  0.9485964221027247  0.9332617754168311  1.0000
  C   C10       1.0  0.1718880364322288  0.448589912106165  0.06673072476297653  1.0000
  C   C11       1.0  0.8281118744347468  0.5514033434970854  0.5667451848372809  1.0000
  C   C12       1.0  0.6718809701656596  0.0514097034678045  0.43326153232217024  1.0000
  C   C13       1.0  0.6718772777424389  0.0513972972408325  0.066747800054749  1.0000
  C   C14       1.0  0.828114367146938  0.5513969827702638  0.9332482856950505  1.0000
  C   C15       1.0  0.17188573153648423  0.4486006123162127  0.4332570817016618  1.0000
  C   C16       1.0  0.32812023438816607  0.9486070479776104  0.5667440565736471  1.0000
  C   C17       1.0  0.37779305483512354  0.8586983255154264  0.9887259245801516  1.0000
  C   C18       1.0  0.1221906209876806  0.3586909786334899  0.0112698354575897  1.0000
  C   C19       1.0  0.8777970138399737  0.6413007672175084  0.5112774602470723  1.0000
  C   C20       1.0  0.6222133226938311  0.14130845679005694  0.4887273260018645  1.0000
  C   C21       1.0  0.6221997531161138  0.14129198165072412  0.011277670799856301  1.0000
  C   C22       1.0  0.8777829948287702  0.6412899449827165  0.9887217995601248  1.0000
  C   C23       1.0  0.1222053901458509  0.35870404165668646  0.4887267996893314  1.0000
  C   C24       1.0  0.3777986772368109  0.8587082946355978  0.5112716183581298  1.0000
  C   C25       1.0  0.5245438034807534  0.8065060760782501  0.9731793315280584  1.0000
  C   C26       1.0  0.9754486255279814  0.3065001943873042  0.0268174879067899  1.0000
  C   C27       1.0  0.024541823256285504  0.6934951476770123  0.5268191355881129  1.0000
  C   C28       1.0  0.4754525630357663  0.19350649339406092  0.4731759533171882  1.0000
  C   C29       1.0  0.4754490045025648  0.19349020237459058  0.0268249283341362  1.0000
  C   C30       1.0  0.024534586377413292  0.6934909657664432  0.9731801273144854  1.0000
  C   C31       1.0  0.9754569821822655  0.3065105142035165  0.4731804731304834  1.0000
  C   C32       1.0  0.5245474418511549  0.8065119640512891  0.5268163464195368  1.0000
  C   C33       1.0  0.6207306310632389  0.8460527934486491  0.9039652877011549  1.0000
  C   C34       1.0  0.8792609060064078  0.3460490885102984  0.0960351737744958  1.0000
  C   C35       1.0  0.1207373880096227  0.6539573095834755  0.5960372980455588  1.0000
  C   C36       1.0  0.37926988538817596  0.1539581035350466  0.4039667736095112  1.0000
  C   C37       1.0  0.3792561794158829  0.1539511623332785  0.09603498541895311  1.0000
  C   C38       1.0  0.1207331014741584  0.6539497490619725  0.9039684216449617  1.0000
  C   C39       1.0  0.8792614174699621  0.3460474992763309  0.40396563295984583  1.0000
  C   C40       1.0  0.6207421145281203  0.846052676611777  0.5960328351843955  1.0000
  C   C41       1.0  0.17295594753877447  0.004443406326792899  0.9419995909497276  1.0000
  C   C42       1.0  0.3270417666573734  0.5044352842072752  0.0579946338165058  1.0000
  C   C43       1.0  0.6729531129485906  0.49555616184203194  0.5580040356312708  1.0000
  C   C44       1.0  0.8270419857534179  0.9955619697170803  0.44200560816756973  1.0000
  C   C45       1.0  0.8270392593427188  0.9955469008161726  0.057999353233846314  1.0000
  C   C46       1.0  0.6729558389959678  0.49554393333623636  0.9419910211711412  1.0000
  C   C47       1.0  0.32704569255204774  0.5044495000660305  0.4420002242936861  1.0000
  C   C48       1.0  0.17296521629898362  0.0044547817470715  0.5580013096691802  1.0000
  I   I1        1.0  0.712485169537601  0.21217905712481408  0.750003523271353  1.0000
  I   I2        1.0  0.7875425110535303  0.7121773301845452  0.2500031649966985  1.0000
  I   I3        1.0  0.21248508230738136  0.2878343030270187  0.7499957794071435  1.0000
  I   I4        1.0  0.28755561837438387  0.7878223396849434  0.250005388016497  1.0000
  I   I5        1.0  0.9852987684188792  0.8782479936975914  0.750010667454589  1.0000
  I   I6        1.0  0.51470021615674  0.37825843813205745  0.2500000212863753  1.0000
  I   I7        1.0  0.48532857671577284  0.6217617254777608  0.7499975942408171  1.0000
  I   I8        1.0  0.0146904411502788  0.12174231350923749  0.2500009014071409  1.0000
  N   N1        1.0  0.5778915004008952  0.9358895130253729  0.8534806152764247  1.0000
  N   N2        1.0  0.9221103311409422  0.43588400206557765  0.14651791475542103  1.0000
  N   N3        1.0  0.0779049039582986  0.5641212877078203  0.6465236092374554  1.0000
  N   N4        1.0  0.422094473989567  0.0641233453352399  0.3534843872489404  1.0000
  N   N5        1.0  0.42208931262955207  0.06411358972101057  0.1465223156476085  1.0000
  N   N6        1.0  0.07790646669030112  0.5641156885530165  0.8534797006393549  1.0000
  N   N7        1.0  0.9220975000419427  0.43588266813384274  0.3534819796116011  1.0000
  N   N8        1.0  0.5779127279631098  0.9358882878511422  0.6465165504446517  1.0000
  N   N9        1.0  0.07105833805336201  0.9695658476820981  0.0010580441875517998  1.0000
  N   N10       1.0  0.4289309978457468  0.4695627766696972  0.9989386122834746  1.0000
  N   N11       1.0  0.5710708544357246  0.5304287718963181  0.4989533678773911  1.0000
  N   N12       1.0  0.928929023972934  0.03042918932627711  0.5010491929540137  1.0000
  N   N13       1.0  0.9289152781111909  0.0304133700106561  0.9989601691453132  1.0000
  N   N14       1.0  0.5710738046106131  0.5304104695372303  0.0010357469229518  1.0000
  N   N15       1.0  0.4289291505576927  0.46958286128488436  0.5010488987025212  1.0000
  N   N16       1.0  0.0710721805199697  0.9695832968974972  0.4989530736343042  1.0000
