data_image0
_chemical_formula_structural       Nd2H46C76N8O16
_chemical_formula_sum              "Nd2 H46 C76 N8 O16"
_cell_length_a       9.083910552743918
_cell_length_b       13.47248380359195
_cell_length_c       14.097356504041013
_cell_angle_alpha    96.80979075247112
_cell_angle_beta     96.39704494209495
_cell_angle_gamma    104.5887300869861

_space_group_name_H-M_alt    "P 1"
_space_group_IT_number       1

loop_
  _space_group_symop_operation_xyz
  'x, y, z'

loop_
  _atom_site_type_symbol
  _atom_site_label
  _atom_site_symmetry_multiplicity
  _atom_site_fract_x
  _atom_site_fract_y
  _atom_site_fract_z
  _atom_site_occupancy
  Nd  Nd1       1.0  0.3687468757495366  0.35689895132473043  0.5124394871765006  1.0000
  Nd  Nd2       1.0  0.6312544019201168  0.6431015006584531  0.48756101688987036  1.0000
  H   H1        1.0  0.46229531134085255  0.5673585882326363  0.05954847920591526  1.0000
  H   H2        1.0  0.5377045448312998  0.43264108735649387  0.940452540865529  1.0000
  H   H3        1.0  0.3150748837367701  0.21315501110039745  0.8308455831170889  1.0000
  H   H4        1.0  0.6849216475509292  0.786844663435616  0.16915732539726486  1.0000
  H   H5        1.0  0.127908607228342  0.03662804557327349  0.097920245703456  1.0000
  H   H6        1.0  0.872090600114326  0.9633755128648218  0.9020818918666507  1.0000
  H   H7        1.0  0.49473291794891594  0.5564456103780273  0.23470975481755826  1.0000
  H   H8        1.0  0.5052658316751604  0.4435540681960716  0.7652911858920461  1.0000
  H   H9        1.0  0.2820599906018727  0.9129066784322218  0.8361077992466547  1.0000
  H   H10       1.0  0.7179401735327386  0.0870937631918878  0.1638954608291172  1.0000
  H   H11       1.0  0.9663014304332478  0.21996347116694176  0.13424833446575243  1.0000
  H   H12       1.0  0.03369418046055729  0.7800339119361581  0.8657464363499798  1.0000
  H   H13       1.0  0.9425446708032793  0.5020104904440784  0.305999531149979  1.0000
  H   H14       1.0  0.05746230829352325  0.4979876188362765  0.6940003998169004  1.0000
  H   H15       1.0  0.4774319834914492  0.1577938041884863  0.39205684727658513  1.0000
  H   H16       1.0  0.5225686695195788  0.8422050990446902  0.6079427209951618  1.0000
  H   H17       1.0  0.6184676406133676  0.2067507734081602  0.3013060544451207  1.0000
  H   H18       1.0  0.3815330071574363  0.7932481198169864  0.698695640355062  1.0000
  H   H19       1.0  0.8447742586067475  0.8820135284853592  0.3145244698420769  1.0000
  H   H20       1.0  0.15522481120697046  0.11798693947579149  0.6854737489721927  1.0000
  H   H21       1.0  0.7286257759389229  0.18186050993782735  0.9928861583683785  1.0000
  H   H22       1.0  0.27137107728515986  0.8181399573212431  0.0071133194078356575  1.0000
  H   H23       1.0  0.10729313611857799  0.8871196485391266  0.26895683608135096  1.0000
  H   H24       1.0  0.8927070419899578  0.11288081977306769  0.7310407532519536  1.0000
  H   H25       1.0  0.640698304769664  0.1279689514447355  0.49983926063193707  1.0000
  H   H26       1.0  0.35930455609729234  0.8720299358104737  0.5001625928919182  1.0000
  H   H27       1.0  0.03503762968561117  0.39341403091912497  0.5759817320627505  1.0000
  H   H28       1.0  0.9649631765750257  0.6065879928150862  0.4240153753795468  1.0000
  H   H29       1.0  0.4376251050893529  0.332709127731512  0.2231887419982073  1.0000
  H   H30       1.0  0.5623752122948744  0.6672944343936393  0.7768120572481152  1.0000
  H   H31       1.0  0.20711181781189944  0.4827700336781787  0.9579068617567899  1.0000
  H   H32       1.0  0.792889143161595  0.5172296355899701  0.042094946519298966  1.0000
  H   H33       1.0  0.9872333976817842  0.3945912370583287  0.033601884721576894  1.0000
  H   H34       1.0  0.012768361877320363  0.6054076631898794  0.9663977629120168  1.0000
  H   H35       1.0  0.6741754801404696  0.9699751020989779  0.3960712711318592  1.0000
  H   H36       1.0  0.325825486073235  0.030024577177208307  0.6039284106157936  1.0000
  H   H37       1.0  0.38714795100541716  0.9802598474692344  0.2921788922431573  1.0000
  H   H38       1.0  0.6128527054990939  0.019739062435967  0.7078192583429798  1.0000
  H   H39       1.0  0.20820060733968393  0.1895172460461224  0.23052533706719203  1.0000
  H   H40       1.0  0.7918003347031684  0.810487864829028  0.7694763979737544  1.0000
  H   H41       1.0  0.7355696093712325  0.23778793890222968  0.7108963153384665  1.0000
  H   H42       1.0  0.2644271028304246  0.7622094312078717  0.2891006613675344  1.0000
  H   H43       1.0  0.574581699064268  0.3302391494775422  0.0806331503992936  1.0000
  H   H44       1.0  0.4254179919145996  0.6697628605615903  0.9193674218952168  1.0000
  H   H45       1.0  0.7524008452981903  0.3102978265323557  0.5765537327253938  1.0000
  H   H46       1.0  0.24759901087396222  0.6897018490567743  0.42344728734604326  1.0000
  C   C1        1.0  0.29466010916818414  0.45219301097464637  0.3354835434359984  1.0000
  C   C2        1.0  0.7053391223453431  0.5478051158644844  0.6645165408408218  1.0000
  C   C3        1.0  0.6829944567229161  0.40891024503038415  0.38240882069482046  1.0000
  C   C4        1.0  0.31700855390017313  0.5910917560538422  0.6175919896852093  1.0000
  C   C5        1.0  0.11419440057933625  0.4257422569277835  0.1774660453014008  1.0000
  C   C6        1.0  0.8858019949261617  0.5742543304672907  0.8225322356143112  1.0000
  C   C7        1.0  0.9774788219068569  0.36966827508443595  0.21743975467005328  1.0000
  C   C8        1.0  0.022521204698811793  0.6303290760627219  0.7825595866498887  1.0000
  C   C9        1.0  0.25974784766749787  0.47179933529447726  0.2341796405911438  1.0000
  C   C10       1.0  0.7402502755512115  0.5281987911936099  0.7658210731666417  1.0000
  C   C11       1.0  0.4449793867260894  0.2525323144430303  0.667974596224532  1.0000
  C   C12       1.0  0.555017941400493  0.7474665877370298  0.33202686049013147  1.0000
  C   C13       1.0  0.36474656704060476  0.5278518195060825  0.09198981334967728  1.0000
  C   C14       1.0  0.6352532926250304  0.4721478627550724  0.9080097890361432  1.0000
  C   C15       1.0  0.4343727168873315  0.20975244030330492  0.8366509013416845  1.0000
  C   C16       1.0  0.5656249244419271  0.7902472379197576  0.16335066884888505  1.0000
  C   C17       1.0  0.2259793669012851  0.10177948753249669  0.09585455450633158  1.0000
  C   C18       1.0  0.7740209504829422  0.8982240745926473  0.9041462447399908  1.0000
  C   C19       1.0  0.382614929246941  0.5231587972740144  0.1906741263042946  1.0000
  C   C20       1.0  0.6173852436213707  0.47684166103014275  0.8093255895574316  1.0000
  C   C21       1.0  0.9154513915818684  0.26300635546413526  0.1859944431931169  1.0000
  C   C22       1.0  0.08455020278394428  0.7369948792340747  0.8140047566635501  1.0000
  C   C23       1.0  0.7714573073183572  0.36053659859440046  0.3144511855234882  1.0000
  C   C24       1.0  0.22854697679284178  0.6394630683908671  0.685549443152496  1.0000
  C   C25       1.0  0.9019500651377752  0.4185682471301602  0.2820374333771767  1.0000
  C   C26       1.0  0.09805739934196099  0.5814283170872441  0.7179602234712945  1.0000
  C   C27       1.0  0.5150662341167588  0.22567411714737062  0.7588185471624059  1.0000
  C   C28       1.0  0.48492919935656414  0.7743255770536592  0.24118073777606236  1.0000
  C   C29       1.0  0.11138775350682549  0.11347559020686045  0.4096267348550668  1.0000
  C   C30       1.0  0.8886130492603357  0.8865264268553333  0.5903717902728545  1.0000
  C   C31       1.0  0.3567546462432034  0.11430129913634349  0.3805796255150966  1.0000
  C   C32       1.0  0.6432466331731918  0.885699156182845  0.6194201697084694  1.0000
  C   C33       1.0  0.7209704091512491  0.2542389206874347  0.2794392912289183  1.0000
  C   C34       1.0  0.27903245520919023  0.7457599732397995  0.7205611446093202  1.0000
  C   C35       1.0  0.8891285046815083  0.9611992975274432  0.35258142570121714  1.0000
  C   C36       1.0  0.1108700849895001  0.03880272550468791  0.6474169407030247  1.0000
  C   C37       1.0  0.6652628738340668  0.19463867796681458  0.9269879019819954  1.0000
  C   C38       1.0  0.33473256138600493  0.8053610195702277  0.07301067411366799  1.0000
  C   C39       1.0  0.15096835765321256  0.9635832830332304  0.3129564393518364  1.0000
  C   C40       1.0  0.8490323023447813  0.0364156335439816  0.6870402935486766  1.0000
  C   C41       1.0  0.5093106653591661  0.19259700724774118  0.9226932305214319  1.0000
  C   C42       1.0  0.4906880877583859  0.8074026779983826  0.07730629250254849  1.0000
  C   C43       1.0  0.42944794049679996  0.18233839999033558  0.008619481256090487  1.0000
  C   C44       1.0  0.5705542767808963  0.8176643801218687  0.9913813632379984  1.0000
  C   C45       1.0  0.011426120171130087  0.16586845375293538  0.45486504793114346  1.0000
  C   C46       1.0  0.9885743693933475  0.8341327872662488  0.545133363720872  1.0000
  C   C47       1.0  0.761033423339363  0.16605029810271785  0.4978504243924675  1.0000
  C   C48       1.0  0.2389697524770185  0.8339493685315064  0.5021508337644889  1.0000
  C   C49       1.0  0.9803887439483958  0.313539786174445  0.542278068435337  1.0000
  C   C50       1.0  0.01961253896147496  0.686460675816761  0.457720309102612  1.0000
  C   C51       1.0  0.8534251729417478  0.11285158803971027  0.44992022321057595  1.0000
  C   C52       1.0  0.14657610647464742  0.8871488672794784  0.5500795720129901  1.0000
  C   C53       1.0  0.24572685597124894  0.0003148136184592001  0.9442566126820895  1.0000
  C   C54       1.0  0.7542808940468291  0.9996879515688946  0.05574462862119122  1.0000
  C   C55       1.0  0.3991260771920294  0.267453781155126  0.16485135003738088  1.0000
  C   C56       1.0  0.6008731353908628  0.7325497872909993  0.8351486610042969  1.0000
  C   C57       1.0  0.0491668071401179  0.011623255002163496  0.3570940472813788  1.0000
  C   C58       1.0  0.9508333727151593  0.9883772166460288  0.6429028332091137  1.0000
  C   C59       1.0  0.22250886234604642  0.4808841959002378  0.03549565178627029  1.0000
  C   C60       1.0  0.7774898890247711  0.5191154860098733  0.9645045800805221  1.0000
  C   C61       1.0  0.09843031572111019  0.4308008357296842  0.07817669361049438  1.0000
  C   C62       1.0  0.9015728635887542  0.5691988375765646  0.9218231468608381  1.0000
  C   C63       1.0  0.7953149540202844  0.009597139258652  0.3980982356057724  1.0000
  C   C64       1.0  0.2046871204882449  0.9904025403685707  0.6019008166609154  1.0000
  C   C65       1.0  0.30568540528093274  0.0149414930049687  0.3255011239506231  1.0000
  C   C66       1.0  0.6943108232845245  0.9850574255040951  0.6744974180309669  1.0000
  C   C67       1.0  0.30360091321642807  0.0981139660743011  0.015350194352542696  1.0000
  C   C68       1.0  0.6963987725222082  0.9018880339568012  0.9846525044703967  1.0000
  C   C69       1.0  0.2713932801700594  0.1862362163669218  0.1695129200558085  1.0000
  C   C70       1.0  0.728607661872786  0.8137688945082288  0.8304888149851307  1.0000
  C   C71       1.0  0.6698788898539406  0.22446422943932728  0.7706212794380107  1.0000
  C   C72       1.0  0.3301173369647826  0.7755346857337315  0.2293779713863913  1.0000
  C   C73       1.0  0.4768007084938546  0.2653616191544259  0.0851302866491181  1.0000
  C   C74       1.0  0.5231981908863472  0.7346411732486897  0.9148696109166536  1.0000
  C   C75       1.0  0.8239047963213791  0.2673292681791252  0.5424066204823248  1.0000
  C   C76       1.0  0.17609585319616622  0.7326696283820339  0.4575943654750461  1.0000
  N   N1        1.0  0.2633414377546329  0.16339656841628877  0.42027528895495453  1.0000
  N   N2        1.0  0.7366558991056492  0.8366023504438188  0.5797226235456634  1.0000
  N   N3        1.0  0.07291519967637328  0.26419856563768457  0.5018682665654879  1.0000
  N   N4        1.0  0.9270838683906105  0.7358018989874539  0.4981306610915937  1.0000
  N   N5        1.0  0.7905872173801781  0.20668703067740068  0.21660172557249524  1.0000
  N   N6        1.0  0.2094145439256677  0.7933118729068197  0.7833972132182865  1.0000
  N   N7        1.0  0.7448884520347788  0.20997532082244416  0.8527640106177047  1.0000
  N   N8        1.0  0.2551082531799124  0.7900220359436146  0.14723580145953716  1.0000
  O   O1        1.0  0.5661166503818009  0.3488154916512585  0.407202556387837  1.0000
  O   O2        1.0  0.4338849439840118  0.6511857430469448  0.592796643468823  1.0000
  O   O3        1.0  0.4046751100721053  0.5162011002944168  0.3950541844095738  1.0000
  O   O4        1.0  0.5953230166400871  0.48379703286569503  0.6049451116625946  1.0000
  O   O5        1.0  0.3282804284883482  0.2895538055272978  0.6689571967633867  1.0000
  O   O6        1.0  0.6717172198278759  0.7104458860397996  0.331041538055949  1.0000
  O   O7        1.0  0.5074862740488298  0.2426490214776038  0.5917428680263512  1.0000
  O   O8        1.0  0.49251452173136556  0.7573529822405547  0.4082584924728039  1.0000
  O   O9        1.0  0.7303933531838781  0.506562101136886  0.40967135521666614  1.0000
  O   O10       1.0  0.26960809317254325  0.4934360230683126  0.5903281789410144  1.0000
  O   O11       1.0  0.21991781064461688  0.36752143415408506  0.3583982173655116  1.0000
  O   O12       1.0  0.7800788998102988  0.6324759326200038  0.6415994681833012  1.0000
  O   O13       1.0  0.3320708079270814  0.9867900087012415  0.8755329202913416  1.0000
  O   O14       1.0  0.6679307742115482  0.0132112026448965  0.12447124146498109  1.0000
  O   O15       1.0  0.12669094313635298  0.934689594076822  0.9516500795471927  1.0000
  O   O16       1.0  0.8733024284601854  0.0653077449560726  0.04835516518700441  1.0000
