data_image0
_chemical_formula_structural       K2V2H18C14N6O16
_chemical_formula_sum              "K2 V2 H18 C14 N6 O16"
_cell_length_a       6.653090509540048
_cell_length_b       9.470782180657057
_cell_length_c       10.829354127525113
_cell_angle_alpha    115.2965121670267
_cell_angle_beta     90.82106463099993
_cell_angle_gamma    105.79406593779903

_space_group_name_H-M_alt    "P 1"
_space_group_IT_number       1

loop_
  _space_group_symop_operation_xyz
  'x, y, z'

loop_
  _atom_site_type_symbol
  _atom_site_label
  _atom_site_symmetry_multiplicity
  _atom_site_fract_x
  _atom_site_fract_y
  _atom_site_fract_z
  _atom_site_occupancy
  K   K1        1.0  0.3181133178017106  0.6118547335354949  0.4862184491022106  1.0000
  K   K2        1.0  0.6818873280029295  0.38814743295722554  0.5137807965150928  1.0000
  V   V1        1.0  0.2872948629424812  0.0539226262170871  0.20294495767051052  1.0000
  V   V2        1.0  0.7127062471313507  0.9460807404391717  0.7970593616689216  1.0000
  H   H1        1.0  0.6442679890898618  0.3931158420625991  0.03201655542383721  1.0000
  H   H2        1.0  0.3557391532083116  0.6068838195587817  0.9679873529875282  1.0000
  H   H3        1.0  0.705406786004758  0.5137381474533174  0.8634761785966205  1.0000
  H   H4        1.0  0.2945929584429337  0.4862504957018957  0.13651981270465546  1.0000
  H   H5        1.0  0.9767158213259818  0.7898529244103261  0.9411442395183658  1.0000
  H   H6        1.0  0.023281379903288275  0.210140638911362  0.0588535788187841  1.0000
  H   H7        1.0  0.5521386065586142  0.8961829154042179  0.2363788022467048  1.0000
  H   H8        1.0  0.447867005250238  0.10382415407342191  0.7636223395529954  1.0000
  H   H9        1.0  0.5922737109841378  0.9239549039670721  0.08561832907770406  1.0000
  H   H10       1.0  0.4077219387081358  0.07604604537019809  0.9143804079207315  1.0000
  H   H11       1.0  0.9833704774821116  0.21723285979923904  0.2588831579686826  1.0000
  H   H12       1.0  0.01662813526721847  0.7827717575745368  0.7411188368883758  1.0000
  H   H13       1.0  0.031814856910408196  0.16633533217458313  0.3874586467634913  1.0000
  H   H14       1.0  0.9681817634156076  0.8336680611711171  0.612542867133314  1.0000
  H   H15       1.0  0.6119357933966042  0.880681624539406  0.4344873577749341  1.0000
  H   H16       1.0  0.38806485766995275  0.11932054741348716  0.5655109665241369  1.0000
  H   H17       1.0  0.6075149951104564  0.7027744165784783  0.33399305994332457  1.0000
  H   H18       1.0  0.3924896302788952  0.2972301925102273  0.6660080689127241  1.0000
  C   C1        1.0  0.019868974110209964  0.7554272115578373  0.22910910576580798  1.0000
  C   C2        1.0  0.9801326920206463  0.24457001636404394  0.770891984259265  1.0000
  C   C3        1.0  0.8764650317387745  0.6008127239871399  0.19405730580297134  1.0000
  C   C4        1.0  0.12353363596494654  0.39918451626753176  0.8059428352452542  1.0000
  C   C5        1.0  0.7595398742719796  0.5128859285396744  0.06091618227985411  1.0000
  C   C6        1.0  0.2404637895441084  0.48711252887044765  0.9390844673872396  1.0000
  C   C7        1.0  0.7919827500249567  0.5791934385609566  0.9679577765356981  1.0000
  C   C8        1.0  0.20801947742484123  0.42079765608671243  0.03203916285677624  1.0000
  C   C9        1.0  0.942347296671052  0.7323449022166247  0.009263491169775888  1.0000
  C   C10       1.0  0.05764638018222707  0.2676511263427628  0.9907352199413494  1.0000
  C   C11       1.0  0.1429915458444525  0.8684676540103952  0.3710172892729063  1.0000
  C   C12       1.0  0.857006611696157  0.13153205552969643  0.628981929571431  1.0000
  C   C13       1.0  0.832379452507503  0.5291718963384326  0.29552407822026083  1.0000
  C   C14       1.0  0.1676187246174266  0.47082411645185124  0.7044755956970192  1.0000
  N   N1        1.0  0.052812542675127194  0.817798878446851  0.13696050826526118  1.0000
  N   N2        1.0  0.9471856397117264  0.18219713980360552  0.8630382443337794  1.0000
  N   N3        1.0  0.526722666016596  0.9535194764748028  0.1761572046842232  1.0000
  N   N4        1.0  0.47327944626249513  0.04648636695090861  0.8238443636441631  1.0000
  N   N5        1.0  0.08000981581449199  0.17410747756164824  0.29947428437728973  1.0000
  N   N6        1.0  0.9199892875136301  0.8258983672765084  0.7005281776107212  1.0000
  O   O1        1.0  0.2702148113206277  0.004189897193462902  0.38129890437760844  1.0000
  O   O2        1.0  0.7297783501076225  0.9958085951911785  0.6186998058478608  1.0000
  O   O3        1.0  0.11705779765787128  0.8297173229539611  0.46767719117600853  1.0000
  O   O4        1.0  0.8829428624691714  0.1702811413287861  0.53232343083247  1.0000
  O   O5        1.0  0.6706503726154976  0.5503589205649889  0.3531151914628978  1.0000
  O   O6        1.0  0.32935322572235753  0.44964690304389887  0.6468891546495003  1.0000
  O   O7        1.0  0.9477758477920732  0.44984773645722254  0.30982774557790554  1.0000
  O   O8        1.0  0.052224807073052694  0.550150722365352  0.6901737977488125  1.0000
  O   O9        1.0  0.25234644988861993  0.042022719422277505  0.04944876139074239  1.0000
  O   O10       1.0  0.7476452398032548  0.9579720905692071  0.9505485474418904  1.0000
  O   O11       1.0  0.5845211178757808  0.12441385121188381  0.2510573923818242  1.0000
  O   O12       1.0  0.4154820056690481  0.8755907613131271  0.7489437226449172  1.0000
  O   O13       1.0  0.29118208648532823  0.2702015925969334  0.3242180652156748  1.0000
  O   O14       1.0  0.7088190446361793  0.7298017959000093  0.6757825688508136  1.0000
  O   O15       1.0  0.5517162689067234  0.7931073953762893  0.3398708101831718  1.0000
  O   O16       1.0  0.44828689000817695  0.20689353677942526  0.6601279959618012  1.0000
