data_image0
_chemical_formula_structural       Cd4H8C24N8O16
_chemical_formula_sum              "Cd4 H8 C24 N8 O16"
_cell_length_a       5.488996582138954
_cell_length_b       10.660753012673585
_cell_length_c       11.830692588489347
_cell_angle_alpha    104.27360140902222
_cell_angle_beta     90.00035885709185
_cell_angle_gamma    90.00062988737541

_space_group_name_H-M_alt    "P 1"
_space_group_IT_number       1

loop_
  _space_group_symop_operation_xyz
  'x, y, z'

loop_
  _atom_site_type_symbol
  _atom_site_label
  _atom_site_symmetry_multiplicity
  _atom_site_fract_x
  _atom_site_fract_y
  _atom_site_fract_z
  _atom_site_occupancy
  Cd  Cd1       1.0  0.7567018909808068  0.2305597780596997  0.7649471259930394  1.0000
  Cd  Cd2       1.0  0.2567142769530619  0.7694418815282233  0.7350488439793708  1.0000
  Cd  Cd3       1.0  0.24327462959283955  0.7694519870798331  0.23504876903946584  1.0000
  Cd  Cd4       1.0  0.7433168981899669  0.2305495269180184  0.2649448669789578  1.0000
  H   H1        1.0  0.12783263649599513  0.6013578531937895  0.9519780082581875  1.0000
  H   H2        1.0  0.6278679399718498  0.3986332246808501  0.5480160211064913  1.0000
  H   H3        1.0  0.8721329529509629  0.3986314688782144  0.04802705320721404  1.0000
  H   H4        1.0  0.372163235401544  0.6013745833068356  0.4519857189465313  1.0000
  H   H5        1.0  0.18567959085368804  0.2139977097707373  0.5542356998261866  1.0000
  H   H6        1.0  0.6856468547152089  0.7859996185901819  0.9457565466972823  1.0000
  H   H7        1.0  0.8143534064112001  0.78601492667552  0.44576800510832737  1.0000
  H   H8        1.0  0.3143770328249217  0.21397352984296697  0.0542227865938116  1.0000
  C   C1        1.0  0.2698641519444677  0.3806506020279201  0.7824772962534823  1.0000
  C   C2        1.0  0.7698846976482085  0.6193453417200631  0.7175173823538827  1.0000
  C   C3        1.0  0.7301050812258579  0.6193455164318848  0.21752765046326772  1.0000
  C   C4        1.0  0.23016651765397705  0.3806469379067039  0.2824841384302132  1.0000
  C   C5        1.0  0.38893661106194327  0.4444655207402591  0.8979844987052559  1.0000
  C   C6        1.0  0.8889468375859478  0.5555301939360149  0.6020171963768846  1.0000
  C   C7        1.0  0.6110271565863808  0.5555296835988982  0.10201600949272206  1.0000
  C   C8        1.0  0.11105518848757612  0.4444658816467637  0.3979911216849885  1.0000
  C   C9        1.0  0.29323777760703956  0.5556046276210297  0.9737313775324736  1.0000
  C   C10       1.0  0.7932755391010955  0.4443874777581059  0.5262726151194173  1.0000
  C   C11       1.0  0.706711415335185  0.44438085527721705  0.026270257794401265  1.0000
  C   C12       1.0  0.20674106173288453  0.5556192118719993  0.4737406999591371  1.0000
  C   C13       1.0  0.5954112371155842  0.9516895796673593  0.636076437715289  1.0000
  C   C14       1.0  0.09540134141757754  0.04831276933141742  0.8639294198121094  1.0000
  C   C15       1.0  0.40464544387485546  0.04832803578030111  0.36391743267871846  1.0000
  C   C16       1.0  0.9046225463569967  0.9516668852903224  0.13607255483906044  1.0000
  C   C17       1.0  0.8081711727481817  0.9776492907357551  0.5634963859135667  1.0000
  C   C18       1.0  0.3081800202978329  0.0223622962780965  0.9365104717746604  1.0000
  C   C19       1.0  0.19181992236571688  0.0223467848091659  0.4365119321254269  1.0000
  C   C20       1.0  0.6918238277215067  0.9776543296513016  0.06348485973533267  1.0000
  C   C21       1.0  0.09974102953687237  0.11921774103941371  0.5286107265083473  1.0000
  C   C22       1.0  0.5997142945261371  0.8807982628857546  0.97139239113541  1.0000
  C   C23       1.0  0.9002664623952725  0.8808033694300194  0.4714135400989221  1.0000
  C   C24       1.0  0.4002531168422933  0.11921165252348231  0.028596312501612403  1.0000
  N   N1        1.0  0.5946186518172779  0.3904729896881491  0.9256094182279924  1.0000
  N   N2        1.0  0.09462169042951978  0.6095302142288548  0.5744050886122096  1.0000
  N   N3        1.0  0.4053414722386819  0.6095221071618724  0.0743995181536051  1.0000
  N   N4        1.0  0.9053694048097112  0.3904715716270957  0.4256121612691643  1.0000
  N   N5        1.0  0.9090312344310617  0.09594925553295752  0.5906267231583087  1.0000
  N   N6        1.0  0.4089797669623748  0.9040525771223997  0.9093629172612125  1.0000
  N   N7        1.0  0.09099629702387799  0.904038260045432  0.4093677757838066  1.0000
  N   N8        1.0  0.5909603167668749  0.0959498534159735  0.0906037633659551  1.0000
  O   O1        1.0  0.40516811534870806  0.3141834986770747  0.7032913349399122  1.0000
  O   O2        1.0  0.9051693525458473  0.6858239639747339  0.7967114353595548  1.0000
  O   O3        1.0  0.5947956525101005  0.6858320947876209  0.2967088289892388  1.0000
  O   O4        1.0  0.0948508917827695  0.3141691651605782  0.2032995807818097  1.0000
  O   O5        1.0  0.04281185520856919  0.3986108180653217  0.7747800074523071  1.0000
  O   O6        1.0  0.5428376043771408  0.6013873490924482  0.7252205182625318  1.0000
  O   O7        1.0  0.9571555561517756  0.601389225486365  0.22522162281185132  1.0000
  O   O8        1.0  0.4572300076978734  0.39862213675775854  0.2748018983491463  1.0000
  O   O9        1.0  0.514937720782278  0.04374653125250919  0.7156120710566114  1.0000
  O   O10       1.0  0.014931051881980297  0.9562681969297487  0.7843685539921026  1.0000
  O   O11       1.0  0.48505883955996143  0.9562401023598426  0.2843754608559835  1.0000
  O   O12       1.0  0.9850600431645516  0.0437438154562528  0.2156079562310396  1.0000
  O   O13       1.0  0.5139614263962075  0.8361944094111281  0.6085831856002174  1.0000
  O   O14       1.0  0.013919733284509997  0.163792911433525  0.8914147506966971  1.0000
  O   O15       1.0  0.4860715710824194  0.16383070147838202  0.3914318648777737  1.0000
  O   O16       1.0  0.9860476774114914  0.8361667837731372  0.10855385534014064  1.0000
