data_image0
_chemical_formula_structural       Fe8H144C192N32O16
_chemical_formula_sum              "Fe8 H144 C192 N32 O16"
_cell_length_a       19.25729118651537
_cell_length_b       19.257250429766064
_cell_length_c       19.34236160277462
_cell_angle_alpha    60.14552180365869
_cell_angle_beta     60.14522752336507
_cell_angle_gamma    89.99553153424999

_space_group_name_H-M_alt    "P 1"
_space_group_IT_number       1

loop_
  _space_group_symop_operation_xyz
  'x, y, z'

loop_
  _atom_site_type_symbol
  _atom_site_label
  _atom_site_symmetry_multiplicity
  _atom_site_fract_x
  _atom_site_fract_y
  _atom_site_fract_z
  _atom_site_occupancy
  Fe  Fe1       1.0  0.2797294107898267  0.2796058942553899  0.44061765784358903  1.0000
  Fe  Fe2       1.0  0.7202387353670335  0.7203165013133983  0.5594395613600865  1.0000
  Fe  Fe3       1.0  0.970320018160173  0.47022358962794886  0.05943912286513629  1.0000
  Fe  Fe4       1.0  0.5296061461444949  0.029736730118578553  0.9406033055796569  1.0000
  Fe  Fe5       1.0  0.6249867601625922  0.07907297237631632  0.25003008009223754  1.0000
  Fe  Fe6       1.0  0.12504467384341925  0.6710243974017303  0.249891243865676  1.0000
  Fe  Fe7       1.0  0.9210482832768537  0.8750441769797065  0.7498824503405715  1.0000
  Fe  Fe8       1.0  0.3291014445806227  0.3750051700483752  0.750002664459913  1.0000
  H   H1        1.0  0.8921857430030541  0.15151001675130982  0.9992356847651678  1.0000
  H   H2        1.0  0.9471892440394072  0.27673918364819605  0.8315181416070062  1.0000
  H   H3        1.0  0.8663761166131965  0.37827718248996695  0.8078568307243258  1.0000
  H   H4        1.0  0.7312411811054816  0.3528757755899009  0.949726406777877  1.0000
  H   H5        1.0  0.679225321602985  0.34591656308810315  0.08334664808018023  1.0000
  H   H6        1.0  0.5934603296652627  0.4084503856077434  0.15183849422640355  1.0000
  H   H7        1.0  0.4499342156232872  0.40443437486740663  0.2656438490087325  1.0000
  H   H8        1.0  0.34068302975311593  0.1545854967754679  0.3822545041634909  1.0000
  H   H9        1.0  0.4791403077833182  0.1459142976422712  0.2765251694680229  1.0000
  H   H10       1.0  0.09181617804721044  0.1539873473177025  0.42277746469967065  1.0000
  H   H11       1.0  0.9440671998337676  0.158029111334393  0.4978876810835828  1.0000
  H   H12       1.0  0.8922344125372634  0.21562901145683386  0.5981314313568615  1.0000
  H   H13       1.0  0.9900857299405391  0.27367760488066034  0.6192314736541745  1.0000
  H   H14       1.0  0.09941853332761506  0.3620527143495949  0.5697605388867686  1.0000
  H   H15       1.0  0.1866413893415882  0.4662267788816122  0.5651859799446652  1.0000
  H   H16       1.0  0.27021676270992867  0.48346304897192743  0.6248009349236057  1.0000
  H   H17       1.0  0.294106942793519  0.2457385425427532  0.7108507886777602  1.0000
  H   H18       1.0  0.21206029558113224  0.21824677198415537  0.6551744133368159  1.0000
  H   H19       1.0  0.10851124439972906  0.8492098583124061  0.9991539946779895  1.0000
  H   H20       1.0  0.22135989521272154  0.8916167931866925  0.8315139706276752  1.0000
  H   H21       1.0  0.3258078949204021  0.8137055119872798  0.8080601189295535  1.0000
  H   H22       1.0  0.3188981750962083  0.6972445724739417  0.9500701447349158  1.0000
  H   H23       1.0  0.23713596994067382  0.5706240543862648  0.08376171487145011  1.0000
  H   H24       1.0  0.2543816705344284  0.43975256893718745  0.15203864020734414  1.0000
  H   H25       1.0  0.2843652559896271  0.32993473667254153  0.2655050593267986  1.0000
  H   H26       1.0  0.277277687665105  0.4628828580114543  0.38234640435607053  1.0000
  H   H27       1.0  0.24421435705362166  0.5772795839599636  0.2770360489715814  1.0000
  H   H28       1.0  0.485340804979977  0.42310886837786654  0.42292052344777886  1.0000
  H   H29       1.0  0.5579802871278547  0.3439475239879286  0.49803419696815615  1.0000
  H   H30       1.0  0.5095304849262733  0.18609702849308735  0.59824747024291  1.0000
  H   H31       1.0  0.39055898266772  0.10699920180551452  0.6193485688025148  1.0000
  H   H32       1.0  0.3308799129034057  0.06814075123826772  0.5697999649620584  1.0000
  H   H33       1.0  0.2483061984710062  0.9685040451421116  0.5651628079684273  1.0000
  H   H34       1.0  0.10511277656201667  0.8916188795218927  0.6248120769922636  1.0000
  H   H35       1.0  0.9951372080853819  0.043437261349367935  0.7105851534921185  1.0000
  H   H36       1.0  0.13288846956886863  0.12663470771135388  0.6548312363256911  1.0000
  H   H37       1.0  0.8486361258722821  0.8916321040620615  0.0005372056435178156  1.0000
  H   H38       1.0  0.7235713613833283  0.7787815570753195  0.16829111508844366  1.0000
  H   H39       1.0  0.622095063611745  0.6742234214309804  0.19201905590085744  1.0000
  H   H40       1.0  0.6473504844792117  0.6810254345120298  0.05018096838236385  1.0000
  H   H41       1.0  0.654192328264223  0.7625933731894675  0.9165711244773432  1.0000
  H   H42       1.0  0.5916038941374567  0.7452779669111107  0.8482130919976572  1.0000
  H   H43       1.0  0.5954929014462568  0.7155547904277597  0.73447200117009  1.0000
  H   H44       1.0  0.8453022189206222  0.7228265510044594  0.617709013445051  1.0000
  H   H45       1.0  0.85416870515882  0.7556174907527904  0.7232982041784695  1.0000
  H   H46       1.0  0.845930958036881  0.5145797288653001  0.5774012067961679  1.0000
  H   H47       1.0  0.8417689953614698  0.4418043509221975  0.5024527785951278  1.0000
  H   H48       1.0  0.7842940669044937  0.4903024426633279  0.4020729474373682  1.0000
  H   H49       1.0  0.7264197822833298  0.6094063404755445  0.3807229086245627  1.0000
  H   H50       1.0  0.6380171633944374  0.6692345183842222  0.43018091215620996  1.0000
  H   H51       1.0  0.5337158926177564  0.7517866950928962  0.43494633036847585  1.0000
  H   H52       1.0  0.5164201339228002  0.8949654251749309  0.37529696814297603  1.0000
  H   H53       1.0  0.7540555837947025  0.004949649193271538  0.28940202008541854  1.0000
  H   H54       1.0  0.7815843848410964  0.8672415506158516  0.3450880237528793  1.0000
  H   H55       1.0  0.1508496878341106  0.10780321636659101  0.0006532900226830103  1.0000
  H   H56       1.0  0.10830920990717635  0.05293344963789789  0.16836999920375456  1.0000
  H   H57       1.0  0.18605434658576323  0.1338792084410514  0.1920031280134963  1.0000
  H   H58       1.0  0.3025476421242743  0.26898387404516905  0.050095538228418904  1.0000
  H   H59       1.0  0.42928908110079805  0.3208805208727129  0.9164437068386063  1.0000
  H   H60       1.0  0.5602488022614697  0.40645500690286696  0.8480864174099806  1.0000
  H   H61       1.0  0.6701183997095866  0.5499019994589602  0.7344407418600057  1.0000
  H   H62       1.0  0.5370597096092523  0.6595400402318319  0.6176905877178386  1.0000
  H   H63       1.0  0.42265738969475564  0.5211556526895719  0.7231285667238936  1.0000
  H   H64       1.0  0.5768441086659166  0.9084777859703764  0.5770614480576198  1.0000
  H   H65       1.0  0.6561814240417547  0.05623563803759163  0.5016996038031606  1.0000
  H   H66       1.0  0.8140296232721272  0.10784013018651012  0.4015099785324167  1.0000
  H   H67       1.0  0.8929806961779152  0.009800165527693337  0.3805888964844184  1.0000
  H   H68       1.0  0.9317257585697333  0.900552681082104  0.4302386053595626  1.0000
  H   H69       1.0  0.031380574616228854  0.8134227411592219  0.43477732994776375  1.0000
  H   H70       1.0  0.10834136480185218  0.7299129406704453  0.3751106243935496  1.0000
  H   H71       1.0  0.9565416077949394  0.7056877019366609  0.2893325115983886  1.0000
  H   H72       1.0  0.873290425105175  0.7876952548199866  0.34503339339438105  1.0000
  H   H73       1.0  0.3577840608314277  0.9008545345283282  0.5006779370324139  1.0000
  H   H74       1.0  0.3029228932698089  0.8583164781817132  0.6683873157305271  1.0000
  H   H75       1.0  0.38386534080643026  0.9360599277042567  0.6920233287932761  1.0000
  H   H76       1.0  0.5189633000997134  0.052552108692949955  0.5501063091670844  1.0000
  H   H77       1.0  0.5708823826655945  0.17928557032249173  0.41644702752743956  1.0000
  H   H78       1.0  0.656464313616091  0.31025345031203233  0.3480851418252442  1.0000
  H   H79       1.0  0.7999156421301095  0.42010665933408115  0.23443918693325833  1.0000
  H   H80       1.0  0.9095330414641861  0.2870476086907273  0.11768597415837705  1.0000
  H   H81       1.0  0.7711429831191268  0.1726503959612132  0.22312812103125165  1.0000
  H   H82       1.0  0.15850094128936112  0.3268517621227431  0.07704123905705988  1.0000
  H   H83       1.0  0.3062538389910756  0.4061922815159988  0.0016909933975739764  1.0000
  H   H84       1.0  0.35785620547117963  0.5640419704634781  0.9015099936002783  1.0000
  H   H85       1.0  0.2598088367990813  0.6429812191482611  0.8805910823261767  1.0000
  H   H86       1.0  0.15057154658990168  0.681728081602891  0.9302235385520774  1.0000
  H   H87       1.0  0.0634258690467676  0.781371204596418  0.934779052251514  1.0000
  H   H88       1.0  0.979916211581042  0.8583335519649753  0.8751194794259972  1.0000
  H   H89       1.0  0.9557033932226562  0.7065448911589769  0.7893247250354632  1.0000
  H   H90       1.0  0.037704703003477356  0.6232930019755544  0.8450281633159236  1.0000
  H   H91       1.0  0.14161564250714778  0.5986121689625108  0.5005598194581254  1.0000
  H   H92       1.0  0.028766403160695137  0.4735406095721188  0.6683090389968245  1.0000
  H   H93       1.0  0.9242045511932137  0.37207221259879486  0.6920270716050251  1.0000
  H   H94       1.0  0.9310039049192015  0.3973345164175158  0.5501836418371796  1.0000
  H   H95       1.0  0.012581537283679655  0.4041797287415676  0.4165719336719037  1.0000
  H   H96       1.0  0.9952959346335748  0.34161888489970227  0.34819134340325075  1.0000
  H   H97       1.0  0.9655779819740292  0.34549889552831564  0.23445062096207173  1.0000
  H   H98       1.0  0.9728254726690226  0.5953039059849132  0.11769508324150017  1.0000
  H   H99       1.0  0.005614431341193382  0.6041691297426439  0.2232838104089084  1.0000
  H   H100      1.0  0.7645914665237257  0.5959301216312483  0.07738363808785921  1.0000
  H   H101      1.0  0.691812146796103  0.5917716533201087  0.0024384606432404504  1.0000
  H   H102      1.0  0.7403072505249283  0.5342887627231576  0.9020625766356859  1.0000
  H   H103      1.0  0.859405346393828  0.4764150189675717  0.8807189484492427  1.0000
  H   H104      1.0  0.9192511437192578  0.38801809721295644  0.9301566687655691  1.0000
  H   H105      1.0  0.0018045179700081821  0.28372717056844005  0.9348974789187847  1.0000
  H   H106      1.0  0.14499740883080378  0.2664617744349655  0.8752224203982025  1.0000
  H   H107      1.0  0.25496010772074146  0.5040787193374784  0.7893766334464016  1.0000
  H   H108      1.0  0.11724314479646124  0.531591768563942  0.8450789336364651  1.0000
  H   H109      1.0  0.4015184911178835  0.6422114537719708  0.49922131033062567  1.0000
  H   H110      1.0  0.5267551973531256  0.6972075239126099  0.33150370786835726  1.0000
  H   H111      1.0  0.6282808097678938  0.6163776168726613  0.3078571393587594  1.0000
  H   H112      1.0  0.6028805023718534  0.4812425264266694  0.4497253598947068  1.0000
  H   H113      1.0  0.5959353818952594  0.42924379352206204  0.5833314356722069  1.0000
  H   H114      1.0  0.6584525732999256  0.34346815091604543  0.6518368510817325  1.0000
  H   H115      1.0  0.6544301335533832  0.19993860083572915  0.7656430653890565  1.0000
  H   H116      1.0  0.40457755978332  0.09070043763935597  0.8822497859050598  1.0000
  H   H117      1.0  0.3959180704677011  0.22915540388833472  0.7765150999971694  1.0000
  H   H118      1.0  0.40397934982497935  0.8418203009538416  0.9227668131564639  1.0000
  H   H119      1.0  0.4080069976440301  0.6940657997149985  0.9978862020716122  1.0000
  H   H120      1.0  0.4656086264626894  0.6422251456440619  0.09812929898447463  1.0000
  H   H121      1.0  0.5236763279078289  0.7400856923930091  0.119210292077817  1.0000
  H   H122      1.0  0.6120575515716382  0.8494074735462076  0.06974027938953517  1.0000
  H   H123      1.0  0.7162215046838085  0.9366305362565868  0.06518369782419614  1.0000
  H   H124      1.0  0.733440730955252  0.020182740373393078  0.12483073142386295  1.0000
  H   H125      1.0  0.4957162613890774  0.04407013304710007  0.21087749988466703  1.0000
  H   H126      1.0  0.46825097411499444  0.962050433545592  0.15516375088857612  1.0000
  H   H127      1.0  0.09921351473712998  0.8585244343663448  0.4991279869967898  1.0000
  H   H128      1.0  0.14161644759546727  0.971364695801924  0.33149347024688325  1.0000
  H   H129      1.0  0.06371003359987534  0.07581476458138776  0.30804492742513634  1.0000
  H   H130      1.0  0.9472630042085581  0.06891135644679736  0.4500559355128216  1.0000
  H   H131      1.0  0.8206394825690854  0.987161667736672  0.5837557610973577  1.0000
  H   H132      1.0  0.6897645942895139  0.004388526751050265  0.65203426118606  1.0000
  H   H133      1.0  0.5799391860380255  0.0343665375019881  0.7655022853952501  1.0000
  H   H134      1.0  0.7128681433875386  0.027283030884248584  0.8823506638890491  1.0000
  H   H135      1.0  0.8272760082587426  0.9942245592284706  0.7770416849421551  1.0000
  H   H136      1.0  0.6730971968526802  0.2353181415973539  0.9229440939394634  1.0000
  H   H137      1.0  0.5939388917504757  0.3079740342904316  0.9980402245871717  1.0000
  H   H138      1.0  0.4360889790341532  0.25954515500145453  0.09823040159298557  1.0000
  H   H139      1.0  0.3569949447916018  0.14057117014510107  0.11933623996819158  1.0000
  H   H140      1.0  0.31811514344319397  0.08085691562049394  0.06983143926940727  1.0000
  H   H141      1.0  0.21848891420480496  0.9982930230626155  0.06517408486626407  1.0000
  H   H142      1.0  0.14161620924016202  0.8550927393118712  0.12482043735005294  1.0000
  H   H143      1.0  0.2934355272195789  0.7451276033990907  0.21059402102684294  1.0000
  H   H144      1.0  0.37663441735142583  0.8828770431508133  0.15484052232237386  1.0000
  C   C1        1.0  0.7819018408870662  0.18218757702464222  0.06976736102481601  1.0000
  C   C2        1.0  0.8580889132289757  0.19669735540766442  0.9875828271029404  1.0000
  C   C3        1.0  0.8883227714261822  0.266700300555975  0.8942700195412172  1.0000
  C   C4        1.0  0.8435485020279289  0.32393073842003167  0.8805249752635402  1.0000
  C   C5        1.0  0.7677831057497715  0.3102579000175113  0.9606017892574029  1.0000
  C   C6        1.0  0.7360592384631205  0.23995399584344324  0.054815458785064636  1.0000
  C   C7        1.0  0.6326774843310758  0.28146136530148164  0.13893565172392644  1.0000
  C   C8        1.0  0.5490462734230661  0.2765468844842474  0.20594914480838614  1.0000
  C   C9        1.0  0.5390054202254009  0.3505433934142843  0.20259243415212308  1.0000
  C   C10       1.0  0.4598039086328498  0.34919008504525806  0.2645461413705235  1.0000
  C   C11       1.0  0.3988080170813007  0.20891948179282593  0.330704668818157  1.0000
  C   C12       1.0  0.4758240227832928  0.20454616003785023  0.2715385979404061  1.0000
  C   C13       1.0  0.12684023246855258  0.21468681828287833  0.47447264842461573  1.0000
  C   C14       1.0  0.06993241084812507  0.18231879530691222  0.4633965856455261  1.0000
  C   C15       1.0  0.987523408690116  0.18466925198018205  0.5057388464271922  1.0000
  C   C16       1.0  0.9581421082399896  0.21785435340622405  0.5616504614863163  1.0000
  C   C17       1.0  0.012955975227903609  0.2504952752041518  0.5732698138886647  1.0000
  C   C18       1.0  0.09722751570873095  0.2509563520942565  0.5289682952450931  1.0000
  C   C19       1.0  0.14473874073700452  0.32753726443375103  0.5706408890450091  1.0000
  C   C20       1.0  0.1927824427713389  0.3404158151223058  0.6042911744936248  1.0000
  C   C21       1.0  0.20937819452642256  0.4157895207681861  0.5969911509411646  1.0000
  C   C22       1.0  0.25624233183963  0.42606327711751385  0.6290907459509897  1.0000
  C   C23       1.0  0.2698286284812994  0.29322350871687075  0.6773547293242571  1.0000
  C   C24       1.0  0.22350045611818828  0.27797278156312194  0.6471153735390799  1.0000
  C   C25       1.0  0.14819553715532413  0.7480153088296575  0.06983622575884856  1.0000
  C   C26       1.0  0.15426032622614386  0.8156580128483027  0.9875791375607862  1.0000
  C   C27       1.0  0.21740201820939847  0.8389117957394633  0.8943229607090898  1.0000
  C   C28       1.0  0.27592063604792844  0.7954153764948091  0.8806905893573782  1.0000
  C   C29       1.0  0.271510146400935  0.729016317245147  0.960847091674225  1.0000
  C   C30       1.0  0.20895337065929454  0.705135097045506  0.055029440783719984  1.0000
  C   C31       1.0  0.22813947188952002  0.5795140326011747  0.13933698865054112  1.0000
  C   C32       1.0  0.24479110557651743  0.51740572752432  0.20631159745700245  1.0000
  C   C33       1.0  0.2581763504085686  0.446817942849485  0.20280548859602737  1.0000
  C   C34       1.0  0.27558327128706844  0.3862101758169061  0.264549262717523  1.0000
  C   C35       1.0  0.27058523728337747  0.46016755746254734  0.33083335366552563  1.0000
  C   C36       1.0  0.25255840003872265  0.5237097012355036  0.2718898135264709  1.0000
  C   C37       1.0  0.3986433238599362  0.310732743133471  0.4745546250326171  1.0000
  C   C38       1.0  0.4665977959394426  0.3541551702148737  0.46351799323774395  1.0000
  C   C39       1.0  0.5066623716346187  0.3094609619420653  0.5058717475745522  1.0000
  C   C40       1.0  0.4801265134290064  0.22037372285140575  0.56174177919803  1.0000
  C   C41       1.0  0.41367998837521486  0.1761333608434441  0.5733647313855313  1.0000
  C   C42       1.0  0.3737386462057585  0.21996920324675537  0.5290546436468943  1.0000
  C   C43       1.0  0.28466770415739984  0.1017482556448641  0.5706101647277321  1.0000
  C   C44       1.0  0.20300259342057822  0.05523564385223523  0.6041950874102751  1.0000
  C   C45       1.0  0.19373994700293898  0.9871315849446775  0.5969353544948678  1.0000
  C   C46       1.0  0.11477521345838683  0.9447652624288382  0.6290426220633593  1.0000
  C   C47       1.0  0.05289985965076485  0.029403356335706093  0.6771654402593654  1.0000
  C   C48       1.0  0.12946981836606145  0.07489256271429669  0.6469100267329395  1.0000
  C   C49       1.0  0.8179293806237811  0.8518042886614766  0.930074130346732  1.0000
  C   C50       1.0  0.8034651271173487  0.8458154600491241  0.012244147865388301  1.0000
  C   C51       1.0  0.7335403425351003  0.7826739253478011  0.10556277717380885  1.0000
  C   C52       1.0  0.6763498235549861  0.7240983886751805  0.1193402881072033  1.0000
  C   C53       1.0  0.6899430159412816  0.7284680896841349  0.03926981142083723  1.0000
  C   C54       1.0  0.760175070618594  0.7909981129417075  0.9450300232203828  1.0000
  C   C55       1.0  0.7186634884455145  0.77162376435777  0.860977007763708  1.0000
  C   C56       1.0  0.723543441198011  0.7549498888852428  0.7940048053953886  1.0000
  C   C57       1.0  0.6495008570448348  0.7415740766914213  0.7974289170114942  1.0000
  C   C58       1.0  0.6507691420889614  0.7243240276826838  0.7355169696530696  1.0000
  C   C59       1.0  0.7910227638937145  0.7294197076105675  0.6692803717548231  1.0000
  C   C60       1.0  0.7954923276490717  0.7472907382168544  0.7283833535257854  1.0000
  C   C61       1.0  0.785298509393158  0.6013525409772172  0.5255787149106295  1.0000
  C   C62       1.0  0.8176093001578619  0.533316643758013  0.5367636422515434  1.0000
  C   C63       1.0  0.8152345910875025  0.49321497214123866  0.49445862640553173  1.0000
  C   C64       1.0  0.7820902910602289  0.519767711735753  0.438506141001177  1.0000
  C   C65       1.0  0.749513691334741  0.5862597297774811  0.42677448562761794  1.0000
  C   C66       1.0  0.7490547868086851  0.6262494900086821  0.47104436359811785  1.0000
  C   C67       1.0  0.672437676899179  0.7154110753222015  0.42940727609631313  1.0000
  C   C68       1.0  0.659520232681743  0.7970892161878139  0.3958056319135538  1.0000
  C   C69       1.0  0.5841276387876918  0.8063626363493626  0.4031259864698526  1.0000
  C   C70       1.0  0.573825970440396  0.8853155728632984  0.3710223511428056  1.0000
  C   C71       1.0  0.7066096240717951  0.947187715011296  0.3228352543860566  1.0000
  C   C72       1.0  0.7218944921992263  0.8706357477665917  0.35304290903587804  1.0000
  C   C73       1.0  0.2520098484653773  0.2181247123157275  0.9301010676872039  1.0000
  C   C74       1.0  0.1843349464886259  0.1419464650031514  0.012311762832204916  1.0000
  C   C75       1.0  0.16100118148575862  0.1118108261613884  0.10560675264282791  1.0000
  C   C76       1.0  0.20444410560863702  0.1566639165859273  0.11932328890834037  1.0000
  C   C77       1.0  0.2708665474075148  0.23239645955383995  0.039215713087692304  1.0000
  C   C78       1.0  0.29481125217866844  0.2640449884109513  0.9449981486284713  1.0000
  C   C79       1.0  0.4204313613032298  0.3674429801477219  0.8608432837426107  1.0000
  C   C80       1.0  0.48255450143333434  0.4510590805761937  0.7938504364580083  1.0000
  C   C81       1.0  0.553171969576198  0.4609781544425717  0.797298591091632  1.0000
  C   C82       1.0  0.6137939930732301  0.5401336555135359  0.7354736316726546  1.0000
  C   C83       1.0  0.539792943723349  0.6013495109960801  0.6692229525114965  1.0000
  C   C84       1.0  0.4762372027558541  0.5243744668131072  0.7282547131252529  1.0000
  C   C85       1.0  0.6891527287410639  0.873239302162183  0.5255203210809469  1.0000
  C   C86       1.0  0.6458020083696141  0.9302579560350921  0.5364634990006182  1.0000
  C   C87       1.0  0.6906002204855001  0.012678794701237395  0.4939614719088112  1.0000
  C   C88       1.0  0.779690607264925  0.04194512662588319  0.43807407459388503  1.0000
  C   C89       1.0  0.8238474810356211  0.9870251061116021  0.42658126737669716  1.0000
  C   C90       1.0  0.7799165984630252  0.90277532900177  0.47098755134978626  1.0000
  C   C91       1.0  0.8980922510071141  0.8551730104270663  0.4294312124950179  1.0000
  C   C92       1.0  0.9446305135705944  0.8071351285833828  0.39577873311371536  1.0000
  C   C93       1.0  0.012748448504076644  0.7906106407568245  0.4030278936302736  1.0000
  C   C94       1.0  0.05516599388430885  0.7437835127141668  0.3709033771132938  1.0000
  C   C95       1.0  0.9705424029185395  0.730059885165275  0.3227463854983837  1.0000
  C   C96       1.0  0.9250227144435216  0.7763755039805531  0.35299200088173405  1.0000
  C   C97       1.0  0.468113074555042  0.002010178351348116  0.4301112149721718  1.0000
  C   C98       1.0  0.3919377770857866  0.9343480405135977  0.5123165858196754  1.0000
  C   C99       1.0  0.3617927362344203  0.9110169624027549  0.6056172220731711  1.0000
  C   C100      1.0  0.40664850195570784  0.9544471367723304  0.6193385865037727  1.0000
  C   C101      1.0  0.48239216892746134  0.020870788968821295  0.5392144214348633  1.0000
  C   C102      1.0  0.5140313741116531  0.044814139373521286  0.4450029936076305  1.0000
  C   C103      1.0  0.617438263832824  0.17043113214199218  0.3608403663860357  1.0000
  C   C104      1.0  0.7010498832307591  0.2325458954559778  0.29385330754936945  1.0000
  C   C105      1.0  0.7109777080767403  0.3031590376238071  0.2973061742084581  1.0000
  C   C106      1.0  0.7901407418415617  0.3637832797402894  0.23547331964442  1.0000
  C   C107      1.0  0.8513452256033675  0.2897758866712864  0.16921978143290045  1.0000
  C   C108      1.0  0.774366337275417  0.226229744689448  0.2282519128629231  1.0000
  C   C109      1.0  0.12325823752142638  0.43915651640145376  0.025503591298019053  1.0000
  C   C110      1.0  0.18027527935498006  0.3958070192053782  0.03645039307364328  1.0000
  C   C111      1.0  0.26269013391589624  0.4406024991507137  0.9939629803157358  1.0000
  C   C112      1.0  0.2919591229137025  0.5296965652224659  0.9380790569447086  1.0000
  C   C113      1.0  0.2370416926046418  0.5738499910723008  0.9265726064044271  1.0000
  C   C114      1.0  0.15279044775677167  0.5299178022464232  0.9709750502806144  1.0000
  C   C115      1.0  0.10518346831024429  0.648090339310734  0.9294278744133138  1.0000
  C   C116      1.0  0.05714507566637638  0.6946345033506063  0.8957709216601517  1.0000
  C   C117      1.0  0.040618081872871394  0.7627510033228546  0.9030166826651396  1.0000
  C   C118      1.0  0.9937867755168174  0.8051678286244978  0.8708951336639145  1.0000
  C   C119      1.0  0.9800695799127586  0.7205464733979026  0.8227395168781795  1.0000
  C   C120      1.0  0.026381748324787808  0.6750264412681444  0.8529863588099288  1.0000
  C   C121      1.0  0.10178701641684998  0.5679094508336464  0.43010381007680815  1.0000
  C   C122      1.0  0.09579256294788513  0.5534379732473057  0.512276762384296  1.0000
  C   C123      1.0  0.03265057743109176  0.4835121778243873  0.6055852508149114  1.0000
  C   C124      1.0  0.9740788744513793  0.4263276395298944  0.6193525258748449  1.0000
  C   C125      1.0  0.9784426244979441  0.43991763338283335  0.5392879931981726  1.0000
  C   C126      1.0  0.04098034034940671  0.5101589217278216  0.4450490531033112  1.0000
  C   C127      1.0  0.021613355465255734  0.46865909971101877  0.36097408815124515  1.0000
  C   C128      1.0  0.00495400058146345  0.47354676413994656  0.2939890265550317  1.0000
  C   C129      1.0  0.9915832531828672  0.3995061175436448  0.29741086723964805  1.0000
  C   C130      1.0  0.9743401582025726  0.40077497735939016  0.23549444544836706  1.0000
  C   C131      1.0  0.9794216901683089  0.5410249096963472  0.16926390272959657  1.0000
  C   C132      1.0  0.9972913524002396  0.5454974614928716  0.228364559771137  1.0000
  C   C133      1.0  0.8513585745120553  0.5352907766841142  0.025567098517086575  1.0000
  C   C134      1.0  0.7833251179661002  0.5676037715537773  0.036750582381003524  1.0000
  C   C135      1.0  0.7432150810463369  0.5652268883345715  0.994456338490778  1.0000
  C   C136      1.0  0.7697698888751104  0.5320839945137263  0.9384973595046732  1.0000
  C   C137      1.0  0.8362608221775858  0.49950852263851403  0.9267671644681741  1.0000
  C   C138      1.0  0.8762523206924088  0.4990449688226163  0.9710348417130276  1.0000
  C   C139      1.0  0.96541714387908  0.42243520265388684  0.929392693919503  1.0000
  C   C140      1.0  0.04709397864471762  0.4095235370116158  0.8957886795789205  1.0000
  C   C141      1.0  0.05637083633124725  0.3341370502694901  0.9030939849063911  1.0000
  C   C142      1.0  0.13532755869844248  0.32385285048765405  0.8709780304449523  1.0000
  C   C143      1.0  0.19719358594209518  0.4566397695394144  0.8228003604152009  1.0000
  C   C144      1.0  0.12063346549251024  0.4719066764116773  0.8530242280625657  1.0000
  C   C145      1.0  0.432203876840866  0.5319340067950337  0.5697485063239823  1.0000
  C   C146      1.0  0.4467159076937365  0.6081207140451  0.48755670963469555  1.0000
  C   C147      1.0  0.5167158423863896  0.6383379703645248  0.3942556468678475  1.0000
  C   C148      1.0  0.5739422070485958  0.5935572453708177  0.3805195705793736  1.0000
  C   C149      1.0  0.5602726551436917  0.5177964656973799  0.460591487253872  1.0000
  C   C150      1.0  0.48996873982154204  0.48608493588101703  0.5548025783328328  1.0000
  C   C151      1.0  0.5314755412299588  0.3826952791519034  0.6389143698309709  1.0000
  C   C152      1.0  0.5265521314911583  0.29905665704989576  0.7059381024276588  1.0000
  C   C153      1.0  0.6005423329410674  0.2890135506321627  0.7025985723312473  1.0000
  C   C154      1.0  0.5991845155699028  0.20980876007362073  0.7645485233317685  1.0000
  C   C155      1.0  0.45891245524449437  0.1488233649461462  0.8307040219825693  1.0000
  C   C156      1.0  0.45454965495720506  0.22583756278865522  0.7715271521115952  1.0000
  C   C157      1.0  0.4646834375577671  0.8768420041512073  0.9744588504646287  1.0000
  C   C158      1.0  0.4323120455022218  0.8199366086279624  0.9633858992067845  1.0000
  C   C159      1.0  0.4346587099330179  0.737525572539731  0.005726330678747587  1.0000
  C   C160      1.0  0.46784371281229653  0.708136172945636  0.061636794622110434  1.0000
  C   C161      1.0  0.5004867519728932  0.7629545027220247  0.07325268384461485  1.0000
  C   C162      1.0  0.500953851922283  0.8472241845745856  0.028956243528455206  1.0000
  C   C163      1.0  0.5775426572680189  0.8947352234574593  0.07062281759883168  1.0000
  C   C164      1.0  0.5904104158256659  0.942773471981525  0.10428888508338473  1.0000
  C   C165      1.0  0.665781791641109  0.9593697383670801  0.09699823755197912  1.0000
  C   C166      1.0  0.6760414285766886  0.00621924129484343  0.12911835748560915  1.0000
  C   C167      1.0  0.5432045852316136  0.01979748853678839  0.17738592520802138  1.0000
  C   C168      1.0  0.5279664788828455  0.973481111439952  0.1471289068821309  1.0000
  C   C169      1.0  0.9980183758515581  0.8982128161462412  0.5698250331005923  1.0000
  C   C170      1.0  0.06565349768454351  0.9042650174344756  0.4875739658759741  1.0000
  C   C171      1.0  0.08891105757354018  0.9674032634461724  0.3943123354993431  1.0000
  C   C172      1.0  0.04542194556513833  0.025927607524771155  0.3806780121906002  1.0000
  C   C173      1.0  0.9790221117662486  0.021517909492807453  0.4608399368215926  1.0000
  C   C174      1.0  0.9551461108792627  0.9589693766751212  0.5550163164304818  1.0000
  C   C175      1.0  0.8295292730636491  0.9781457025040223  0.639336362521007  1.0000
  C   C176      1.0  0.7674243301930449  0.9948025837789559  0.7063046283309545  1.0000
  C   C177      1.0  0.6968374015052065  0.008186621508833963  0.7027955311422218  1.0000
  C   C178      1.0  0.6362178217675591  0.02558497419589389  0.7645434617445516  1.0000
  C   C179      1.0  0.7101648794851487  0.020593365042181313  0.830834189119983  1.0000
  C   C180      1.0  0.773714630302841  0.002573735145375576  0.7718877154974563  1.0000
  C   C181      1.0  0.5607197476298894  0.14863124158183907  0.9745679423357102  1.0000
  C   C182      1.0  0.6041423392006565  0.21658276598827098  0.9635371361332971  1.0000
  C   C183      1.0  0.5594506963076925  0.2566541009072196  0.005882066739225354  1.0000
  C   C184      1.0  0.4703667468617141  0.23012943604467034  0.0617442645835098  1.0000
  C   C185      1.0  0.4261256407339504  0.16367950623843802  0.07336932427867987  1.0000
  C   C186      1.0  0.4699555413738426  0.12373038913624165  0.029069797300643033  1.0000
  C   C187      1.0  0.3517352381458778  0.034655520265126  0.07062662378659468  1.0000
  C   C188      1.0  0.30523361343197314  0.9529927133997517  0.10420196084974262  1.0000
  C   C189      1.0  0.2371298908629386  0.9437352521478246  0.09694360206605532  1.0000
  C   C190      1.0  0.19476805094117805  0.8647702159607816  0.12904210109128678  1.0000
  C   C191      1.0  0.279408647560139  0.8028950378932933  0.17716787964403838  1.0000
  C   C192      1.0  0.324892073786252  0.8794618444693683  0.1469179977037242  1.0000
  N   N1        1.0  0.656955914076079  0.21839903276457312  0.13791442382100877  1.0000
  N   N2        1.0  0.390184153278298  0.2793115647608388  0.3289688037795671  1.0000
  N   N3        1.0  0.15491161444022342  0.2772104533458091  0.5418955380520885  1.0000
  N   N4        1.0  0.28637971166409676  0.36612945805888586  0.6690635803376354  1.0000
  N   N5        1.0  0.20492099433710118  0.6436587606295632  0.1381999704551333  1.0000
  N   N6        1.0  0.28095525275395544  0.3915973282374452  0.3289243840608051  1.0000
  N   N7        1.0  0.30320043650702655  0.18081675046619958  0.5418823379331242  1.0000
  N   N8        1.0  0.044655331778642574  0.9647365378949644  0.6689610660318834  1.0000
  N   N9        1.0  0.7817266920422552  0.7949466017409035  0.8619562611172076  1.0000
  N   N10       1.0  0.7206045518108795  0.7190832381806871  0.6710803601347523  1.0000
  N   N11       1.0  0.7227691040081865  0.6968285697047136  0.4581458022323659  1.0000
  N   N12       1.0  0.6337395814664222  0.955446595914971  0.3310400991416029  1.0000
  N   N13       1.0  0.35634689909284856  0.34313445270892384  0.8618776386501137  1.0000
  N   N14       1.0  0.6083871371449309  0.6098491126127572  0.6710739756990092  1.0000
  N   N15       1.0  0.8190198051846593  0.8450095099614997  0.45817781975503646  1.0000
  N   N16       1.0  0.03520847642638364  0.7136016441350392  0.3309569955075133  1.0000
  N   N17       1.0  0.5931205289456899  0.10634453293322818  0.3618769194627376  1.0000
  N   N18       1.0  0.8598519995996269  0.35837372883131036  0.17107080219449233  1.0000
  N   N19       1.0  0.09502801479887066  0.5690201370646265  0.958168026261788  1.0000
  N   N20       1.0  0.9636090542077371  0.7852166281933681  0.8309453789767145  1.0000
  N   N21       1.0  0.04492596476070795  0.5317159628272845  0.3619731133074638  1.0000
  N   N22       1.0  0.9690937663629031  0.4706046135435217  0.17106085988758923  1.0000
  N   N23       1.0  0.946829578607037  0.4727602817645431  0.9581374245284592  1.0000
  N   N24       1.0  0.20545294228610103  0.3837660212793567  0.831006609338054  1.0000
  N   N25       1.0  0.46841491103501925  0.406984412051422  0.637899039714796  1.0000
  N   N26       1.0  0.5293077156107489  0.14018909149972802  0.8289628956998597  1.0000
  N   N27       1.0  0.5272143828224146  0.9049076765098931  0.04187890604701036  1.0000
  N   N28       1.0  0.6160983266576779  0.03634171454206131  0.16910764067308287  1.0000
  N   N29       1.0  0.8936774838416358  0.9549317769817947  0.6381911347159744  1.0000
  N   N30       1.0  0.6415936650529944  0.03095747384421101  0.8289250306279853  1.0000
  N   N31       1.0  0.43080500833048063  0.05319074206005337  0.04189655983198282  1.0000
  N   N32       1.0  0.21474521195072066  0.7946530400316973  0.16895477516506927  1.0000
  O   O1        1.0  0.7511275451292504  0.11720478728467738  0.15951326892397338  1.0000
  O   O2        1.0  0.20464769251435647  0.21182460322634714  0.4373006517113324  1.0000
  O   O3        1.0  0.08918802687997376  0.7233521722831711  0.15951945873015932  1.0000
  O   O4        1.0  0.3580206485552183  0.3507762823826683  0.4373651637180058  1.0000
  O   O5        1.0  0.8828769979726587  0.910791702972418  0.8403456243845892  1.0000
  O   O6        1.0  0.788155519566658  0.6420132748061749  0.5627175477044374  1.0000
  O   O7        1.0  0.27674965924671824  0.24879367350119713  0.8403842376033522  1.0000
  O   O8        1.0  0.6490765438651421  0.7954106414276367  0.5628069588221721  1.0000
  O   O9        1.0  0.49880592131770385  0.02676025413098428  0.34038580838404187  1.0000
  O   O10       1.0  0.04543009794226551  0.399082353566989  0.06278473729575043  1.0000
  O   O11       1.0  0.16079253042298813  0.6328558696254943  0.3403817214102959  1.0000
  O   O12       1.0  0.8920190735459106  0.5381440780349181  0.06270548803853136  1.0000
  O   O13       1.0  0.3672193912361621  0.5011925716856566  0.659480508353859  1.0000
  O   O14       1.0  0.46182942853366193  0.9546490465383074  0.9372938656539768  1.0000
  O   O15       1.0  0.9733476073078933  0.8392177843324475  0.6595146033052333  1.0000
  O   O16       1.0  0.6007613567761894  0.10801209855572594  0.9373782044030108  1.0000
