data_image0
_chemical_formula_structural       Zn2H23C38N2O8F5
_chemical_formula_sum              "Zn2 H23 C38 N2 O8 F5"
_cell_length_a       10.877510306348345
_cell_length_b       12.403811561483893
_cell_length_c       13.560190412530835
_cell_angle_alpha    80.96888271540823
_cell_angle_beta     87.98207129102155
_cell_angle_gamma    71.8272620225536

_space_group_name_H-M_alt    "P 1"
_space_group_IT_number       1

loop_
  _space_group_symop_operation_xyz
  'x, y, z'

loop_
  _atom_site_type_symbol
  _atom_site_label
  _atom_site_symmetry_multiplicity
  _atom_site_fract_x
  _atom_site_fract_y
  _atom_site_fract_z
  _atom_site_occupancy
  Zn  Zn1       1.0  0.45525021697530144  0.6156397723910272  0.5129068523486424  1.0000
  Zn  Zn2       1.0  0.5415688495643921  0.3817163201194943  0.4857612832888521  1.0000
  H   H1        1.0  0.8123025136904685  0.6777968605991163  0.4431086783568362  1.0000
  H   H2        1.0  0.3052273989083147  0.125302726600431  0.6968589967277767  1.0000
  H   H3        1.0  0.24791126508351638  0.94246366421234  0.7144828889592106  1.0000
  H   H4        1.0  0.5349072286153246  0.8124621619466195  0.4391458037490921  1.0000
  H   H5        1.0  0.6329568955531926  0.9166439749184928  0.36773262414674696  1.0000
  H   H6        1.0  0.7505561418989262  0.05199922319857819  0.2896017929800082  1.0000
  H   H7        1.0  0.429248629178801  0.24896433033976706  0.612955490783051  1.0000
  H   H8        1.0  0.05877853573823438  0.6310983147702058  0.35613349974895675  1.0000
  H   H9        1.0  0.021296647171247775  0.6895421959172193  0.4682403203590298  1.0000
  H   H10       1.0  0.8702272587006236  0.6027611588533118  0.6135620187769107  1.0000
  H   H11       1.0  0.0965098564725723  0.5546749429359749  0.6403586349820501  1.0000
  H   H12       1.0  0.17972740405421925  0.3231938154292208  0.4772542493732531  1.0000
  H   H13       1.0  0.9304483619711875  0.36740786248896723  0.401925391484646  1.0000
  H   H14       1.0  0.12134687052361671  0.4162089163556714  0.3644248469489071  1.0000
  H   H15       1.0  0.42834664461341293  0.5663799661130252  0.8288822564258568  1.0000
  H   H16       1.0  0.2834550191905479  0.7507375408225269  0.6586874211636627  1.0000
  H   H17       1.0  0.11840472221694402  0.406604670550294  0.6396065744158079  1.0000
  H   H18       1.0  0.7236728927767758  0.26030754199318545  0.7790133890095988  1.0000
  H   H19       1.0  0.8159713363984976  0.3149799409106534  0.10875057011570993  1.0000
  H   H20       1.0  0.8135648584359317  0.23735451588919423  0.9511068097744444  1.0000
  H   H21       1.0  0.306504663392076  0.7506649969855627  0.22243106257800355  1.0000
  H   H22       1.0  0.3406545131813985  0.6711775896305523  0.9231692656252054  1.0000
  H   H23       1.0  0.23108332987064986  0.7973665890163129  0.04368276884543581  1.0000
  C   C1        1.0  0.4892524701277808  0.5701909874048565  0.30866792125247144  1.0000
  C   C2        1.0  0.49082375547464363  0.5592884036336938  0.02669647328666261  1.0000
  C   C3        1.0  0.5392661533226716  0.5397969265045574  0.12673455897782304  1.0000
  C   C4        1.0  0.7380208399741407  0.49553904472229937  0.5045761467720311  1.0000
  C   C5        1.0  0.5553854744521871  0.4815941234890316  0.9575600169277438  1.0000
  C   C6        1.0  0.6683966712209684  0.3878717990212691  0.990204176886863  1.0000
  C   C7        1.0  0.7230950974722532  0.37896055908531423  0.08639999838572271  1.0000
  C   C8        1.0  0.66190941642666  0.45365160889345896  0.1492904324608446  1.0000
  C   C9        1.0  0.5107591106340764  0.4940705201082804  0.8589992146459339  1.0000
  C   C10       1.0  0.6782739580106494  0.3204650449725435  0.8300161750608626  1.0000
  C   C11       1.0  0.46751519125380264  0.6066929673842694  0.1979042809583973  1.0000
  C   C12       1.0  0.11732576654723911  0.5047557970198681  0.4909800344691604  1.0000
  C   C13       1.0  0.3124887761505733  0.9169643712309604  0.6531602407073507  1.0000
  C   C14       1.0  0.6610251676240324  0.17521836393053986  0.38729771246061523  1.0000
  C   C15       1.0  0.6838394741916005  0.07118817574087899  0.350745188366858  1.0000
  C   C16       1.0  0.5238603617032211  0.43611184334012865  0.6900875367530406  1.0000
  C   C17       1.0  0.6183895571443687  0.9978130513389656  0.3948851191271245  1.0000
  C   C18       1.0  0.5336226125279496  0.027987663272497767  0.47450617327939437  1.0000
  C   C19       1.0  0.5183527666751078  0.135284484652395  0.5065278184072497  1.0000
  C   C20       1.0  0.4628053342583697  0.9548211813821083  0.5250015132168785  1.0000
  C   C21       1.0  0.379541793285661  0.9909887559494871  0.6050501291489214  1.0000
  C   C22       1.0  0.36868443020924263  0.09874639336221949  0.6351009325897224  1.0000
  C   C23       1.0  0.07102030483859784  0.4937826632784023  0.6006323437860106  1.0000
  C   C24       1.0  0.43629884713624273  0.16791899273385982  0.5885381672454812  1.0000
  C   C25       1.0  0.473248045761274  0.8467951742696934  0.499299994416738  1.0000
  C   C26       1.0  0.33035344386072313  0.8122821808565914  0.6229006105285038  1.0000
  C   C27       1.0  0.2567289526831332  0.5076463730947934  0.4911562607231161  1.0000
  C   C28       1.0  0.8898716591614859  0.6014425939381592  0.4270278115742131  1.0000
  C   C29       1.0  0.024776422690166673  0.6150255543533303  0.43267033955064  1.0000
  C   C30       1.0  0.9243900759205916  0.5148273953087779  0.6013323000741482  1.0000
  C   C31       1.0  0.9723659585566082  0.38758934384208027  0.46627320506408415  1.0000
  C   C32       1.0  0.8791457039802213  0.4958580480738347  0.5004632156623359  1.0000
  C   C33       1.0  0.10559131892816251  0.4024760361197932  0.4453448832510248  1.0000
  C   C34       1.0  0.7272351121704688  0.30829030423788584  0.9250364331142651  1.0000
  C   C35       1.0  0.5699346617395734  0.4154619618165966  0.7958927006364719  1.0000
  C   C36       1.0  0.35952591147822227  0.6998566771448649  0.1668909274198711  1.0000
  C   C37       1.0  0.3165411389427745  0.7244317314743326  0.06701283915949571  1.0000
  C   C38       1.0  0.37886937846295876  0.653682105773079  0.9991909663204199  1.0000
  N   N1        1.0  0.4099960543115274  0.7783251030411691  0.5466642561322672  1.0000
  N   N2        1.0  0.5821865201896088  0.20883298291172978  0.4602171303523123  1.0000
  O   O1        1.0  0.4847996941231402  0.6474024124312405  0.36189822816554346  1.0000
  O   O2        1.0  0.4997014358722538  0.46569908457265535  0.34046845503705475  1.0000
  O   O3        1.0  0.6552873350684081  0.5821948005258688  0.5330198875050769  1.0000
  O   O4        1.0  0.7159933048013017  0.41002255300383417  0.4777289848424361  1.0000
  O   O5        1.0  0.44800555306223083  0.5359649747359612  0.6566163776531939  1.0000
  O   O6        1.0  0.5656886252213766  0.3536719839161577  0.6396175752427171  1.0000
  O   O7        1.0  0.2740087132609901  0.6052160754178358  0.4850859280598457  1.0000
  O   O8        1.0  0.3449681614055251  0.41109205308467966  0.5002667555520476  1.0000
  F   F1        1.0  0.8918138413700734  0.44239114393847945  0.6820340406655916  1.0000
  F   F2        1.0  0.8650473535738996  0.5874856390019615  0.32834326403238395  1.0000
  F   F3        1.0  0.7227873824729016  0.4506812120440669  0.23580819399323624  1.0000
  F   F4        1.0  0.7240818717225607  0.24715055269768976  0.3450133325733518  1.0000
  F   F5        1.0  0.9860561875082111  0.29196946043825983  0.5434111417352342  1.0000
