data_image0
_chemical_formula_structural       Zn8H56C88N8O26
_chemical_formula_sum              "Zn8 H56 C88 N8 O26"
_cell_length_a       21.511168229371815
_cell_length_b       21.511171659475878
_cell_length_c       21.551791960302328
_cell_angle_alpha    69.14961648898175
_cell_angle_beta     69.15024055982308
_cell_angle_gamma    106.66794967876335

_space_group_name_H-M_alt    "P 1"
_space_group_IT_number       1

loop_
  _space_group_symop_operation_xyz
  'x, y, z'

loop_
  _atom_site_type_symbol
  _atom_site_label
  _atom_site_symmetry_multiplicity
  _atom_site_fract_x
  _atom_site_fract_y
  _atom_site_fract_z
  _atom_site_occupancy
  Zn  Zn1       1.0  0.802856210804663  0.35993078420706587  0.4302344598144216  1.0000
  Zn  Zn2       1.0  0.21105300646109285  0.6409407722944921  0.5597576671626711  1.0000
  Zn  Zn3       1.0  0.3590564931477048  0.7889445192997541  0.44024034787381067  1.0000
  Zn  Zn4       1.0  0.6400762385801073  0.19714503306863673  0.5697690923989426  1.0000
  Zn  Zn5       1.0  0.7901561499278814  0.23307873731504727  0.5697724130547073  1.0000
  Zn  Zn6       1.0  0.20070828725554438  0.7708124835007054  0.440239796918803  1.0000
  Zn  Zn7       1.0  0.22917758249340645  0.7992864192859345  0.5597623277021312  1.0000
  Zn  Zn8       1.0  0.7669243089059776  0.20985159198698267  0.4302317694141066  1.0000
  H   H1        1.0  0.9300878979657767  0.37266035777869905  0.04802800188497972  1.0000
  H   H2        1.0  0.42655417687683445  0.3659742110473303  0.5612013482360608  1.0000
  H   H3        1.0  0.05852477448576811  0.4725011695968319  0.69358980141606  1.0000
  H   H4        1.0  0.4618435870268417  0.9557214191172463  0.3619614081952063  1.0000
  H   H5        1.0  0.5275742705477171  0.9414889348203772  0.30638240739838113  1.0000
  H   H6        1.0  0.540155325896329  0.18977435190799247  0.484699130785806  1.0000
  H   H7        1.0  0.48342946537516  0.18248563692507971  0.5670505116007333  1.0000
  H   H8        1.0  0.9751304998240753  0.3255121672092829  0.4847498437226108  1.0000
  H   H9        1.0  0.9495559616441797  0.2504665823803338  0.5670806546848864  1.0000
  H   H10       1.0  0.1762213459343727  0.6822692744980898  0.3619524499538613  1.0000
  H   H11       1.0  0.16609541694769098  0.7521282561669196  0.30639112876424685  1.0000
  H   H12       1.0  0.31766906431857933  0.8238136489776905  0.6380445535959467  1.0000
  H   H13       1.0  0.021880101095121177  0.579317321750814  0.04801679111209004  1.0000
  H   H14       1.0  0.24786282747273009  0.8339627506430888  0.6936323563164278  1.0000
  H   H15       1.0  0.6744513542843152  0.02483344317459317  0.5153165427273833  1.0000
  H   H16       1.0  0.7495179421844896  0.050433125119369086  0.4329798286968511  1.0000
  H   H17       1.0  0.03789900838420853  0.4320338932081639  0.9407033758518961  1.0000
  H   H18       1.0  0.009119957308108608  0.9622982881840086  0.6093016707123906  1.0000
  H   H19       1.0  0.9273546586000307  0.9879296535772328  0.438595734002881  1.0000
  H   H20       1.0  0.6273307559457563  0.06990777125395194  0.9519817708093398  1.0000
  H   H21       1.0  0.37273300267962367  0.9786001938494593  0.05931114945141776  1.0000
  H   H22       1.0  0.02139392588455265  0.627265465445731  0.9406886876319831  1.0000
  H   H23       1.0  0.381492489634546  0.42829913998877334  0.6091733521962723  1.0000
  H   H24       1.0  0.6340280216158689  0.5734445047955532  0.4388014218081295  1.0000
  H   H25       1.0  0.42067787401619217  0.9781090700779628  0.9519850726973615  1.0000
  H   H26       1.0  0.5679613235026367  0.9620922085055383  0.05930453029663584  1.0000
  H   H27       1.0  0.03769428792065104  0.990878127593973  0.39069680101560766  1.0000
  H   H28       1.0  0.012065775076692492  0.07263587057345693  0.5614068342123842  1.0000
  H   H29       1.0  0.571712865019478  0.6185136450804763  0.3908244965418747  1.0000
  H   H30       1.0  0.8612296039012791  0.30104102744056876  0.19140973575294845  1.0000
  H   H31       1.0  0.09553427379096743  0.6993030187253312  0.7974975819006859  1.0000
  H   H32       1.0  0.3091634553949945  0.49979885752595987  0.6074865569779035  1.0000
  H   H33       1.0  0.7055268023352214  0.5014264081835337  0.43617055126550497  1.0000
  H   H34       1.0  0.49244286892609773  0.05263490464782433  0.8086020327057993  1.0000
  H   H35       1.0  0.49681132421200425  0.8930392860841397  0.20249903779718165  1.0000
  H   H36       1.0  0.10750283662739694  0.9168512145864864  0.3923834594345053  1.0000
  H   H37       1.0  0.9374034535814955  0.1414916448077152  0.5640480146616723  1.0000
  H   H38       1.0  0.5002058986243229  0.6908426146577399  0.39251051143325105  1.0000
  H   H39       1.0  0.4985699723080258  0.2944712443010361  0.5638417686631811  1.0000
  H   H40       1.0  0.9473605491590008  0.5075602265079768  0.19139888974719108  1.0000
  H   H41       1.0  0.10695482951643963  0.5031794432539486  0.7975118076922029  1.0000
  H   H42       1.0  0.08314613325891423  0.8924917880395782  0.6076113754522652  1.0000
  H   H43       1.0  0.8585011704046721  0.06259413898112609  0.43595641922271267  1.0000
  H   H44       1.0  0.6989552532254136  0.13876785477339837  0.8086007600336343  1.0000
  H   H45       1.0  0.30069337734592244  0.9044645171377609  0.2025023285072223  1.0000
  H   H46       1.0  0.9922356974607071  0.2700779013716999  0.6492821128967421  1.0000
  H   H47       1.0  0.055694022439652664  0.7259146214087336  0.29216804796894985  1.0000
  H   H48       1.0  0.2741058924175449  0.9443844613299889  0.7077800054838618  1.0000
  H   H49       1.0  0.7299226466533427  0.007731738408594539  0.3507765743525511  1.0000
  H   H50       1.0  0.9193643889019186  0.6415169922336974  0.3507000703850449  1.0000
  H   H51       1.0  0.01808329741407287  0.3478704587144107  0.7078199989324715  1.0000
  H   H52       1.0  0.6521499483386252  0.9818837785848659  0.29222380335144743  1.0000
  H   H53       1.0  0.3585182240737552  0.08071080642492484  0.6492291710997691  1.0000
  H   H54       1.0  0.8102689514771056  0.4598805199245035  0.5152178743087816  1.0000
  H   H55       1.0  0.817569974712555  0.516624459932139  0.4328714380067638  1.0000
  H   H56       1.0  0.0442187884057505  0.5381795208251035  0.6380345546767997  1.0000
  C   C1        1.0  0.9814458523105358  0.48145277501718203  0.03709207207899817  1.0000
  C   C2        1.0  0.5247867448589361  0.47521383104908227  0.5000005939677762  1.0000
  C   C3        1.0  0.6431227449389924  0.14312637010007037  0.7137461413928107  1.0000
  C   C4        1.0  0.849957988203208  0.15004812033033954  0.49999452615185186  1.0000
  C   C5        1.0  0.1429245987059746  0.8570688233332787  0.4999934354463702  1.0000
  C   C6        1.0  0.14873377025529783  0.6487255273469615  0.7025280978800197  1.0000
  C   C7        1.0  0.8568704373658349  0.3568762673629069  0.2862608098837285  1.0000
  C   C8        1.0  0.3512644958779205  0.851260392662482  0.2974747209539643  1.0000
  C   C9        1.0  0.6500441188902356  0.34994645272567476  0.5000102134279275  1.0000
  C   C10       1.0  0.35708116892452324  0.6429217477105807  0.49999516118689497  1.0000
  C   C11       1.0  0.9357500848473636  0.40254826406432925  0.07890377933176754  1.0000
  C   C12       1.0  0.04143816084023658  0.6000715575949728  0.909813879096326  1.0000
  C   C13       1.0  0.40743893072426135  0.4853270405151734  0.5606265326258536  1.0000
  C   C14       1.0  0.6039358347770049  0.5123857514251072  0.4648068595204719  1.0000
  C   C15       1.0  0.48144273475905663  0.01465282587412978  0.92110751202204  1.0000
  C   C16       1.0  0.509888035497525  0.9512558335138764  0.0901869508583673  1.0000
  C   C17       1.0  0.04608027130485923  0.9681709064578712  0.4393019489043227  1.0000
  C   C18       1.0  0.024119360318095986  0.5241233616496289  0.9517496462287696  1.0000
  C   C19       1.0  0.9770837578403683  0.06862432979190199  0.5353148431822918  1.0000
  C   C20       1.0  0.5146762903292056  0.5925689660776998  0.4393750460301433  1.0000
  C   C21       1.0  0.48762023981123537  0.39606714305272567  0.5351953119843175  1.0000
  C   C22       1.0  0.9853345615871091  0.5185520746326021  0.07889779418606241  1.0000
  C   C23       1.0  0.04873737585010924  0.4901068342808868  0.9098187786722676  1.0000
  C   C24       1.0  0.03182402172493687  0.9539160319829348  0.5606979013954927  1.0000
  C   C25       1.0  0.9313657878008499  0.02290678735288069  0.46468931805477337  1.0000
  C   C26       1.0  0.5974471116373723  0.06424286586563012  0.92110416116774  1.0000
  C   C27       1.0  0.3999241515599082  0.9585588873257292  0.09018881408994868  1.0000
  C   C28       1.0  0.017986170806352765  0.9820073713982608  0.4999976483993506  1.0000
  C   C29       1.0  0.9752136392388024  0.024775154640970486  0.5000046839187887  1.0000
  C   C30       1.0  0.8962790779530747  0.3621526016965009  0.15922850783623932  1.0000
  C   C31       1.0  0.08235653313482774  0.6405578623345246  0.8295259105674049  1.0000
  C   C32       1.0  0.3668993988760931  0.5253333681086615  0.5604862335318899  1.0000
  C   C33       1.0  0.6442337269835932  0.47217764279447055  0.464167886263411  1.0000
  C   C34       1.0  0.5213692409010875  0.055504117877802586  0.8407851279501201  1.0000
  C   C35       1.0  0.5185391124085115  0.01854366164463537  0.9629145560027152  1.0000
  C   C36       1.0  0.47009365667850034  0.9118900305386507  0.17046936324265252  1.0000
  C   C37       1.0  0.08593633852515863  0.9274923673290446  0.43944131154110977  1.0000
  C   C38       1.0  0.936250644397454  0.10829128871417047  0.5359393564930031  1.0000
  C   C39       1.0  0.4746740321367471  0.6331021836921664  0.4395141060888007  1.0000
  C   C40       1.0  0.5278252683347162  0.35577516094013373  0.5358346173237294  1.0000
  C   C41       1.0  0.9444870796329071  0.4786274027825714  0.15922079405041972  1.0000
  C   C42       1.0  0.08810317011060673  0.5298991225309845  0.829538632586882  1.0000
  C   C43       1.0  0.07250515951429291  0.9140561367723945  0.5605536379398471  1.0000
  C   C44       1.0  0.8917060870634401  0.06374912640047388  0.46405616223304946  1.0000
  C   C45       1.0  0.6378431043958768  0.10371431564259127  0.8407787881861494  1.0000
  C   C46       1.0  0.4758747419010092  0.9758751655554646  0.048255755410373524  1.0000
  C   C47       1.0  0.3594382479290559  0.9176418274439512  0.17047567962215754  1.0000
  C   C48       1.0  0.899959379486873  0.39996662522122534  0.20007458888995433  1.0000
  C   C49       1.0  0.10573701444557318  0.6057334241834906  0.7885164787474039  1.0000
  C   C50       1.0  0.40023905747869293  0.5997639045612716  0.499997773004651  1.0000
  C   C51       1.0  0.6066846645242094  0.393307544513391  0.5000097670816075  1.0000
  C   C52       1.0  0.60003336123183  0.10003547802357106  0.7999311042889516  1.0000
  C   C53       1.0  0.3942586087722263  0.894256311754461  0.211486191799814  1.0000
  C   C54       1.0  0.09976714630550987  0.9002268735904336  0.49999829529888734  1.0000
  C   C55       1.0  0.893314116049261  0.10668518999046497  0.4999982766584523  1.0000
  C   C56       1.0  0.482025507728956  0.5179857910416246  0.49999692849740995  1.0000
  C   C57       1.0  0.9177536593656299  0.5460367434867451  0.4310038934323118  1.0000
  C   C58       1.0  0.024378446440849372  0.44490352812557177  0.6246993204737521  1.0000
  C   C59       1.0  0.5551013655682909  0.9755953545517855  0.37531798929575183  1.0000
  C   C60       1.0  0.4539870206668297  0.08229353081618025  0.5689378592209877  1.0000
  C   C61       1.0  0.9770625864370359  0.34877058944054107  0.5689728860260317  1.0000
  C   C62       1.0  0.06961325924798699  0.6490878356694552  0.3752855903866887  1.0000
  C   C63       1.0  0.35091054101428654  0.9304306440812057  0.6246825464200185  1.0000
  C   C64       1.0  0.6512182824309178  0.022907819208278234  0.43107263442461624  1.0000
  C   C65       1.0  0.951587769304858  0.6210397731547632  0.3740514501154664  1.0000
  C   C66       1.0  0.01294517615306747  0.37099525525955807  0.6569131378949749  1.0000
  C   C67       1.0  0.629019777520526  0.9870300048240921  0.3431219762763858  1.0000
  C   C68       1.0  0.3789906754153379  0.04847121103253488  0.6258950037155343  1.0000
  C   C69       1.0  0.9951025426535126  0.3256497691803307  0.625931415443581  1.0000
  C   C70       1.0  0.02791399909106221  0.6698671693417141  0.3430738835369667  1.0000
  C   C71       1.0  0.33015258352744337  0.972151156090881  0.656878176700978  1.0000
  C   C72       1.0  0.6743586840619572  0.00487848989331514  0.374107407630369  1.0000
  C   C73       1.0  0.030778252158995725  0.5766088268804593  0.4451023299473036  1.0000
  C   C74       1.0  0.9812716760233257  0.4220978928903422  0.5395902602878521  1.0000
  C   C75       1.0  0.5778969085922085  0.018706721842882315  0.4604302653331016  1.0000
  C   C76       1.0  0.42338765941514833  0.9692445887845976  0.5548751034036742  1.0000
  C   C77       1.0  0.021722443876974886  0.4758890175144189  0.5548805512096492  1.0000
  C   C78       1.0  0.9616987228389392  0.5208681540792172  0.4603873660650493  1.0000
  C   C79       1.0  0.4791379810024238  0.0383270665841593  0.5395769001661038  1.0000
  C   C80       1.0  0.5241130531341583  0.978265400187851  0.4451256197609935  1.0000
  C   C81       1.0  0.6141448594605734  0.11413493798815466  0.5000045917542766  1.0000
  C   C82       1.0  0.38822129016264023  0.888217447648394  0.5000032681830078  1.0000
  C   C83       1.0  0.11177982750335493  0.6117865472561235  0.49998501634404846  1.0000
  C   C84       1.0  0.8858659554600903  0.38585356671706705  0.49999026641003036  1.0000
  C   C85       1.0  0.053951432133303084  0.5539496541007837  0.4999933672449685  1.0000
  C   C86       1.0  0.9444461799767296  0.4444413745348186  0.4999864804771407  1.0000
  C   C87       1.0  0.5555603451554418  0.055558145405982015  0.5000054245565693  1.0000
  C   C88       1.0  0.44604611483582357  0.946048268238954  0.5000040718315688  1.0000
  N   N1        1.0  0.8445016839174286  0.4945480570581538  0.45700467019827334  1.0000
  N   N2        1.0  0.03219836239666313  0.48341020934977746  0.663444533299149  1.0000
  N   N3        1.0  0.5166255928436314  0.9677859906158731  0.3365508706980832  1.0000
  N   N4        1.0  0.5054891148285492  0.15554757536732208  0.542913411555581  1.0000
  N   N5        1.0  0.9515966320698795  0.30152552378800856  0.5429605750880242  1.0000
  N   N6        1.0  0.14685824659512287  0.6956530236575985  0.3365425528472983  1.0000
  N   N7        1.0  0.3043285713628523  0.8531814967196708  0.6634540175424632  1.0000
  N   N8        1.0  0.6984450759498344  0.0483688993877963  0.4571037100830538  1.0000
  O   O1        1.0  0.7500019780179911  0.250003418926056  0.5000015046430591  1.0000
  O   O2        1.0  0.4045027378337524  0.8406245102498389  0.4842672379400382  1.0000
  O   O3        1.0  0.11121136356960204  0.6751113385812815  0.4842732795356922  1.0000
  O   O4        1.0  0.8271647136442085  0.3330988394796961  0.5650785733347308  1.0000
  O   O5        1.0  0.6669089490507362  0.1728330071430124  0.4349141788187935  1.0000
  O   O6        1.0  0.3248712709196085  0.8887729499753619  0.5157441535167138  1.0000
  O   O7        1.0  0.1593931827491844  0.5955084861835475  0.5157049021199142  1.0000
  O   O8        1.0  0.8981889828160307  0.39222273216746834  0.43491366387045355  1.0000
  O   O9        1.0  0.6077653106678085  0.10181683125863132  0.565082577134852  1.0000
  O   O10       1.0  0.2499980774239603  0.7499948339999278  0.5000016341943763  1.0000
  O   O11       1.0  0.61103418174379  0.27804010369691673  0.539348356121195  1.0000
  O   O12       1.0  0.3921535907347931  0.7118884316170124  0.44554486454172343  1.0000
  O   O13       1.0  0.27913235815486825  0.8189626218846371  0.33075781506789065  1.0000
  O   O14       1.0  0.7139006834807657  0.16426488970166292  0.6804472091742965  1.0000
  O   O15       1.0  0.8174104370578803  0.15039516748795745  0.4606370227140744  1.0000
  O   O16       1.0  0.15740890638500843  0.837661422068116  0.5544718070603591  1.0000
  O   O17       1.0  0.14972945564188228  0.6098788838390946  0.6692439450735747  1.0000
  O   O18       1.0  0.844705662017212  0.3943489391390502  0.31955716730521283  1.0000
  O   O19       1.0  0.1810257988096354  0.7208596925721977  0.669244372099989  1.0000
  O   O20       1.0  0.8357388926082834  0.2860988665443857  0.3195588307923955  1.0000
  O   O21       1.0  0.849607854402329  0.18259254876978306  0.5393549675559584  1.0000
  O   O22       1.0  0.16233215316709249  0.8425847877810282  0.44552129496625537  1.0000
  O   O23       1.0  0.3901129318705757  0.8502721630358465  0.3307583368972971  1.0000
  O   O24       1.0  0.6056486051021039  0.1552892280067298  0.6804477134993194  1.0000
  O   O25       1.0  0.7219505431418868  0.3889583296029572  0.46067368845023526  1.0000
  O   O26       1.0  0.28810537342477016  0.6078394420243782  0.5544534775836212  1.0000
