data_image0
_chemical_formula_structural       Mn4H32C16O28
_chemical_formula_sum              "Mn4 H32 C16 O28"
_cell_length_a       7.860379613929461
_cell_length_b       7.8606626668905095
_cell_length_c       13.117264615065938
_cell_angle_alpha    89.99998605952342
_cell_angle_beta     89.99963665734971
_cell_angle_gamma    89.99827543846787

_space_group_name_H-M_alt    "P 1"
_space_group_IT_number       1

loop_
  _space_group_symop_operation_xyz
  'x, y, z'

loop_
  _atom_site_type_symbol
  _atom_site_label
  _atom_site_symmetry_multiplicity
  _atom_site_fract_x
  _atom_site_fract_y
  _atom_site_fract_z
  _atom_site_occupancy
  Mn  Mn1       1.0  0.45185246717806393  0.8579653626950545  0.1579961979507516  1.0000
  Mn  Mn2       1.0  0.5481485705668234  0.14203561817725327  0.6579958893578561  1.0000
  Mn  Mn3       1.0  0.1420845889095332  0.4518323515709639  0.9079649140318151  1.0000
  Mn  Mn4       1.0  0.8579150778312226  0.5481659801308324  0.4079652466871337  1.0000
  H   H1        1.0  0.38060339024229967  0.9089862621853156  0.36866296508011226  1.0000
  H   H2        1.0  0.619395419813749  0.09101717464849911  0.8686623927133608  1.0000
  H   H3        1.0  0.0911126525521055  0.380591198831027  0.1186891795969771  1.0000
  H   H4        1.0  0.9088849842458159  0.6194085264266106  0.6186889565426623  1.0000
  H   H5        1.0  0.8085198350088092  0.9393386339432366  0.14513155150989826  1.0000
  H   H6        1.0  0.191482610962538  0.0606623523048953  0.6451333731668567  1.0000
  H   H7        1.0  0.060650649997690195  0.8085808564091151  0.8950545776622006  1.0000
  H   H8        1.0  0.939354242140368  0.19141366415892944  0.39505312615978727  1.0000
  H   H9        1.0  0.6997511289376206  0.062448566051735085  0.07466819624001889  1.0000
  H   H10       1.0  0.3002444289759937  0.9375499055496233  0.5746656689449664  1.0000
  H   H11       1.0  0.9374640016042619  0.6998160323712808  0.824683826065012  1.0000
  H   H12       1.0  0.0625378179670903  0.3001836063970202  0.3246826444195746  1.0000
  H   H13       1.0  0.16349272237145837  0.7146051778314159  0.25475930842200256  1.0000
  H   H14       1.0  0.8365060199858406  0.2853944903202786  0.7547594076896543  1.0000
  H   H15       1.0  0.285281444511611  0.1635531639302457  0.004771782451520298  1.0000
  H   H16       1.0  0.7147199413160193  0.8364453369088379  0.5047699801903391  1.0000
  H   H17       1.0  0.15617899636627897  0.6597855066695856  0.1380322458933279  1.0000
  H   H18       1.0  0.84381716373003  0.3402116661800889  0.6380315472741529  1.0000
  H   H19       1.0  0.3403531043926549  0.15626777683573317  0.8880800767608148  1.0000
  H   H20       1.0  0.6596467726396255  0.8437292910485253  0.3880795970985814  1.0000
  H   H21       1.0  0.27816548310360645  0.1537194171385465  0.3734401236428511  1.0000
  H   H22       1.0  0.7218320042166512  0.8462840177101824  0.8734428670651508  1.0000
  H   H23       1.0  0.846166762895507  0.2780617622823555  0.12339147563451999  1.0000
  H   H24       1.0  0.1538308241608277  0.7219392331605619  0.6233910602500926  1.0000
  H   H25       1.0  0.6240626471924459  0.24445721714139515  0.28314166993931167  1.0000
  H   H26       1.0  0.37593833939660465  0.7555449833827409  0.7831442169047376  1.0000
  H   H27       1.0  0.75553409213925  0.62412684409054  0.0332005635932617  1.0000
  H   H28       1.0  0.24446572081883033  0.3758741891588996  0.5332013769841737  1.0000
  H   H29       1.0  0.47183081913077984  0.4031929385447909  0.3114496793715559  1.0000
  H   H30       1.0  0.528168595990401  0.5968054336546158  0.8114493826914779  1.0000
  H   H31       1.0  0.596804713290716  0.4719779320631473  0.061484211949966984  1.0000
  H   H32       1.0  0.4031973450287225  0.5280218171291295  0.5614821131788614  1.0000
  C   C1        1.0  0.28674174652740453  0.18803576739629338  0.21110671739357653  1.0000
  C   C2        1.0  0.7132587295758555  0.8119664633582742  0.7111094982610807  1.0000
  C   C3        1.0  0.8119233973709328  0.2868183610204511  0.961144709145941  1.0000
  C   C4        1.0  0.1880871567043769  0.7131888533063344  0.4611490906906254  1.0000
  C   C5        1.0  0.3734081672074296  0.1442963993120543  0.3123822437846114  1.0000
  C   C6        1.0  0.6265963267676966  0.8557083332064793  0.8123822986651915  1.0000
  C   C7        1.0  0.8557211679649585  0.37342636477556107  0.06241379851137199  1.0000
  C   C8        1.0  0.1442783361324018  0.6265721119075492  0.562412670540823  1.0000
  C   C9        1.0  0.5143573105348409  0.2744626892937275  0.3322649229625299  1.0000
  C   C10       1.0  0.48564315666214947  0.7255356741558215  0.8322685816464953  1.0000
  C   C11       1.0  0.7255458389162611  0.5143757237788834  0.0822825077564389  1.0000
  C   C12       1.0  0.27444963843821313  0.4856252889436021  0.5822809045836194  1.0000
  C   C13       1.0  0.5723627731864767  0.2783316960874486  0.4426178503510271  1.0000
  C   C14       1.0  0.42763398282283305  0.7216602603327331  0.9426163937085048  1.0000
  C   C15       1.0  0.7216807020388956  0.572341609685317  0.19260048069668295  1.0000
  C   C16       1.0  0.27831615314519104  0.4276619010462993  0.6925996333421196  1.0000
  O   O1        1.0  0.173356149794067  0.30370456579301214  0.21465034654670487  1.0000
  O   O2        1.0  0.8266468332272439  0.6962989355945409  0.7146527124906825  1.0000
  O   O3        1.0  0.6962003938477039  0.1734810564926406  0.9646936953537305  1.0000
  O   O4        1.0  0.3037935842419587  0.8265159793367544  0.46469228438110816  1.0000
  O   O5        1.0  0.3347842573626707  0.11168271989942719  0.1307682353468635  1.0000
  O   O6        1.0  0.6652183405380184  0.8883144559001223  0.6307719505173992  1.0000
  O   O7        1.0  0.888326533364534  0.334869156694829  0.8808297973831924  1.0000
  O   O8        1.0  0.1116721482288199  0.6651228256206494  0.38082532803948504  1.0000
  O   O9        1.0  0.6679846752064549  0.3990503530322371  0.47311944615639573  1.0000
  O   O10       1.0  0.3320193913460869  0.6009517677401915  0.9731160831019705  1.0000
  O   O11       1.0  0.60092157517105  0.66796640175464  0.22303387786099188  1.0000
  O   O12       1.0  0.3990787748868954  0.3320332796844312  0.7230295352991474  1.0000
  O   O13       1.0  0.5193998698358512  0.16088691172704728  0.5008862052257611  1.0000
  O   O14       1.0  0.4806015570331397  0.8391128628979556  0.0008894565564929999  1.0000
  O   O15       1.0  0.8390890065117205  0.5193875521676503  0.2508921400369886  1.0000
  O   O16       1.0  0.160912321147201  0.48061211756775174  0.7508917317269805  1.0000
  O   O17       1.0  0.43870169752690913  0.9738069072000924  0.3104426324532099  1.0000
  O   O18       1.0  0.5613002725952825  0.026194009697498195  0.8104453395814984  1.0000
  O   O19       1.0  0.0262195445191153  0.4387577670743071  0.06048890251755518  1.0000
  O   O20       1.0  0.9737787077027633  0.5612419825923282  0.5604892032171661  1.0000
  O   O21       1.0  0.7052296963843645  0.0075854100746254975  0.14376110094556788  1.0000
  O   O22       1.0  0.29477021965980293  0.9924168489441951  0.6437616361643563  1.0000
  O   O23       1.0  0.9923794761915444  0.7053274494910085  0.8937667219085978  1.0000
  O   O24       1.0  0.007620340691943299  0.29467088816575426  0.3937657498914433  1.0000
  O   O25       1.0  0.1945775766507509  0.7499694278667518  0.18403870963456367  1.0000
  O   O26       1.0  0.8054180968863703  0.250032814317521  0.684037407400133  1.0000
  O   O27       1.0  0.2500589343537527  0.19467555705670492  0.9340151275815172  1.0000
  O   O28       1.0  0.749940456930517  0.8053227637199071  0.43401430993522166  1.0000
