data_image0
_chemical_formula_structural       Er2H54C44N4O20
_chemical_formula_sum              "Er2 H54 C44 N4 O20"
_cell_length_a       9.125223331358367
_cell_length_b       11.8684253634731
_cell_length_c       12.7221
_cell_angle_alpha    85.66763788493651
_cell_angle_beta     71.07852097997143
_cell_angle_gamma    68.91564239484981

_space_group_name_H-M_alt    "P 1"
_space_group_IT_number       1

loop_
  _space_group_symop_operation_xyz
  'x, y, z'

loop_
  _atom_site_type_symbol
  _atom_site_label
  _atom_site_symmetry_multiplicity
  _atom_site_fract_x
  _atom_site_fract_y
  _atom_site_fract_z
  _atom_site_occupancy
  Er  Er1       1.0  0.8462168034811696  0.8964940453727409  0.5227221645231097  1.0000
  Er  Er2       1.0  0.15377960055739948  0.1035072308168665  0.4772770884667281  1.0000
  H   H1        1.0  0.881833227557074  0.26925729431381035  0.3298481054237853  1.0000
  H   H2        1.0  0.11816417193398353  0.7307466939030152  0.6701499388737275  1.0000
  H   H3        1.0  0.6389882743466231  0.191577602706694  0.2569109636035023  1.0000
  H   H4        1.0  0.3610153579473518  0.808425481501061  0.7430794064338927  1.0000
  H   H5        1.0  0.7846113879652563  0.39554736178325817  0.1855942198626508  1.0000
  H   H6        1.0  0.215393843281923  0.6044548184154267  0.8144005581821859  1.0000
  H   H7        1.0  0.5854210502613029  0.40186367317487287  0.18556609457893813  1.0000
  H   H8        1.0  0.4145856169291521  0.5981403150419524  0.8144282220610108  1.0000
  H   H9        1.0  0.7661717965587869  0.3025646045918648  0.09026552081672182  1.0000
  H   H10       1.0  0.23383343468839257  0.6974375756068129  0.9097292572281148  1.0000
  H   H11       1.0  0.2786735555823156  0.5795556965234354  0.25197419046293856  1.0000
  H   H12       1.0  0.7213260463626838  0.4204437716480244  0.7480283763055198  1.0000
  H   H13       1.0  0.27321247264465137  0.8225325430820263  0.1460848601883882  1.0000
  H   H14       1.0  0.7267797380350061  0.1774678290985108  0.853913073748906  1.0000
  H   H15       1.0  0.5716386556421044  0.6774526470345422  0.06687340319546557  1.0000
  H   H16       1.0  0.4283549909808285  0.3225495331641426  0.9331256414044447  1.0000
  H   H17       1.0  0.45616101684478133  0.6843683164414216  0.9786563906146314  1.0000
  H   H18       1.0  0.5438330702689385  0.3156329597481857  0.021343401272723394  1.0000
  H   H19       1.0  0.4966051058544351  0.5573966261310872  0.06548340523854532  1.0000
  H   H20       1.0  0.5033944960905571  0.4426028420403725  0.9345136592936426  1.0000
  H   H21       1.0  0.7427036417837272  0.6244334189241911  0.8920975744143931  1.0000
  H   H22       1.0  0.2572897273583549  0.37556695325634604  0.1079040202429056  1.0000
  H   H23       1.0  0.04794079680792855  0.5492939928116272  0.6825369495704621  1.0000
  H   H24       1.0  0.9520525237951319  0.45071361144149347  0.317462574643571  1.0000
  H   H25       1.0  0.9554389532444603  0.4302667342330153  0.9102421710170745  1.0000
  H   H26       1.0  0.04456352058708284  0.5697363499747397  0.08975554277284907  1.0000
  H   H27       1.0  0.1608808980844927  0.4232697040095843  0.8327505832537838  1.0000
  H   H28       1.0  0.839118655321478  0.5767369962344588  0.1672444108351385  1.0000
  H   H29       1.0  0.06330678954277144  0.34816553425086033  0.7796746640742854  1.0000
  H   H30       1.0  0.9366940853355599  0.6518384539659722  0.22032099980945216  1.0000
  H   H31       1.0  0.4982918721428291  0.8188866744914449  0.3630047422868614  1.0000
  H   H32       1.0  0.5017123636518618  0.18111279368001482  0.6369959606528183  1.0000
  H   H33       1.0  0.3674143402927756  0.6627362833385106  0.40277039688022137  1.0000
  H   H34       1.0  0.632589177530285  0.3372622808238788  0.5972297507281468  1.0000
  H   H35       1.0  0.7446091958020132  0.4583615281973367  0.5522665276133125  1.0000
  H   H36       1.0  0.25538241137692097  0.5416424600194887  0.44774937063677817  1.0000
  H   H37       1.0  0.8530797432246119  0.6259476341211254  0.5100595032089288  1.0000
  H   H38       1.0  0.14691577983238344  0.3740554500866295  0.4899492596785606  1.0000
  H   H39       1.0  0.4717711053308732  0.9347607494241503  0.6013716694074418  1.0000
  H   H40       1.0  0.5282255761885467  0.0652423347836049  0.3986250335250077  1.0000
  H   H41       1.0  0.5657068271960384  0.8916223404794508  0.6939715842810372  1.0000
  H   H42       1.0  0.43428190809634515  0.10837803170108633  0.3060287300700324  1.0000
  H   H43       1.0  0.8352130304153959  0.0612538467544326  0.6877277110243298  1.0000
  H   H44       1.0  0.16478601656790196  0.9387420053807389  0.3122736675888831  1.0000
  H   H45       1.0  0.6546538226878694  0.047481268530404505  0.7416529768409036  1.0000
  H   H46       1.0  0.34534274436064294  0.9525172956319852  0.2583519315950156  1.0000
  H   H47       1.0  0.6966660136957972  0.8956885732888795  0.26362666688842046  1.0000
  H   H48       1.0  0.303343899940117  0.10430637483722191  0.7363691038046483  1.0000
  H   H49       1.0  0.9372026644001608  0.9576710513559875  0.1935020461563325  1.0000
  H   H50       1.0  0.0628071347648387  0.0423193767247483  0.8064972138377016  1.0000
  H   H51       1.0  0.8799524534844494  0.9718911140710489  0.8658043646849619  1.0000
  H   H52       1.0  0.12006137602952549  0.028102930045975  0.1341960611517905  1.0000
  H   H53       1.0  0.6387771243488699  0.9080644574954422  0.9510981248410174  1.0000
  H   H54       1.0  0.3612342252303122  0.09193229864879982  0.04889954254842616  1.0000
  C   C1        1.0  0.8037795872251365  0.12194811189281303  0.40682573683059087  1.0000
  C   C2        1.0  0.19621957422906897  0.8780522602877241  0.5931729385154157  1.0000
  C   C3        1.0  0.8019413022097481  0.2197646055964384  0.32863352324991973  1.0000
  C   C4        1.0  0.19805537930967182  0.7802384786113166  0.6713647517500335  1.0000
  C   C5        1.0  0.7146817857929975  0.24482464110338506  0.2573141485143254  1.0000
  C   C6        1.0  0.2853227274825442  0.7551766350862225  0.7426816462667105  1.0000
  C   C7        1.0  0.713577852709129  0.3417949823148732  0.17607806969978398  1.0000
  C   C8        1.0  0.28642550210399514  0.6582062938747342  0.8239172084962546  1.0000
  C   C9        1.0  0.10468502529023738  0.7518263774624502  0.3374852255686207  1.0000
  C   C10       1.0  0.8953106607766941  0.248173994718087  0.6625158301911612  1.0000
  C   C11       1.0  0.23885665059937367  0.6771597480949509  0.24221417701241424  1.0000
  C   C12       1.0  0.7611369960235592  0.3228424321037267  0.7577880117225034  1.0000
  C   C13       1.0  0.31707709954947927  0.7244457506656374  0.1519159135042827  1.0000
  C   C14       1.0  0.6829151111301783  0.2755546215148996  0.8480835925005152  1.0000
  C   C15       1.0  0.46713387463390177  0.6552990006966297  0.06076415680859531  1.0000
  C   C16       1.0  0.5328618114330368  0.3447013714839073  0.9392361129174346  1.0000
  C   C17       1.0  0.7570948941887891  0.7349277358646944  0.7459047497896093  1.0000
  C   C18       1.0  0.24289571753765668  0.2650735403249129  0.2540966364777617  1.0000
  C   C19       1.0  0.8243634926393284  0.6287084778294414  0.8087057716549496  1.0000
  C   C20       1.0  0.1756320304176668  0.3712946063783136  0.1912951308950142  1.0000
  C   C21       1.0  0.9722859858156029  0.540526008814588  0.7671002532345739  1.0000
  C   C22       1.0  0.027711413675454783  0.45947797940223734  0.2328985770966909  1.0000
  C   C23       1.0  0.040196894537309916  0.4306518420980296  0.8262722538005605  1.0000
  C   C24       1.0  0.9598012229253854  0.569353050127873  0.1737239877270014  1.0000
  C   C25       1.0  0.5441179751285218  0.7369735083964244  0.4051258100882791  1.0000
  C   C26       1.0  0.4558839437413197  0.26302595977503535  0.5948785758839179  1.0000
  C   C27       1.0  0.4750095836361509  0.6485388208502698  0.4284280077280301  1.0000
  C   C28       1.0  0.5249897408279978  0.35145883930304933  0.5715763230640647  1.0000
  C   C29       1.0  0.5384047237726578  0.5460513122675152  0.48569346738078417  1.0000
  C   C30       1.0  0.46159487817233463  0.45394815590395154  0.5143106714551777  1.0000
  C   C31       1.0  0.678893602760013  0.5371884073178279  0.5139593858770583  1.0000
  C   C32       1.0  0.321103078759414  0.46281467688992  0.4860483215279245  1.0000
  C   C33       1.0  0.7450593589047256  0.6274564252636169  0.4902668220086427  1.0000
  C   C34       1.0  0.25493660464305623  0.3725457549350608  0.5097442602337949  1.0000
  C   C35       1.0  0.7410544812220436  0.9162140992866838  0.1768972460800242  1.0000
  C   C36       1.0  0.2589558729046573  0.08377994483034001  0.8231000579342406  1.0000
  C   C37       1.0  0.8755159936660348  0.9525136795956897  0.13472072588091066  1.0000
  C   C38       1.0  0.12450003830188186  0.0474758444759686  0.8652763620892685  1.0000
  C   C39       1.0  0.9302395978913579  0.9785753571552933  0.022088682697749048  1.0000
  C   C40       1.0  0.0697707562353358  0.021418686961730802  0.9779125514852823  1.0000
  C   C41       1.0  0.8438272129772455  0.9596417911346792  0.9550678412743778  1.0000
  C   C42       1.0  0.1561847401026668  0.0403513489732745  0.04493308471357689  1.0000
  C   C43       1.0  0.7089833913449867  0.9236251656654559  0.9996415747316831  1.0000
  C   C44       1.0  0.2910259673292259  0.07636616642435  0.00035615194115477925  1.0000
  N   N1        1.0  0.6762958966459394  0.7272264825735562  0.4377389079969731  1.0000
  N   N2        1.0  0.3237064627146964  0.2727720815888404  0.5622646531951574  1.0000
  N   N3        1.0  0.6549694997733722  0.9047467441982848  0.11082886212832221  1.0000
  N   N4        1.0  0.3450412948441155  0.095246395909669  0.889168403139628  1.0000
  O   O1        1.0  0.7091495250919947  0.06039955818064161  0.4221351414112675  1.0000
  O   O2        1.0  0.29084687894658146  0.9396017180089657  0.5778641115785703  1.0000
  O   O3        1.0  0.9069182063715858  0.0953259487080729  0.46170784170598006  1.0000
  O   O4        1.0  0.0930774796953457  0.9046744234724571  0.538291641986298  1.0000
  O   O5        1.0  0.03548997287289522  0.8670323896903511  0.33114605221545906  1.0000
  O   O6        1.0  0.9645084706096793  0.1329670784811086  0.6688544259004986  1.0000
  O   O7        1.0  0.060533126374693234  0.7024828502420846  0.4289597091353556  1.0000
  O   O8        1.0  0.9394641586454499  0.29751661792937517  0.5710402523956049  1.0000
  O   O9        1.0  0.851722252940938  0.7490890379900252  0.649820449813113  1.0000
  O   O10       1.0  0.14826427989751076  0.2509158542358776  0.35018241637078523  1.0000
  O   O11       1.0  0.6078974085994772  0.8047217563298192  0.7907918957447748  1.0000
  O   O12       1.0  0.39209104921205545  0.1952768078325704  0.2092086105624276  1.0000
  O   O13       1.0  0.7373349412827751  0.8141623230770207  0.4153792790730506  1.0000
  O   O14       1.0  0.26266741807786076  0.18583624108536875  0.5846227100515763  1.0000
  O   O15       1.0  0.5647326357109178  0.9381281832203074  0.6234232645691904  1.0000
  O   O16       1.0  0.4352639313375875  0.0618703809420822  0.3765769276642175  1.0000
  O   O17       1.0  0.7674378830313202  0.011677085193291201  0.6866916500277114  1.0000
  O   O18       1.0  0.2325553231008256  0.9883259990144638  0.31330507521725787  1.0000
  O   O19       1.0  0.5246925780363512  0.8732682442744918  0.15252001897005132  1.0000
  O   O20       1.0  0.47531761308040643  0.12672851186975012  0.8474763458006436  1.0000
