data_image0
_chemical_formula_structural       Cd4Fe2H28C24O32
_chemical_formula_sum              "Cd4 Fe2 H28 C24 O32"
_cell_length_a       6.037384322005983
_cell_length_b       9.845332956302098
_cell_length_c       14.816029066600832
_cell_angle_alpha    89.99900487080868
_cell_angle_beta     90.000463824915
_cell_angle_gamma    101.33853913443141

_space_group_name_H-M_alt    "P 1"
_space_group_IT_number       1

loop_
  _space_group_symop_operation_xyz
  'x, y, z'

loop_
  _atom_site_type_symbol
  _atom_site_label
  _atom_site_symmetry_multiplicity
  _atom_site_fract_x
  _atom_site_fract_y
  _atom_site_fract_z
  _atom_site_occupancy
  Cd  Cd1       1.0  0.5879635739578432  0.8343641202049452  0.4024251801433535  1.0000
  Cd  Cd2       1.0  0.41203334228374894  0.6656378689227722  0.9024242054196916  1.0000
  Cd  Cd3       1.0  0.41203840991351387  0.16563927446200927  0.5975761747918114  1.0000
  Cd  Cd4       1.0  0.5879630063366293  0.3343634565230644  0.0975744497393336  1.0000
  Fe  Fe1       1.0  0.9999989284301095  0.5000010003938941  0.500000494423176  1.0000
  Fe  Fe2       1.0  7.976284735780505e-07  0.9999985747629554  0.9999976713829  1.0000
  H   H1        1.0  0.1914931471721318  0.8806836882093594  0.4671352515639455  1.0000
  H   H2        1.0  0.8085075243466877  0.6193208434342383  0.9671334265324275  1.0000
  H   H3        1.0  0.8085101592353896  0.1193186696959643  0.5328634036006646  1.0000
  H   H4        1.0  0.19148947977839734  0.38067737339415686  0.032862528866886  1.0000
  H   H5        1.0  0.2794459172000074  0.015458491208754302  0.413673968893029  1.0000
  H   H6        1.0  0.7205539465023277  0.48454056951771923  0.9136764143285345  1.0000
  H   H7        1.0  0.7205570556957709  0.9845428307603187  0.5863253612216894  1.0000
  H   H8        1.0  0.279437088887974  0.5154545420948793  0.08632224085750548  1.0000
  H   H9        1.0  0.8273057006068427  0.8367514394389345  0.7305391205558605  1.0000
  H   H10       1.0  0.17269877459757768  0.6632485789193368  0.23054069105744185  1.0000
  H   H11       1.0  0.1727009179443613  0.16325091671549793  0.2694608845036157  1.0000
  H   H12       1.0  0.8272959179828874  0.33675274733517563  0.7694626887115987  1.0000
  H   H13       1.0  0.05930638110556434  0.7670721891764956  0.7652499783980315  1.0000
  H   H14       1.0  0.9406922137811977  0.7329280101336693  0.2652526181772856  1.0000
  H   H15       1.0  0.9407065281973387  0.23292912758995504  0.23474935173319264  1.0000
  H   H16       1.0  0.05930148974292143  0.26707538888549465  0.7347473868547494  1.0000
  H   H17       1.0  0.7579957082229071  0.5627818239138449  0.7549641336021793  1.0000
  H   H18       1.0  0.24201038983985498  0.937221734131064  0.2549634493345607  1.0000
  H   H19       1.0  0.2420056086209854  0.43721949888895045  0.24503789628850103  1.0000
  H   H20       1.0  0.7579859587845164  0.0627795913064233  0.7450358807691443  1.0000
  H   H21       1.0  0.5610363858680361  0.6269241562783351  0.6888904025024658  1.0000
  H   H22       1.0  0.43897322057249977  0.8730737808826704  0.1888884116439513  1.0000
  H   H23       1.0  0.4389675875749361  0.3730802734744644  0.3111089275959883  1.0000
  H   H24       1.0  0.5610261066678603  0.1269265069010501  0.8111102435259951  1.0000
  H   H25       1.0  0.1317722381314965  0.5685564412960602  0.6759304142293131  1.0000
  H   H26       1.0  0.8682412057486175  0.9314490669962439  0.17592917427020888  1.0000
  H   H27       1.0  0.8682294007133392  0.4314407369363451  0.324070940741123  1.0000
  H   H28       1.0  0.13176077810678782  0.06855432770409212  0.8240694808862299  1.0000
  C   C1        1.0  0.8191254449867246  0.7272522691764324  0.5506906041884604  1.0000
  C   C2        1.0  0.18088747254524415  0.7727387221233785  0.050692963898228485  1.0000
  C   C3        1.0  0.18088813135960896  0.2727511194207963  0.4493107507659672  1.0000
  C   C4        1.0  0.819110198643223  0.2272615664940575  0.9493083910476939  1.0000
  C   C5        1.0  0.9060756138086247  0.6825371793820452  0.6405598904317313  1.0000
  C   C6        1.0  0.0939400569205732  0.8174671301144799  0.1405546964770394  1.0000
  C   C7        1.0  0.0939326608064448  0.3174651759136253  0.3594394396858148  1.0000
  C   C8        1.0  0.9060569472284572  0.18253108666383613  0.8594453085903593  1.0000
  C   C9        1.0  0.9796532760539238  0.8036151279657561  0.70564287991931  1.0000
  C   C10       1.0  0.020329375886468937  0.6963855173742531  0.2056442377607084  1.0000
  C   C11       1.0  0.0203556655926036  0.19638929918573209  0.2943564501874008  1.0000
  C   C12       1.0  0.9796702848815927  0.3036158063123367  0.7943564422378626  1.0000
  C   C13       1.0  0.13716795665210668  0.9292738408622724  0.6685127259407508  1.0000
  C   C14       1.0  0.8628374526920269  0.5707328911468681  0.1685109035225949  1.0000
  C   C15       1.0  0.8628336936835695  0.07072851791850349  0.3314852542764228  1.0000
  C   C16       1.0  0.13715988499267695  0.42926636151762637  0.831492476262788  1.0000
  C   C17       1.0  0.7114484693013664  0.579775314850643  0.6847508132077776  1.0000
  C   C18       1.0  0.28854718413771974  0.9202258402533448  0.1847504793387884  1.0000
  C   C19       1.0  0.28855450361037777  0.4202260070850484  0.31525121668565953  1.0000
  C   C20       1.0  0.7114478304277227  0.0797713414641663  0.8152495257312748  1.0000
  C   C21       1.0  0.6410671128477078  0.4397523769050409  0.6401484596426811  1.0000
  C   C22       1.0  0.35893413975679783  0.06024722937643649  0.14014643631526974  1.0000
  C   C23       1.0  0.35893751613587443  0.5602489441552053  0.3598542451981857  1.0000
  C   C24       1.0  0.6410625308645307  0.9397499514990102  0.8598515439235044  1.0000
  O   O1        1.0  0.8603701300496028  0.6645090178904525  0.47925286461693867  1.0000
  O   O2        1.0  0.13962669403375835  0.8354879635285714  0.9792443027022484  1.0000
  O   O3        1.0  0.13963250934641283  0.3354912681173304  0.520749165281913  1.0000
  O   O4        1.0  0.8603676534962401  0.164507146341478  0.0207550274339781  1.0000
  O   O5        1.0  0.6955404783145056  0.8185872577652589  0.550012903005225  1.0000
  O   O6        1.0  0.30444033339655624  0.6814172364741253  0.0500120013090708  1.0000
  O   O7        1.0  0.3044707749365045  0.1814140598349141  0.4499891269019684  1.0000
  O   O8        1.0  0.695553692148451  0.3185820179329255  0.9499907035261258  1.0000
  O   O9        1.0  0.20646301974068862  0.9317873727329485  0.5874634443553288  1.0000
  O   O10       1.0  0.7935347840258515  0.5682110060146641  0.08747289513474499  1.0000
  O   O11       1.0  0.79354558839011  0.0682160184906309  0.41253588575680306  1.0000
  O   O12       1.0  0.2064542733235868  0.431788250977  0.9125311595815544  1.0000
  O   O13       1.0  0.1957264861488568  0.03515029902138882  0.7197429054441853  1.0000
  O   O14       1.0  0.8042810093767372  0.46484837203256296  0.21974984236234715  1.0000
  O   O15       1.0  0.804275164182826  0.964852059767729  0.2802543998283156  1.0000
  O   O16       1.0  0.19572394161178153  0.5351488044489514  0.780252862502955  1.0000
  O   O17       1.0  0.7228522186490026  0.4063075655134086  0.5657145389356444  1.0000
  O   O18       1.0  0.27715013188721127  0.09368973616587081  0.0657105087012297  1.0000
  O   O19       1.0  0.2771444635030704  0.5936947958269486  0.43428681599668545  1.0000
  O   O20       1.0  0.7228511734139645  0.9063064061970534  0.934286121661863  1.0000
  O   O21       1.0  0.49278452469776823  0.3531398192221075  0.6833741952765705  1.0000
  O   O22       1.0  0.5072122592876128  0.14685354018178032  0.18336896524122176  1.0000
  O   O23       1.0  0.507221760357659  0.6468615009626859  0.3166291845117256  1.0000
  O   O24       1.0  0.49278044367734003  0.8531467510786968  0.8166290149730385  1.0000
  O   O25       1.0  0.09189514434024915  0.6149519032227176  0.618867557505048  1.0000
  O   O26       1.0  0.9080957624733587  0.8850539915054796  0.1188764340922859  1.0000
  O   O27       1.0  0.9081131302907862  0.3850504520395717  0.38113447239122417  1.0000
  O   O28       1.0  0.09190555435456817  0.11494733133069698  0.8811228960196757  1.0000
  O   O29       1.0  0.25422235170513136  0.9127117004678741  0.40759425101983726  1.0000
  O   O30       1.0  0.7457779377887591  0.5872901590983162  0.9075925872717149  1.0000
  O   O31       1.0  0.7457789651188093  0.0872896223766517  0.5924044041474446  1.0000
  O   O32       1.0  0.2542167432370164  0.412705986741372  0.09240336813569168  1.0000
