data_image0
_chemical_formula_structural       Sm2H28C44O16
_chemical_formula_sum              "Sm2 H28 C44 O16"
_cell_length_a       8.509275677810066
_cell_length_b       14.237892160955742
_cell_length_c       15.059312820006802
_cell_angle_alpha    114.6369384017347
_cell_angle_beta     106.46853286491235
_cell_angle_gamma    89.98502098549324

_space_group_name_H-M_alt    "P 1"
_space_group_IT_number       1

loop_
  _space_group_symop_operation_xyz
  'x, y, z'

loop_
  _atom_site_type_symbol
  _atom_site_label
  _atom_site_symmetry_multiplicity
  _atom_site_fract_x
  _atom_site_fract_y
  _atom_site_fract_z
  _atom_site_occupancy
  Sm  Sm1       1.0  0.9569928835035454  0.9936234057356967  0.4554354962643995  1.0000
  Sm  Sm2       1.0  0.5014834789868132  0.0065569547140285  0.5442450388253092  1.0000
  H   H1        1.0  0.7922053244363312  0.19680242623278593  0.32827157544495816  1.0000
  H   H2        1.0  0.46463558612244066  0.8037331097871814  0.6720969055143938  1.0000
  H   H3        1.0  0.7894555079642557  0.3627767865510875  0.31058114966569395  1.0000
  H   H4        1.0  0.4799139921912427  0.6378715219887923  0.6899701350840884  1.0000
  H   H5        1.0  0.4122836505187307  0.44530617325983707  0.4601934517134508  1.0000
  H   H6        1.0  0.952837669727053  0.5548223722537386  0.539666575986004  1.0000
  H   H7        1.0  0.4178374455260538  0.2800038952505232  0.47707189477738854  1.0000
  H   H8        1.0  0.9411787746699787  0.7200464274932658  0.5226917338530227  1.0000
  H   H9        1.0  0.685972139973046  0.4661263162975757  0.24520764558778996  1.0000
  H   H10       1.0  0.44220774100595855  0.5339626195608602  0.7549518454464489  1.0000
  H   H11       1.0  0.7336268904526049  0.6425298301893037  0.25534685512965166  1.0000
  H   H12       1.0  0.47924712947413894  0.35749584279206204  0.7448427431802997  1.0000
  H   H13       1.0  0.5773488221615678  0.7747220455533463  0.524974446780291  1.0000
  H   H14       1.0  0.053111555202185995  0.22556564431918957  0.4748470336226874  1.0000
  H   H15       1.0  0.5374979223885886  0.6007757785066871  0.5188818154092941  1.0000
  H   H16       1.0  0.019525109829857033  0.39950385579314224  0.4809990907692807  1.0000
  H   H17       1.0  0.19698926015870932  0.27899762079429286  0.7722756914945138  1.0000
  H   H18       1.0  0.4243613804294169  0.7209498347076176  0.22817582286755556  1.0000
  H   H19       1.0  0.2778153795394685  0.4441405090793111  0.9296445583763455  1.0000
  H   H20       1.0  0.34859305566533283  0.5553789996150726  0.07129329007121747  1.0000
  H   H21       1.0  0.7816425532154553  0.4268730694173541  0.9480919649232716  1.0000
  H   H22       1.0  0.8334027402690507  0.571776481834668  0.051859055864262746  1.0000
  H   H23       1.0  0.7013010219456318  0.2651541371480662  0.7858868604261742  1.0000
  H   H24       1.0  0.9146957633523768  0.7339093796890095  0.21370391371026162  1.0000
  H   H25       1.0  0.24286409250537844  0.07811478604904207  0.3503271274536032  1.0000
  H   H26       1.0  0.8924163379857787  0.9220823568127583  0.6495214532586003  1.0000
  H   H27       1.0  0.017872958375875266  0.9869917938816427  0.14812560954626267  1.0000
  H   H28       1.0  0.870403706031098  0.013223347105366698  0.8518288158168728  1.0000
  C   C1        1.0  0.6201170870912021  0.13252456543849425  0.42254844131472397  1.0000
  C   C2        1.0  0.19784675558702244  0.8675307082607728  0.5770706507751697  1.0000
  C   C3        1.0  0.6067327624604741  0.22845515735665595  0.4046970468589349  1.0000
  C   C4        1.0  0.20258901751404326  0.771797744528186  0.595271664511344  1.0000
  C   C5        1.0  0.7089783150510768  0.2519541253936879  0.35627144451282067  1.0000
  C   C6        1.0  0.35341413237267727  0.7485127061779622  0.6440309717700146  1.0000
  C   C7        1.0  0.7058888916957571  0.3446563871324526  0.3461240010018185  1.0000
  C   C8        1.0  0.36064196973443785  0.6558277411153597  0.6542368056170388  1.0000
  C   C9        1.0  0.6023751376547749  0.4176515916858605  0.38534882440644935  1.0000
  C   C10       1.0  0.2179835786896548  0.5826741121150434  0.6148254888983403  1.0000
  C   C11       1.0  0.49683982333751686  0.39181141016938165  0.4311888756867431  1.0000
  C   C12       1.0  0.06639996615507468  0.6083831281900912  0.5688514841000725  1.0000
  C   C13       1.0  0.49835863845958517  0.2984124856430127  0.4401756367263089  1.0000
  C   C14       1.0  0.0587754579540416  0.7017070973671407  0.5597113143193297  1.0000
  C   C15       1.0  0.6121048144133425  0.5201172584160716  0.38291799378064434  1.0000
  C   C16       1.0  0.2302504457577541  0.48015692272034743  0.6172041069564003  1.0000
  C   C17       1.0  0.6640527043929083  0.5336123914957441  0.3076523287456964  1.0000
  C   C18       1.0  0.35755974584050415  0.4665266296167799  0.6924939350591969  1.0000
  C   C19       1.0  0.6886595841874693  0.6320514563696591  0.31196919415480545  1.0000
  C   C20       1.0  0.37759583180361744  0.36805059529037015  0.6882010395510321  1.0000
  C   C21       1.0  0.66049888380374  0.7203317851994625  0.39103680984754147  1.0000
  C   C22       1.0  0.2701551136028967  0.2798389856089827  0.6090310060509054  1.0000
  C   C23       1.0  0.6013915287988995  0.7071662707885054  0.4635928964309882  1.0000
  C   C24       1.0  0.13857996157937455  0.2930907611060434  0.5363528894915391  1.0000
  C   C25       1.0  0.5779957011528224  0.6086343826812168  0.45958328545568605  1.0000
  C   C26       1.0  0.11932371448585138  0.39164083334605937  0.5404087543286734  1.0000
  C   C27       1.0  0.7076739029353688  0.8257915273110681  0.4009120422717413  1.0000
  C   C28       1.0  0.30720423365255556  0.17431694973575415  0.5990995688491906  1.0000
  C   C29       1.0  0.8914234446643975  0.1652352613204258  0.6700153249889026  1.0000
  C   C30       1.0  0.22056927830739423  0.8347025344567526  0.3296044857412709  1.0000
  C   C31       1.0  0.9437713717977871  0.26242700228760907  0.7684804347858927  1.0000
  C   C32       1.0  0.17473244501564975  0.7370042055199659  0.23158049023682986  1.0000
  C   C33       1.0  0.10654780151906344  0.31288997714078437  0.8109149062520942  1.0000
  C   C34       1.0  0.2953916675998158  0.6866396044456875  0.18952302384402478  1.0000
  C   C35       1.0  0.15121576703074183  0.40557104498980584  0.900488713538941  1.0000
  C   C36       1.0  0.2508244699334626  0.5938333359051525  0.10006566751317073  1.0000
  C   C37       1.0  0.03645299550148451  0.450198597693209  0.9524225133583357  1.0000
  C   C38       1.0  0.08413918677635478  0.5489334863548903  0.047919947448377756  1.0000
  C   C39       1.0  0.8740238554434042  0.39682436086964396  0.9097040521578916  1.0000
  C   C40       1.0  0.9641684230580977  0.6021252102599701  0.09034403269771446  1.0000
  C   C41       1.0  0.8277070874917456  0.3052543957871093  0.8190984140046066  1.0000
  C   C42       1.0  0.008108121250529584  0.6938942767407353  0.18075396902818136  1.0000
  C   C43       1.0  0.12052669783721376  0.0463816013180889  0.2912472520331164  1.0000
  C   C44       1.0  0.829377837768071  0.9539360964575962  0.7086378969658681  1.0000
  O   O1        1.0  0.7496493434508976  0.0892157257164783  0.4155593378070319  1.0000
  O   O2        1.0  0.33425118101914103  0.9106779308977693  0.5838127868518085  1.0000
  O   O3        1.0  0.5032992629415034  0.1008244639477525  0.4450236294852843  1.0000
  O   O4        1.0  0.058432305547292285  0.8992197035069083  0.554550610718586  1.0000
  O   O5        1.0  0.7105936729642861  0.9078381234616585  0.48348920712111  1.0000
  O   O6        1.0  0.22721616484575693  0.09234278153567027  0.5164604462144524  1.0000
  O   O7        1.0  0.7602571252302893  0.8345042062344207  0.3336205721022977  1.0000
  O   O8        1.0  0.4271177111945264  0.1654624676980418  0.6663983683438913  1.0000
  O   O9        1.0  0.9976562789719877  0.12819699308326446  0.6239705410646933  1.0000
  O   O10       1.0  0.3728296750320723  0.8719408555253949  0.37574521953199996  1.0000
  O   O11       1.0  0.7415394313886167  0.12432647366234309  0.6370160688378943  1.0000
  O   O12       1.0  0.10334324706597893  0.875900800130033  0.3619660454616421  1.0000
  O   O13       1.0  0.9901665389806522  0.036055658702665  0.3081927732211367  1.0000
  O   O14       1.0  0.6820791562127508  0.9644815779793701  0.6917048984615589  1.0000
  O   O15       1.0  0.12922449601733632  0.018684069470076295  0.19636965973980117  1.0000
  O   O16       1.0  0.9332103349174826  0.9814387968823864  0.8034989784228299  1.0000
