data_image0
_chemical_formula_structural       Zn6H8C36O24F16
_chemical_formula_sum              "Zn6 H8 C36 O24 F16"
_cell_length_a       16.97126517032888
_cell_length_b       17.010614775029484
_cell_length_c       17.01240024073486
_cell_angle_alpha    100.34981667435792
_cell_angle_beta     114.13573653762545
_cell_angle_gamma    114.16127670257319

_space_group_name_H-M_alt    "P 1"
_space_group_IT_number       1

loop_
  _space_group_symop_operation_xyz
  'x, y, z'

loop_
  _atom_site_type_symbol
  _atom_site_label
  _atom_site_symmetry_multiplicity
  _atom_site_fract_x
  _atom_site_fract_y
  _atom_site_fract_z
  _atom_site_occupancy
  Zn  Zn1       1.0  0.07315011871301638  0.002872568741452099  0.0709817195182723  1.0000
  Zn  Zn2       1.0  0.9268474707496775  0.9971239524405388  0.9290214948851699  1.0000
  Zn  Zn3       1.0  0.9293994780355133  0.42999291526926686  0.5011578254324789  1.0000
  Zn  Zn4       1.0  0.07058273567043451  0.5700149261327281  0.4988323156397101  1.0000
  Zn  Zn5       1.0  0.4979550223306361  0.438518729319341  0.9392264822465324  1.0000
  Zn  Zn6       1.0  0.5020264825012288  0.5614678463840475  0.060742518608925884  1.0000
  H   H1        1.0  0.8399585956074418  0.7235795101038105  0.7165679766375349  1.0000
  H   H2        1.0  0.16007048787462708  0.27651122507697307  0.2833938330929088  1.0000
  H   H3        1.0  0.051913926301381266  0.13641133303114827  0.29574057944545734  1.0000
  H   H4        1.0  0.9482480917706085  0.8636993675494792  0.7043355378447985  1.0000
  H   H5        1.0  0.08401462566023087  0.7627950032849566  0.9035830326588228  1.0000
  H   H6        1.0  0.9158719698011951  0.23710156098039187  0.09639634013561257  1.0000
  H   H7        1.0  0.8306667106509238  0.13109129407689574  0.09480362406194595  1.0000
  H   H8        1.0  0.16932075504160313  0.8688167072198139  0.9052695536357547  1.0000
  C   C1        1.0  0.8627687997650779  0.8566485983492949  0.9973341854648086  1.0000
  C   C2        1.0  0.1371930965668042  0.14335426460691272  0.0026391234611792963  1.0000
  C   C3        1.0  0.7225871667363749  0.7147436076493818  0.002179905143400273  1.0000
  C   C4        1.0  0.2773976899292662  0.28529330560491667  0.9978529603280395  1.0000
  C   C5        1.0  0.13915955662294974  0.5013330393688306  0.6407682029444218  1.0000
  C   C6        1.0  0.8608167768760139  0.498653538045417  0.35920809052976205  1.0000
  C   C7        1.0  0.9940477966683547  0.6154598376998165  0.6150272707881117  1.0000
  C   C8        1.0  0.005932118030642501  0.3845373790744374  0.38496825974181104  1.0000
  C   C9        1.0  0.3631535237877442  0.5030450265649616  0.8613390444244615  1.0000
  C   C10       1.0  0.6368271976644237  0.49685223806950046  0.1385478251464179  1.0000
  C   C11       1.0  0.6435644906267155  0.6384460153010207  0.002741186276416713  1.0000
  C   C12       1.0  0.3564274193553557  0.361616418915993  0.9973155846656356  1.0000
  C   C13       1.0  0.21763423095273265  0.5022250874792603  0.7189245594163225  1.0000
  C   C14       1.0  0.7823474985164295  0.4977217967710032  0.281011569286953  1.0000
  C   C15       1.0  0.28442622878257123  0.5029016253689702  0.7843226043931467  1.0000
  C   C16       1.0  0.7155554434685953  0.4970317849409866  0.2155899295328256  1.0000
  C   C17       1.0  0.008251591706915827  0.8868239268923972  0.8838860936220885  1.0000
  C   C18       1.0  0.9917809909115719  0.11317617188674937  0.1161496903997659  1.0000
  C   C19       1.0  0.9045978976458997  0.7199650957312965  0.7641237396964513  1.0000
  C   C20       1.0  0.09538716169669206  0.28007319795602825  0.23584538458538162  1.0000
  C   C21       1.0  0.9925344481159756  0.1525901273668069  0.2659579472479905  1.0000
  C   C22       1.0  0.007582903892440883  0.8474681255333391  0.7341152285333338  1.0000
  C   C23       1.0  0.9089941837525114  0.6422124158809124  0.7051552443354084  1.0000
  C   C24       1.0  0.09095516603149886  0.35780884467480684  0.2947903667298349  1.0000
  C   C25       1.0  0.014227738752126037  0.23364518131060652  0.3473971296907763  1.0000
  C   C26       1.0  0.9858581996077617  0.7664123363269154  0.652655439955055  1.0000
  C   C27       1.0  0.0958632486093263  0.8008847696232376  0.8598459557965087  1.0000
  C   C28       1.0  0.9041028137229715  0.1990508258961795  0.14018403148581626  1.0000
  C   C29       1.0  0.006978880431041834  0.8155984982426714  0.8130077949176595  1.0000
  C   C30       1.0  0.9930501867551557  0.18441222237247956  0.1870225750568865  1.0000
  C   C31       1.0  0.9957409630841596  0.6886438778028462  0.6851562850721821  1.0000
  C   C32       1.0  0.004258041375265879  0.3113639809472914  0.3148501233765657  1.0000
  C   C33       1.0  0.10000404032825803  0.7428952890076271  0.7834643203932147  1.0000
  C   C34       1.0  0.8999597932197076  0.25704313729548284  0.21656232375195128  1.0000
  C   C35       1.0  0.7876716766098111  0.7790978362272722  7.287360460855421e-05  1.0000
  C   C36       1.0  0.21229961658121244  0.22092346657994705  0.9999281460803289  1.0000
  O   O1        1.0  0.9566353077570182  0.8903793444317426  0.05867493300770837  1.0000
  O   O2        1.0  0.04332278410790736  0.10969156585169054  0.9413660119909651  1.0000
  O   O3        1.0  0.1720303857766012  0.11531255359425066  0.06595678989768322  1.0000
  O   O4        1.0  0.8279377808896483  0.8846109198145553  0.9339343417422299  1.0000
  O   O5        1.0  0.07227819383138705  0.9158656695776058  0.9712243874999944  1.0000
  O   O6        1.0  0.927665173583982  0.08403307986426259  0.028812073687198878  1.0000
  O   O7        1.0  0.05726253703363678  0.09105668022074549  0.15247691376671216  1.0000
  O   O8        1.0  0.9428606074536744  0.9090426473572747  0.847565417566756  1.0000
  O   O9        1.0  0.04680836217119107  0.4397813959337781  0.611211746573666  1.0000
  O   O10       1.0  0.9531722280437335  0.5603171718513592  0.38885979571360013  1.0000
  O   O11       1.0  0.1702499554735865  0.5620295498157118  0.6088489211571684  1.0000
  O   O12       1.0  0.8297390538032517  0.4378953618653226  0.39106215073566386  1.0000
  O   O13       1.0  0.9333621394872507  0.528724735053103  0.5915834405677315  1.0000
  O   O14       1.0  0.06652302703729156  0.471281589886999  0.408313880863986  1.0000
  O   O15       1.0  0.05618417096005851  0.6496419893781392  0.5893454284698196  1.0000
  O   O16       1.0  0.9438935580441595  0.3503602842776344  0.4107391659799975  1.0000
  O   O17       1.0  0.39224794490665715  0.44928996134624544  0.8384103383305402  1.0000
  O   O18       1.0  0.6077262668225812  0.5506094137463718  0.16145602741799078  1.0000
  O   O19       1.0  0.3958995073094654  0.5567502469529656  0.9447403412943133  1.0000
  O   O20       1.0  0.6040873759685257  0.44314206449332255  0.05515168627010084  1.0000
  O   O21       1.0  0.6105896581491377  0.5548159802021286  0.9495815547666595  1.0000
  O   O22       1.0  0.38938533375171847  0.4452429054661592  0.05047825051337178  1.0000
  O   O23       1.0  0.6144920199579147  0.6625021713936263  0.055946535319542245  1.0000
  O   O24       1.0  0.38550360260916255  0.3375822270405989  0.9441115668324968  1.0000
  F   F1        1.0  0.8868705660627682  0.6956740390664604  0.8319878076593454  1.0000
  F   F2        1.0  0.11303614139223576  0.30432380713272517  0.16793090427716356  1.0000
  F   F3        1.0  0.8978121981419777  0.07049508706856498  0.228464366120896  1.0000
  F   F4        1.0  0.10234041583527878  0.929532745061081  0.7716530413104936  1.0000
  F   F5        1.0  0.8144587028818931  0.581277058406229  0.6229509954029738  1.0000
  F   F6        1.0  0.18549809082674062  0.4188037027371151  0.37697362015169494  1.0000
  F   F7        1.0  0.11477851949319264  0.27523561094982796  0.42171784926728867  1.0000
  F   F8        1.0  0.8853340068194909  0.7248821290830206  0.578321086911977  1.0000
  F   F9        1.0  0.9277190132306783  0.5899901825021484  0.7547076472760922  1.0000
  F   F10       1.0  0.07214345266455503  0.40997150506201746  0.24519886658451642  1.0000
  F   F11       1.0  0.9539901645374655  0.1966522831148083  0.3807541048271332  1.0000
  F   F12       1.0  0.046134870937414904  0.8033925165240702  0.6193250934066229  1.0000
  F   F13       1.0  0.12403145910833033  0.6792060802891411  0.8085771554508272  1.0000
  F   F14       1.0  0.8758564185085475  0.3206826993247772  0.19141545589142336  1.0000
  F   F15       1.0  0.8223098836060315  0.19803702080791644  0.2255865360947452  1.0000
  F   F16       1.0  0.17770625719615635  0.8019014629620357  0.774496755315326  1.0000
