data_image0
_chemical_formula_structural       Zn2H24C26N4O8
_chemical_formula_sum              "Zn2 H24 C26 N4 O8"
_cell_length_a       9.594717152168306
_cell_length_b       11.178929659750425
_cell_length_c       11.007803330277005
_cell_angle_alpha    90.83954073161055
_cell_angle_beta     91.11782731520348
_cell_angle_gamma    92.82055105521971

_space_group_name_H-M_alt    "P 1"
_space_group_IT_number       1

loop_
  _space_group_symop_operation_xyz
  'x, y, z'

loop_
  _atom_site_type_symbol
  _atom_site_label
  _atom_site_symmetry_multiplicity
  _atom_site_fract_x
  _atom_site_fract_y
  _atom_site_fract_z
  _atom_site_occupancy
  Zn  Zn1       1.0  0.36301126697551217  0.4944939879188794  0.49379592833182073  1.0000
  Zn  Zn2       1.0  0.6461546368753162  0.5080320753535901  0.4932978078382818  1.0000
  H   H1        1.0  0.22671183078234233  0.09992357792175  0.6519156851049887  1.0000
  H   H2        1.0  0.15154194870972051  0.6580746286890288  0.4055318438198867  1.0000
  H   H3        1.0  0.7472606912445485  0.8079904800780822  0.4360334535517438  1.0000
  H   H4        1.0  0.8325976998240635  0.9472306529174831  0.43730588411136756  1.0000
  H   H5        1.0  0.7300753744693225  0.22368884286554191  0.4044109600247126  1.0000
  H   H6        1.0  0.7842198352061516  0.0964590534620271  0.3348416150896583  1.0000
  H   H7        1.0  0.14958651269083134  0.7089604823246705  0.7491060543016064  1.0000
  H   H8        1.0  0.12055046211142445  0.6573836693348769  0.8981657160482612  1.0000
  H   H9        1.0  0.17673420022404684  0.5570430421680613  0.7839841256262833  1.0000
  H   H10       1.0  0.3490064065698064  0.7701562401138062  0.8985062623538627  1.0000
  H   H11       1.0  0.39693010455017946  0.6961396264539489  0.7654536800014001  1.0000
  H   H12       1.0  0.1608110242069216  0.8720357858281957  0.49673899578779424  1.0000
  H   H13       1.0  0.1212375536662194  0.5650149969739573  0.053252629946236106  1.0000
  H   H14       1.0  0.09307852649190103  0.6634572916935326  0.1770655456954913  1.0000
  H   H15       1.0  0.17835262621050427  0.526767060388494  0.2011387512832741  1.0000
  H   H16       1.0  0.3541458210821844  0.6956314915542166  0.20866403997266053  1.0000
  H   H17       1.0  0.29433376288169916  0.7480705919275294  0.06782773404910362  1.0000
  H   H18       1.0  0.15838145353442462  0.09690204799360909  0.4995126403485699  1.0000
  H   H19       1.0  0.22883393330366897  0.8758921584446853  0.6486627079579463  1.0000
  H   H20       1.0  0.6652027723228786  0.3918088836792395  0.11124359811074672  1.0000
  H   H21       1.0  0.6693108981265044  0.3883068497570293  0.8834503277712857  1.0000
  H   H22       1.0  0.8594891052678264  0.34424768384320004  0.5909926321006083  1.0000
  H   H23       1.0  0.8846509001115238  0.6602046529244135  0.3972113464958156  1.0000
  H   H24       1.0  0.1262793752814133  0.3358586077622476  0.5874276142222927  1.0000
  C   C1        1.0  0.5062600882572356  0.5092504559987461  0.25529388875764886  1.0000
  C   C2        1.0  0.38310758467096667  0.0576074452944511  0.5134693536290912  1.0000
  C   C3        1.0  0.5034876584464599  0.8720461608727419  0.4813924976083825  1.0000
  C   C4        1.0  0.498191452783459  0.1319295836376213  0.4817180431416902  1.0000
  C   C5        1.0  0.6219059279300155  0.9446387234195865  0.4478330184325828  1.0000
  C   C6        1.0  0.6182822462462241  0.0727368737653222  0.4453212773868672  1.0000
  C   C7        1.0  0.2359539865902462  0.059163656803257  0.5609672739706753  1.0000
  C   C8        1.0  0.237752296528882  0.9177064681835677  0.5591550776895319  1.0000
  C   C9        1.0  0.5954382516876111  0.4455738050950444  0.058024789280779004  1.0000
  C   C10       1.0  0.5985419706491584  0.4443629664169819  0.9322422510146638  1.0000
  C   C11       1.0  0.5102559705458704  0.5165666130173817  0.8664765869799993  1.0000
  C   C12       1.0  0.5134843124576491  0.5071087693641018  0.7306460000505411  1.0000
  C   C13       1.0  0.50128099801735  0.5158024095577788  0.1191397194417689  1.0000
  C   C14       1.0  0.41934709070434917  0.5930695828124186  0.9257432544081113  1.0000
  C   C15       1.0  0.41127966967314933  0.5898639319662848  0.0542280898439884  1.0000
  C   C16       1.0  0.3417676165804764  0.682692614311499  0.8509276433626952  1.0000
  C   C17       1.0  0.1879647660544776  0.6492819382160775  0.8194982753175495  1.0000
  C   C18       1.0  0.3097918734299654  0.6664227084947  0.11974656044429112  1.0000
  C   C19       1.0  0.16700268105341115  0.6014311150898024  0.13893033584307096  1.0000
  C   C20       1.0  0.9258555065744223  0.41327107295182236  0.5489930023235416  1.0000
  C   C21       1.0  0.9397386497669161  0.5899188542305609  0.4424295919073202  1.0000
  C   C22       1.0  0.07067210914158302  0.4090645784029263  0.5478527873395082  1.0000
  C   C23       1.0  0.084538998883346  0.587733729118746  0.44449429656154393  1.0000
  C   C24       1.0  0.5039927383166045  0.7397948547700395  0.48985800913995103  1.0000
  C   C25       1.0  0.49215013779117106  0.26409135327843103  0.4863053789389369  1.0000
  C   C26       1.0  0.3848780686459535  0.9338652758426845  0.5119729570087372  1.0000
  N   N1        1.0  0.14823576084670262  0.49669548212077785  0.49609513887628515  1.0000
  N   N2        1.0  0.8618492860944684  0.5033520103408549  0.4954225708177802  1.0000
  N   N3        1.0  0.745567031232639  0.8960987381187098  0.41274191112164976  1.0000
  N   N4        1.0  0.7408004064220749  0.13354476134456658  0.40935799267163026  1.0000
  O   O1        1.0  0.39110775306158274  0.5059311869103879  0.3117380257777782  1.0000
  O   O2        1.0  0.39578278054655414  0.49042771423339815  0.6757076544842989  1.0000
  O   O3        1.0  0.6266707959888934  0.5049977388588403  0.3055356118607477  1.0000
  O   O4        1.0  0.631836532557358  0.5131742740260634  0.6799664954106748  1.0000
  O   O5        1.0  0.3871100731352898  0.6827464147546677  0.5030853225271131  1.0000
  O   O6        1.0  0.3728308085863149  0.3089930049609819  0.48822783273012504  1.0000
  O   O7        1.0  0.6217673647628033  0.6892741411013573  0.48482105416010773  1.0000
  O   O8        1.0  0.6090818277963947  0.3259804523199962  0.4888668275125242  1.0000
