data_image0
_chemical_formula_structural       Sr4P2H16C10N2O16
_chemical_formula_sum              "Sr4 P2 H16 C10 N2 O16"
_cell_length_a       6.862190697200543
_cell_length_b       7.20719424177078
_cell_length_c       11.470819252465166
_cell_angle_alpha    96.13676987834889
_cell_angle_beta     103.87276212722016
_cell_angle_gamma    94.98208739753944

_space_group_name_H-M_alt    "P 1"
_space_group_IT_number       1

loop_
  _space_group_symop_operation_xyz
  'x, y, z'

loop_
  _atom_site_type_symbol
  _atom_site_label
  _atom_site_symmetry_multiplicity
  _atom_site_fract_x
  _atom_site_fract_y
  _atom_site_fract_z
  _atom_site_occupancy
  Sr  Sr1       1.0  0.8047286337787012  0.664781338460216  0.9199022196880905  1.0000
  Sr  Sr2       1.0  0.19527301523227433  0.3352164873381512  0.08009702640126902  1.0000
  Sr  Sr3       1.0  0.4620396075301229  0.8511954256328805  0.1448327943427685  1.0000
  Sr  Sr4       1.0  0.5379624049264464  0.1488052113823102  0.8551675631173126  1.0000
  P   P1        1.0  0.3117839610162036  0.6335029084600098  0.8699064285829438  1.0000
  P   P2        1.0  0.688218235801159  0.3664991347044976  0.13009492086318633  1.0000
  H   H1        1.0  0.22184556587862397  0.648596088290532  0.6531755143320412  1.0000
  H   H2        1.0  0.7781564518539383  0.3514045498064747  0.3468257157294162  1.0000
  H   H3        1.0  0.0953558930337195  0.45795957448622476  0.7020556995279393  1.0000
  H   H4        1.0  0.9046459456140495  0.5420396585432741  0.29794541114883805  1.0000
  H   H5        1.0  0.8505899816073637  0.9437629955282179  0.6359192897013913  1.0000
  H   H6        1.0  0.14940717062926007  0.056234839729377505  0.36408019275008036  1.0000
  H   H7        1.0  0.11557582156313369  0.9372830441436978  0.6606652389361473  1.0000
  H   H8        1.0  0.8844211568646828  0.06271338712819842  0.33933499673202056  1.0000
  H   H9        1.0  0.8431501870868487  0.5794438205514896  0.5220208988540521  1.0000
  H   H10       1.0  0.15684732859536152  0.4205568259229367  0.47797969496814846  1.0000
  H   H11       1.0  0.6599393927843167  0.6719770226954509  0.5893653534221742  1.0000
  H   H12       1.0  0.34005962885733954  0.32802362206830793  0.41063632508114994  1.0000
  H   H13       1.0  0.6038607146236643  0.09490246086927102  0.4245558482532062  1.0000
  H   H14       1.0  0.3961396233406518  0.9050967749526962  0.5754450503438238  1.0000
  H   H15       1.0  0.48955765352756236  0.886857047311615  0.40491698976651247  1.0000
  H   H16       1.0  0.5104417157317015  0.11314640542353525  0.5950831823034265  1.0000
  C   C1        1.0  0.1379920983053964  0.6108618127839948  0.7201575368743252  1.0000
  C   C2        1.0  0.862007091869067  0.38914023488364796  0.2798425158109339  1.0000
  C   C3        1.0  0.9848622844125996  0.9037873245274144  0.6976460189138864  1.0000
  C   C4        1.0  0.015137863914929996  0.0962105040634285  0.3023530150957186  1.0000
  C   C5        1.0  0.7946163508530474  0.596555130595455  0.6073642944332676  1.0000
  C   C6        1.0  0.20538249170381556  0.4034441091007964  0.3926372646853765  1.0000
  C   C7        1.0  0.007318405336270901  0.025795595484183306  0.8190660719870665  1.0000
  C   C8        1.0  0.9926791050699463  0.9742050499084202  0.18093364923375793  1.0000
  C   C9        1.0  0.7237390124396085  0.4022316379181988  0.6349032358641298  1.0000
  C   C10       1.0  0.27626114116391415  0.5977661917544526  0.36509667074684427  1.0000
  N   N1        1.0  0.9513765696244291  0.7018230455495457  0.7083866651667139  1.0000
  N   N2        1.0  0.04862226765643379  0.2981761930648971  0.29161402135056147  1.0000
  O   O1        1.0  0.4508608990737385  0.8225660320865132  0.9047849195053249  1.0000
  O   O2        1.0  0.5491396179753778  0.17743460880296888  0.09521609847637788  1.0000
  O   O3        1.0  0.17939966374536453  0.6165346352486553  0.9612707944756527  1.0000
  O   O4        1.0  0.8206023487112046  0.3834660017665357  0.03872956298442888  1.0000
  O   O5        1.0  0.44412222783869026  0.47525438972123624  0.8611292530357205  1.0000
  O   O6        1.0  0.5558799637026794  0.5247476523614623  0.13887122380904063  1.0000
  O   O7        1.0  0.7463513071031683  0.3754259031418385  0.744688217281656  1.0000
  O   O8        1.0  0.2536488517763543  0.624571927612621  0.25531256193069407  1.0000
  O   O9        1.0  0.6378653791585477  0.2805179379342563  0.54393911883016  1.0000
  O   O10       1.0  0.3621334528463223  0.7194812995983714  0.4560606950857463  1.0000
  O   O11       1.0  0.8639339409678969  0.9982627655388612  0.8709543122190554  1.0000
  O   O12       1.0  0.1360678871278793  0.0017364653270135007  0.12904505325497692  1.0000
  O   O13       1.0  0.16021208240908177  0.14645067592010014  0.8616215886941422  1.0000
  O   O14       1.0  0.8397848749147555  0.8535457510245481  0.13837515656853575  1.0000
  O   O15       1.0  0.5636655622584286  0.979438643855531  0.36627154784864774  1.0000
  O   O16       1.0  0.4363317796149744  0.020560598633188903  0.6337297991902491  1.0000
