data_image0
_chemical_formula_structural       K2H38Ru2C44N8O12
_chemical_formula_sum              "K2 H38 Ru2 C44 N8 O12"
_cell_length_a       9.114416043800594
_cell_length_b       11.328370722232094
_cell_length_c       11.54
_cell_angle_alpha    83.33980832045631
_cell_angle_beta     82.84385885304158
_cell_angle_gamma    70.44429402148228

_space_group_name_H-M_alt    "P 1"
_space_group_IT_number       1

loop_
  _space_group_symop_operation_xyz
  'x, y, z'

loop_
  _atom_site_type_symbol
  _atom_site_label
  _atom_site_symmetry_multiplicity
  _atom_site_fract_x
  _atom_site_fract_y
  _atom_site_fract_z
  _atom_site_occupancy
  K   K1        1.0  0.9885351192881305  0.1533779211585795  0.5857115653756323  1.0000
  K   K2        1.0  0.011460670260305568  0.8466252248310937  0.4142868442595997  1.0000
  H   H1        1.0  0.269571107370652  0.9818105916694719  0.4753493012378343  1.0000
  H   H2        1.0  0.7304262021125325  0.0181887953338276  0.5246528530306023  1.0000
  H   H3        1.0  0.9003475801585669  0.9664372771323501  0.08058277065846646  1.0000
  H   H4        1.0  0.09965373827290591  0.0335658688573304  0.9194142284405586  1.0000
  H   H5        1.0  0.6448369404704906  0.1198656178571298  0.029463873179949484  1.0000
  H   H6        1.0  0.3551665895141909  0.8801375281325434  0.9705320417739145  1.0000
  H   H7        1.0  0.5487211190104021  0.3303340843696319  0.11193812903965748  1.0000
  H   H8        1.0  0.45128095938844137  0.669667182126851  0.88806074237597  1.0000
  H   H9        1.0  0.7126011831858251  0.38042163810239055  0.2443791303200911  1.0000
  H   H10       1.0  0.2873979578668796  0.6195786886475005  0.7556236032982682  1.0000
  H   H11       1.0  0.06074892170411776  0.44131909691006393  0.3994703498327609  1.0000
  H   H12       1.0  0.9392517051088872  0.5586802900932284  0.6005314780446297  1.0000
  H   H13       1.0  0.24466776100945253  0.5274177401386737  0.4721179084684977  1.0000
  H   H14       1.0  0.7553313800432593  0.4725825866112174  0.5278830920476096  1.0000
  H   H15       1.0  0.529317814107195  0.3998649951396871  0.4723866667734526  1.0000
  H   H16       1.0  0.4706820527384323  0.6001362713567957  0.5276132887873288  1.0000
  H   H17       1.0  0.6219798393851478  0.1842345005843669  0.40732001429402226  1.0000
  H   H18       1.0  0.378021513220773  0.8157658261655244  0.5926799020769237  1.0000
  H   H19       1.0  0.7924562952743911  0.7381032881144804  0.34386468000233344  1.0000
  H   H20       1.0  0.2075410142087861  0.261896098888819  0.6561348746127251  1.0000
  H   H21       1.0  0.7713669661139305  0.5443754674338948  0.2733299089503944  1.0000
  H   H22       1.0  0.22863182912954022  0.4556229798228131  0.7266696064748217  1.0000
  H   H23       1.0  0.5274981565563905  0.560681950339216  0.1813566126621424  1.0000
  H   H24       1.0  0.472501744463692  0.4393164969174848  0.8186410608638041  1.0000
  H   H25       1.0  0.31250691311874584  0.7700264799248658  0.17148943734797228  1.0000
  H   H26       1.0  0.6874929879013365  0.229971967331835  0.8285082361779743  1.0000
  H   H27       1.0  0.6863941965843167  0.5114833968847208  0.803717733697148  1.0000
  H   H28       1.0  0.31360532445208383  0.4885159901185787  0.1962824698750012  1.0000
  H   H29       1.0  0.6993774898115818  0.4590004290829413  0.9578203723475339  1.0000
  H   H30       1.0  0.30062275701773433  0.5409998976669499  0.042181385922681607  1.0000
  H   H31       1.0  0.801496382364256  0.5605560242955718  0.8903092302661904  1.0000
  H   H32       1.0  0.19850348448137117  0.4394452422009181  0.10968985874346517  1.0000
  H   H33       1.0  0.11833659804584333  0.2411840839491362  0.9040159098882299  1.0000
  H   H34       1.0  0.8816647545600773  0.758816242800755  0.09598400648271621  1.0000
  H   H35       1.0  0.05763474573418394  0.3932707932870656  0.9595955845914262  1.0000
  H   H36       1.0  0.9423655010951325  0.6067295334628255  0.040405307127663485  1.0000
  H   H37       1.0  0.9598684508773375  0.2855701950939178  0.016648731346776885  1.0000
  H   H38       1.0  0.040131795951978716  0.7144301316559734  0.9833521603723128  1.0000
  Ru  Ru1       1.0  0.2672375199871341  0.038824690799359  0.2565340816827444  1.0000
  Ru  Ru2       1.0  0.7327605152889733  0.961175635950525  0.7434661610792475  1.0000
  C   C1        1.0  0.9528892036886205  0.0866728283977665  0.18765913315622373  1.0000
  C   C2        1.0  0.04711176893361115  0.9133284380987234  0.8123398470564213  1.0000
  C   C3        1.0  0.8570915160258539  0.0589888334745297  0.11421056720395477  1.0000
  C   C4        1.0  0.1429086966290073  0.9410143125151436  0.8857874072432139  1.0000
  C   C5        1.0  0.7153482961261234  0.1451006331554581  0.08570257578614357  1.0000
  C   C6        1.0  0.2846522623379715  0.8549043923273985  0.9142951506496573  1.0000
  C   C7        1.0  0.6622811909752572  0.2633057187803587  0.13081236270719637  1.0000
  C   C8        1.0  0.3377205074398972  0.7366964874627229  0.8691873056523818  1.0000
  C   C9        1.0  0.7538808932724734  0.2916964031425451  0.2037728839873053  1.0000
  C   C10       1.0  0.24612007934976526  0.7083048633539377  0.7962295624298434  1.0000
  C   C11       1.0  0.9006877430590027  0.2079029583099015  0.23259843580577663  1.0000
  C   C12       1.0  0.09931067220078664  0.792096428693391  0.7674044762167753  1.0000
  C   C13       1.0  0.9811924009186868  0.2573091957617493  0.312397410751494  1.0000
  C   C14       1.0  0.018807845910629298  0.7426911309881419  0.6876043475187217  1.0000
  C   C15       1.0  0.2342358379383214  0.2641543099550674  0.3607625386539226  1.0000
  C   C16       1.0  0.7657636830980722  0.7358450770482321  0.6392393980204788  1.0000
  C   C17       1.0  0.18322092363271028  0.3852284419325401  0.40114185312764056  1.0000
  C   C18       1.0  0.8167797031802946  0.6147709450707595  0.5988582416474983  1.0000
  C   C19       1.0  0.2884798791474027  0.43363009027501676  0.4409281288638028  1.0000
  C   C20       1.0  0.711519641888998  0.5663692967282756  0.5590720747083467  1.0000
  C   C21       1.0  0.4462916269348511  0.3623775637440971  0.4423531339158515  1.0000
  C   C22       1.0  0.5537075141178533  0.637622763005794  0.5576461334979967  1.0000
  C   C23       1.0  0.4995035192812481  0.24059016410150488  0.406781675265151  1.0000
  C   C24       1.0  0.5004967275480682  0.7594101626483863  0.5932192164539315  1.0000
  C   C25       1.0  0.39559772541625193  0.1899030520415437  0.3674396286489737  1.0000
  C   C26       1.0  0.6044010356527708  0.8100982144549391  0.6325587026065733  1.0000
  C   C27       1.0  0.5720827248400226  0.9712685143739463  0.3414735739421815  1.0000
  C   C28       1.0  0.4279119931062639  0.0287318123759448  0.6585278617619821  1.0000
  C   C29       1.0  0.5670421870701502  0.8537174923787276  0.29454897330474233  1.0000
  C   C30       1.0  0.4329554682222609  0.1462837741177623  0.7054511998500741  1.0000
  C   C31       1.0  0.6900083128250217  0.7412345237668845  0.3031538600750848  1.0000
  C   C32       1.0  0.3099886166744739  0.2587658029830067  0.6968456249327915  1.0000
  C   C33       1.0  0.6778099915108557  0.6339991001379417  0.26256666786588306  1.0000
  C   C34       1.0  0.32218880373261527  0.365999347118759  0.737433714110459  1.0000
  C   C35       1.0  0.5425733577678146  0.6423130382582372  0.2130039748388981  1.0000
  C   C36       1.0  0.457426163268579  0.3576863487450552  0.7869927625287473  1.0000
  C   C37       1.0  0.4225524192922805  0.7572478057347638  0.20701994027105997  1.0000
  C   C38       1.0  0.5774459959675086  0.2427515812685286  0.792978638995848  1.0000
  C   C39       1.0  0.9017641770673351  0.3689275975067829  0.8459434993912751  1.0000
  C   C40       1.0  0.09823790133150113  0.6310736689896999  0.1540571051266042  1.0000
  C   C41       1.0  0.7624255940801703  0.4820458348164109  0.8752263859761129  1.0000
  C   C42       1.0  0.2375735469725343  0.5179544919334802  0.12477461453998727  1.0000
  C   C43       1.0  0.017839751442259928  0.318403061607647  0.9358616616617111  1.0000
  C   C44       1.0  0.9821619811473425  0.6815963253956525  0.06413832431640998  1.0000
  N   N1        1.0  0.3220232276162207  0.0925537625852613  0.1156269979041795  1.0000
  N   N2        1.0  0.6779773991967775  0.9074456244180311  0.8843722303198264  1.0000
  N   N3        1.0  0.1401320801405745  0.2120632164831306  0.3078065625299757  1.0000
  N   N4        1.0  0.8598674408958192  0.7879361705201617  0.6921953741444327  1.0000
  N   N5        1.0  0.43907293000934544  0.0687809929877545  0.32967155201115617  1.0000
  N   N6        1.0  0.5609247252830727  0.9312202735087283  0.6703286211436607  1.0000
  N   N7        1.0  0.4355764707629035  0.8593071051219779  0.2469245689319735  1.0000
  N   N8        1.0  0.5644219444968853  0.1406922818813214  0.7530740103349416  1.0000
  O   O1        1.0  0.3646526483044994  0.1309367724852777  0.021962133871859593  1.0000
  O   O2        1.0  0.6353480468574163  0.8690569760384506  0.9780394626914841  1.0000
  O   O3        1.0  0.20468909625109438  0.9750462956832706  0.4158896441767652  1.0000
  O   O4        1.0  0.7953104247852992  0.0249530913200218  0.5841096928442582  1.0000
  O   O5        1.0  0.08310660540173131  0.9939408407094633  0.2125145846750414  1.0000
  O   O6        1.0  0.9168918098580648  0.0060585462938363  0.7874857276941256  1.0000
  O   O7        1.0  0.898596382673354  0.3414183954500984  0.3782780174096487  1.0000
  O   O8        1.0  0.10140386415596235  0.6585819312997856  0.6217246074116929  1.0000
  O   O9        1.0  0.6915070225737027  0.9685272735582017  0.387268657277815  1.0000
  O   O10       1.0  0.30849249846269094  0.0314721134450977  0.6127315462943344  1.0000
  O   O11       1.0  0.9175934737022902  0.3190815586487759  0.753680801147695  1.0000
  O   O12       1.0  0.08240971047315784  0.680919707847714  0.2463196945731738  1.0000
