data_image0
_chemical_formula_structural       Cu2H32C34I2N8
_chemical_formula_sum              "Cu2 H32 C34 I2 N8"
_cell_length_a       8.521434358853163
_cell_length_b       9.514189122481147
_cell_length_c       10.63065479990349
_cell_angle_alpha    85.23879491826345
_cell_angle_beta     75.88330075864154
_cell_angle_gamma    72.67884519787263

_space_group_name_H-M_alt    "P 1"
_space_group_IT_number       1

loop_
  _space_group_symop_operation_xyz
  'x, y, z'

loop_
  _atom_site_type_symbol
  _atom_site_label
  _atom_site_symmetry_multiplicity
  _atom_site_fract_x
  _atom_site_fract_y
  _atom_site_fract_z
  _atom_site_occupancy
  Cu  Cu1       1.0  0.4087912764230808  0.454775501738908  0.10952571997134444  1.0000
  Cu  Cu2       1.0  0.5912052425679806  0.5452278185092184  0.8904689191374331  1.0000
  H   H1        1.0  0.48024355020199033  0.581526317320588  0.3599182541199255  1.0000
  H   H2        1.0  0.5197567186025723  0.41846598417255615  0.6400708387639895  1.0000
  H   H3        1.0  0.4158029730077428  0.6947793229341244  0.5799871546494799  1.0000
  H   H4        1.0  0.5842129261843001  0.30519873334132086  0.4200056553789295  1.0000
  H   H5        1.0  0.12042479874867235  0.799140069810811  0.7004198123492245  1.0000
  H   H6        1.0  0.8795948530535542  0.20084463714275813  0.29957931832469586  1.0000
  H   H7        1.0  0.8796872737825798  0.7917428531833509  0.6130774610749725  1.0000
  H   H8        1.0  0.1203280275981555  0.208258377406267  0.38692222099114565  1.0000
  H   H9        1.0  0.0038097128887243934  0.554232405722793  0.1763523530923834  1.0000
  H   H10       1.0  0.9961801265890035  0.44576537527329657  0.8236524327541657  1.0000
  H   H11       1.0  0.7298950312155486  0.6611136185819008  0.5050643188852463  1.0000
  H   H12       1.0  0.270105134246684  0.33889304396388553  0.49493784562895365  1.0000
  H   H13       1.0  0.7316403702812337  0.604425344226314  0.349892975936406  1.0000
  H   H14       1.0  0.2683560656027311  0.3955779899649059  0.6501110849372651  1.0000
  H   H15       1.0  0.5300304966938045  0.8505474634407193  0.4057867290930801  1.0000
  H   H16       1.0  0.4699630806728975  0.14945364451563137  0.5942152182175064  1.0000
  H   H17       1.0  0.6937470701221431  0.9226879118880263  0.4212010229124842  1.0000
  H   H18       1.0  0.3062454701559645  0.07731981314277192  0.5788034562939401  1.0000
  H   H19       1.0  0.8232514258099498  0.8940170483116108  0.1876325164059338  1.0000
  H   H20       1.0  0.17674585620287792  0.10598739218225012  0.8123703610746489  1.0000
  H   H21       1.0  0.7007913596780783  0.7791528026167072  0.16996371167007138  1.0000
  H   H22       1.0  0.29920556896124856  0.2208527361274477  0.8300372707741276  1.0000
  H   H23       1.0  0.41803445204744355  0.7719235091994817  0.1676392286345916  1.0000
  H   H24       1.0  0.5819691245759914  0.2280765565594791  0.8323646537998287  1.0000
  H   H25       1.0  0.138594088048663  0.8407920175742873  0.11380788230399468  1.0000
  H   H26       1.0  0.8614073368045113  0.1592036254492299  0.8861976766401158  1.0000
  H   H27       1.0  0.9880117233028761  0.1034712490306973  0.07498091454910845  1.0000
  H   H28       1.0  0.011983687417021743  0.8965243565197127  0.9250229705314935  1.0000
  H   H29       1.0  0.1161211337468799  0.3030925903327528  0.08699833925130922  1.0000
  H   H30       1.0  0.8838739485316439  0.6969041092850219  0.9130008242634348  1.0000
  H   H31       1.0  0.6849831153103381  0.17607981929701572  0.19141170665756146  1.0000
  H   H32       1.0  0.3150147093221207  0.8239268173839207  0.8085824393346143  1.0000
  C   C1        1.0  0.21560937415037534  0.6249362128152143  0.3645201048546838  1.0000
  C   C2        1.0  0.7843818623865534  0.3750648692763008  0.6354738239338856  1.0000
  C   C3        1.0  0.3512127691067592  0.6292135105277196  0.41471318266707863  1.0000
  C   C4        1.0  0.6488023468282834  0.370777772611561  0.585275038854924  1.0000
  C   C5        1.0  0.3136274320833152  0.6928774032992706  0.5357588204574952  1.0000
  C   C6        1.0  0.6863811104774059  0.30711164896843707  0.46423834304237493  1.0000
  C   C7        1.0  0.14561129923745847  0.7517591693629129  0.6053002972496201  1.0000
  C   C8        1.0  0.8544084919466287  0.24822884039389242  0.39469385995844425  1.0000
  C   C9        1.0  0.008871076691796893  0.7475658933464119  0.5573720298382625  1.0000
  C   C10       1.0  0.991137339494671  0.25243419765038777  0.4426299882868959  1.0000
  C   C11       1.0  0.047235743835521725  0.6823479836784615  0.4365126228966361  1.0000
  C   C12       1.0  0.9527731254529644  0.3176509923363326  0.5634799841470511  1.0000
  C   C13       1.0  0.051525852807429835  0.5873822152383851  0.251740302819627  1.0000
  C   C14       1.0  0.9484717263041489  0.41261781025885824  0.7482600213983018  1.0000
  C   C15       1.0  0.7632854087114751  0.6847096764411306  0.40058085462398924  1.0000
  C   C16       1.0  0.23671029549335296  0.3152958584336005  0.5994222427063818  1.0000
  C   C17       1.0  0.665106151018655  0.8411177194203248  0.3695211886731684  1.0000
  C   C18       1.0  0.3348899314918016  0.15888671302118235  0.6304809771641118  1.0000
  C   C19       1.0  0.699556616541962  0.8738790604827715  0.2234676358265943  1.0000
  C   C20       1.0  0.300440303786651  0.12612647965568868  0.7765342887940889  1.0000
  C   C21       1.0  0.42022177165358  0.0011657621847759995  0.1632971114469086  1.0000
  C   C22       1.0  0.5797750176038932  0.9988364737561428  0.8367088444631393  1.0000
  C   C23       1.0  0.3514170079137102  0.8872089482075509  0.1547987611958845  1.0000
  C   C24       1.0  0.648580907949949  0.11278998182801563  0.8452053424114041  1.0000
  C   C25       1.0  0.19429708478900654  0.9276475371655482  0.12333665903530999  1.0000
  C   C26       1.0  0.8057032134579745  0.07235141176332148  0.8766707522115595  1.0000
  C   C27       1.0  0.11032303381669813  0.07585726564641251  0.10047706516372298  1.0000
  C   C28       1.0  0.8896719985975637  0.9241394423372213  0.8995277514099627  1.0000
  C   C29       1.0  0.18049530126806707  0.1891613143539104  0.10725063985113792  1.0000
  C   C30       1.0  0.8195019244700036  0.8108398093936274  0.8927477893304142  1.0000
  C   C31       1.0  0.3379253937467652  0.1507417454873377  0.13908149918223958  1.0000
  C   C32       1.0  0.6620681753092231  0.849259363863325  0.8609213903048385  1.0000
  C   C33       1.0  0.5774021534428473  0.14386791434380797  0.1795426717908768  1.0000
  C   C34       1.0  0.42259627179759474  0.8561332174560691  0.8204564690339707  1.0000
  I   I1        1.0  0.715837586123648  0.4743448578146784  0.10094496198070861  1.0000
  I   I2        1.0  0.28415974575344183  0.5256595743133232  0.8990522624409394  1.0000
  N   N1        1.0  0.21360125087627327  0.5676640122843108  0.248581174780476  1.0000
  N   N2        1.0  0.7863944136752181  0.4323382030554867  0.7514155898978814  1.0000
  N   N3        1.0  0.9462855412980249  0.655525430735139  0.36239779243172165  1.0000
  N   N4        1.0  0.053711740714810226  0.3444790097587215  0.637605085048861  1.0000
  N   N5        1.0  0.5724512888793641  0.0012668280174920998  0.18896806239445849  1.0000
  N   N6        1.0  0.427545623138542  0.9987387135152801  0.8110348044027162  1.0000
  N   N7        1.0  0.440905376430976  0.23690347404614442  0.1495869359744972  1.0000
  N   N8        1.0  0.5590919554461209  0.7631009580818572  0.8504102884471507  1.0000
