data_image0
_chemical_formula_structural       Cu4H30C54I4N6
_chemical_formula_sum              "Cu4 H30 C54 I4 N6"
_cell_length_a       10.010790253431162
_cell_length_b       10.634781800453958
_cell_length_c       16.345678126792127
_cell_angle_alpha    100.30998058224348
_cell_angle_beta     97.77238292237816
_cell_angle_gamma    117.08890879702372

_space_group_name_H-M_alt    "P 1"
_space_group_IT_number       1

loop_
  _space_group_symop_operation_xyz
  'x, y, z'

loop_
  _atom_site_type_symbol
  _atom_site_label
  _atom_site_symmetry_multiplicity
  _atom_site_fract_x
  _atom_site_fract_y
  _atom_site_fract_z
  _atom_site_occupancy
  Cu  Cu1       1.0  0.948416188599204  0.5888485979509284  0.02537630970806504  1.0000
  Cu  Cu2       1.0  0.051577689708501906  0.41115315898461097  0.9746210454947644  1.0000
  Cu  Cu3       1.0  0.8066734077853329  0.9397828939727548  0.01672366841953737  1.0000
  Cu  Cu4       1.0  0.1933304080333258  0.06021671487913951  0.9832767816819584  1.0000
  H   H1        1.0  0.002144468644559239  0.5790006803114098  0.20711414227848485  1.0000
  H   H2        1.0  0.9978515608550752  0.4210032239242808  0.7928817939707073  1.0000
  H   H3        1.0  0.8419819619450241  0.5101592730634864  0.3136567280961061  1.0000
  H   H4        1.0  0.1580129266550544  0.4898424047186937  0.6863376483320138  1.0000
  H   H5        1.0  0.45928944678102124  0.4651839697441744  0.12868636349912074  1.0000
  H   H6        1.0  0.5407163844871263  0.5348156208257748  0.8713136502197399  1.0000
  H   H7        1.0  0.6374582175690763  0.5389226470992341  0.03106603398551042  1.0000
  H   H8        1.0  0.3625405599111459  0.4610769996783617  0.968935200341079  1.0000
  H   H9        1.0  0.43584760056094746  0.3243907122632664  0.4797290590534473  1.0000
  H   H10       1.0  0.5641539334585915  0.6756044436815997  0.5202682714059108  1.0000
  H   H11       1.0  0.44290172342684286  0.2085235676057522  0.7386682891721534  1.0000
  H   H12       1.0  0.557100816320407  0.7914716336522218  0.2613309702162995  1.0000
  H   H13       1.0  0.43327017535177254  0.15778562228933884  0.8786525837236141  1.0000
  H   H14       1.0  0.5667283352082394  0.8422095688575979  0.12134570804117571  1.0000
  H   H15       1.0  0.9687249733260545  0.0381553587808483  0.8418334397513902  1.0000
  H   H16       1.0  0.03127824056870339  0.9618507948540655  0.1581658144858481  1.0000
  H   H17       1.0  0.9566694039982195  0.08074335823233271  0.6962585540364616  1.0000
  H   H18       1.0  0.0433379742556212  0.9192649866540277  0.30374129871640315  1.0000
  H   H19       1.0  0.9484318134348229  0.1752626682573606  0.4549085816375397  1.0000
  H   H20       1.0  0.05157727445661936  0.8247490629842035  0.5450954512358521  1.0000
  H   H21       1.0  0.16218368195218605  0.33647682595643863  0.25569696740137  1.0000
  H   H22       1.0  0.8378128131583295  0.663518383472436  0.7443017607460548  1.0000
  H   H23       1.0  0.7614271718274497  0.23283565233088413  0.09350159110992713  1.0000
  H   H24       1.0  0.2385694538902642  0.7671618627048673  0.9065016756332724  1.0000
  H   H25       1.0  0.5272122518998189  0.18051274797225147  0.9921011401435537  1.0000
  H   H26       1.0  0.47278480909582055  0.8194836991498563  0.007903275618211655  1.0000
  H   H27       1.0  0.24837860622674407  0.008103943484258  0.1543268945810397  1.0000
  H   H28       1.0  0.751621782328577  0.9918891104735647  0.8456737837610505  1.0000
  H   H29       1.0  0.475885348071813  0.064426012963537  0.2672164464003615  1.0000
  H   H30       1.0  0.5241127237867715  0.9355703394468974  0.7327843771237214  1.0000
  C   C1        1.0  0.8813154698181621  0.5535384711226217  0.19301676367044965  1.0000
  C   C2        1.0  0.11868314615133362  0.4464665124995689  0.8069789026436639  1.0000
  C   C3        1.0  0.7922574600595028  0.5153569107796302  0.25170906165228507  1.0000
  C   C4        1.0  0.20774159404082582  0.48464692713737617  0.7482846863655155  1.0000
  C   C5        1.0  0.636316912951898  0.4810068722621351  0.22974290937988687  1.0000
  C   C6        1.0  0.3636860277462476  0.5189949968835209  0.7702601503882889  1.0000
  C   C7        1.0  0.5790915596032562  0.4899953380728304  0.14847898875623863  1.0000
  C   C8        1.0  0.4209063461799405  0.5100064756486731  0.8515211744591725  1.0000
  C   C9        1.0  0.6771499598771626  0.5304188403942475  0.09431983204724051  1.0000
  C   C10       1.0  0.3228453600067596  0.4695818783824421  0.9056799876402692  1.0000
  C   C11       1.0  0.5370300493643755  0.4372155856105878  0.2848423128007056  1.0000
  C   C12       1.0  0.4629707109500528  0.5627917320114689  0.7151592961154805  1.0000
  C   C13       1.0  0.4415414776892561  0.3943548298802781  0.32688780771956527  1.0000
  C   C14       1.0  0.5584591794980157  0.605642633033277  0.6731139727953918  1.0000
  C   C15       1.0  0.314446842273739  0.33884137383284235  0.36443676015674953  1.0000
  C   C16       1.0  0.6855492164176837  0.6611549346262962  0.6355620458980626  1.0000
  C   C17       1.0  0.32542052738948263  0.30534949041093984  0.4437280519658131  1.0000
  C   C18       1.0  0.6745802992966788  0.694642417841692  0.5562707080799641  1.0000
  C   C19       1.0  0.1932438511079013  0.2466048928213311  0.4764774674941564  1.0000
  C   C20       1.0  0.806757948690688  0.7533947498708143  0.5235240324529471  1.0000
  C   C21       1.0  0.20009419884380722  0.2100221102058413  0.5555118344609156  1.0000
  C   C22       1.0  0.7999087458484125  0.789979650031654  0.4444869310664289  1.0000
  C   C23       1.0  0.1992916714720465  0.17830217804905146  0.6236575337049431  1.0000
  C   C24       1.0  0.8007108316658391  0.8217008212434821  0.3763468308965657  1.0000
  C   C25       1.0  0.19906639436105422  0.1476834188569001  0.7041185965351886  1.0000
  C   C26       1.0  0.8009369856090987  0.8523172734669445  0.29588131801072143  1.0000
  C   C27       1.0  0.3339241807824109  0.16865993132259402  0.7578078244775172  1.0000
  C   C28       1.0  0.6660787627686489  0.8313418600315146  0.24219216797577303  1.0000
  C   C29       1.0  0.32858986622353104  0.14114012718958693  0.8372807427626654  1.0000
  C   C30       1.0  0.6714137835197392  0.8588649429733763  0.1627190470301586  1.0000
  C   C31       1.0  0.07027210940331939  0.07471293034375041  0.8156322152121193  1.0000
  C   C32       1.0  0.9297329830573345  0.9252910705437498  0.18436881213943931  1.0000
  C   C33       1.0  0.06431383348846252  0.09876515870394802  0.7351561385914138  1.0000
  C   C34       1.0  0.9356891094920099  0.901236648208474  0.2648444673248562  1.0000
  C   C35       1.0  0.050807570328217415  0.22281420857057543  0.4300185869216335  1.0000
  C   C36       1.0  0.9491962117339838  0.7771931205243378  0.5699839010780394  1.0000
  C   C37       1.0  0.039434510487566916  0.2561081904095204  0.3508155922941328  1.0000
  C   C38       1.0  0.9605626902445863  0.7438903133865152  0.6491835466557989  1.0000
  C   C39       1.0  0.17139563237428493  0.3140566008437773  0.3181746362715856  1.0000
  C   C40       1.0  0.8286027103985916  0.6859440982891484  0.6818248355734653  1.0000
  C   C41       1.0  0.896005994977756  0.22584130616083095  0.300873526148294  1.0000
  C   C42       1.0  0.103992681087064  0.7741484392333434  0.6991260393881475  1.0000
  C   C43       1.0  0.7748272805228636  0.19413662798925907  0.2523553077649439  1.0000
  C   C44       1.0  0.22516030857271127  0.8058532724096779  0.7476488049964021  1.0000
  C   C45       1.0  0.63992170920465  0.156944451173608  0.1911780989431833  1.0000
  C   C46       1.0  0.360080962290951  0.8430530245746226  0.8088244721150987  1.0000
  C   C47       1.0  0.650633499572045  0.1853139345521555  0.11059013997864753  1.0000
  C   C48       1.0  0.349362254448643  0.814685747427504  0.8894120556533808  1.0000
  C   C49       1.0  0.5177685112107114  0.15408944366983232  0.05309202079381241  1.0000
  C   C50       1.0  0.48222596502682086  0.8459058773908411  0.946910824514106  1.0000
  C   C51       1.0  0.36437127176651524  0.060928041325382806  0.1442443453457756  1.0000
  C   C52       1.0  0.6356298224104364  0.9390683069996015  0.8557567437988213  1.0000
  C   C53       1.0  0.4915039702258284  0.09150106651146221  0.20677910459620114  1.0000
  C   C54       1.0  0.5084974257689511  0.9084919860845491  0.7932216622860581  1.0000
  I   I1        1.0  0.22912438090633463  0.65743751444937  0.10237241069298623  1.0000
  I   I2        1.0  0.7708712121742068  0.3425674888165844  0.8976236034635934  1.0000
  I   I3        1.0  0.9426331261762256  0.788771112179724  0.9483502369378771  1.0000
  I   I4        1.0  0.05737210430919503  0.21123499205663884  0.05164735399077362  1.0000
  N   N1        1.0  0.8261194733882891  0.5610327019994443  0.11497767588934245  1.0000
  N   N2        1.0  0.17387541521178929  0.43896897578272853  0.8850167005387846  1.0000
  N   N3        1.0  0.199970051901758  0.0951726416593672  0.8673507761248446  1.0000
  N   N4        1.0  0.8000324563713693  0.9048302176083924  0.13264806730988715  1.0000
  N   N5        1.0  0.37477572287681227  0.09347379183069648  0.0683317879812009  1.0000
  N   N6        1.0  0.6252173095021761  0.9065226296220602  0.9316710466939355  1.0000
