data_image0
_chemical_formula_structural       Zn2H10C32N10O16F6
_chemical_formula_sum              "Zn2 H10 C32 N10 O16 F6"
_cell_length_a       9.539671227851123
_cell_length_b       10.887589469040325
_cell_length_c       19.347491268471902
_cell_angle_alpha    88.01501857189464
_cell_angle_beta     90.3295720474707
_cell_angle_gamma    88.70553472745243

_space_group_name_H-M_alt    "P 1"
_space_group_IT_number       1

loop_
  _space_group_symop_operation_xyz
  'x, y, z'

loop_
  _atom_site_type_symbol
  _atom_site_label
  _atom_site_symmetry_multiplicity
  _atom_site_fract_x
  _atom_site_fract_y
  _atom_site_fract_z
  _atom_site_occupancy
  Zn  Zn1       1.0  0.35446381720432635  0.49661287099757356  0.49797069200484867  1.0000
  Zn  Zn2       1.0  0.6455485130716595  0.503388754125723  0.5020345937226409  1.0000
  H   H1        1.0  0.27087674369177955  0.4615914386449447  0.7185996045770224  1.0000
  H   H2        1.0  0.7291783428884457  0.5384103631992261  0.2813906592939617  1.0000
  H   H3        1.0  0.7183297640955858  0.5130805919568218  0.7233359833587939  1.0000
  H   H4        1.0  0.2817212601220689  0.486937815578223  0.2766820404896535  1.0000
  H   H5        1.0  0.24685442192028967  0.9531380854848878  0.49742365956660006  1.0000
  H   H6        1.0  0.7531115750386163  0.0468669462778593  0.5025712852395472  1.0000
  H   H7        1.0  0.10349422755759008  0.6851565214845368  0.44980608345902334  1.0000
  H   H8        1.0  0.8965108231664516  0.31483350194729814  0.5501900125650181  1.0000
  H   H9        1.0  0.10551643891054849  0.4705179724009483  0.6147093570489304  1.0000
  H   H10       1.0  0.894485528411451  0.5294683965576895  0.3852867758960699  1.0000
  C   C1        1.0  0.47642379702102033  0.7393514878436349  0.5024059433659572  1.0000
  C   C2        1.0  0.5235331225125108  0.2606413331668733  0.49759946315744225  1.0000
  C   C3        1.0  0.49788971574610486  0.4883077047279799  0.6348344483640673  1.0000
  C   C4        1.0  0.5021776544697971  0.5117247827157173  0.365170506313916  1.0000
  C   C5        1.0  0.3679616269240285  0.4730793096701548  0.7469745582566815  1.0000
  C   C6        1.0  0.6320882120492257  0.5269296352206112  0.2530233953062933  1.0000
  C   C7        1.0  0.36642251166024664  0.4722194277921263  0.8187319102166484  1.0000
  C   C8        1.0  0.6336021491113613  0.5277870662768721  0.1812619477800439  1.0000
  C   C9        1.0  0.4884128598784939  0.4865061559002658  0.858296093385931  1.0000
  C   C10       1.0  0.5116034322491884  0.513509226409802  0.141709058428134  1.0000
  C   C11       1.0  0.6131519662264393  0.500837992341694  0.8213885169182048  1.0000
  C   C12       1.0  0.3868667735842877  0.4991668878832913  0.1786286235325178  1.0000
  C   C13       1.0  0.6189117932667827  0.5007989102058304  0.7497020789414321  1.0000
  C   C14       1.0  0.381138174117602  0.4992177485036607  0.2503133775059254  1.0000
  C   C15       1.0  0.4948679339732537  0.487038781538459  0.712240838542371  1.0000
  C   C16       1.0  0.5051880819342642  0.5129845460300048  0.2877657619588945  1.0000
  C   C17       1.0  0.5079763873166598  0.5075403093783423  0.06525549760827688  1.0000
  C   C18       1.0  0.49201578372560556  0.4924752572034168  0.9347491514994176  1.0000
  C   C19       1.0  0.35801011155709256  0.9744875258380504  0.49898858316049655  1.0000
  C   C20       1.0  0.6419540206347136  0.02550462040935031  0.5010075197654231  1.0000
  C   C21       1.0  0.4376938550081632  0.051007314073721916  0.4429957460939775  1.0000
  C   C22       1.0  0.5622609418604653  0.9489784806260458  0.5569999066823001  1.0000
  C   C23       1.0  0.5189393597281365  0.12338704107965981  0.49868330652608955  1.0000
  C   C24       1.0  0.4810194835433278  0.8766061263990821  0.5013107223316524  1.0000
  C   C25       1.0  0.4368593292605568  0.04655066915101  0.5550854038518835  1.0000
  C   C26       1.0  0.5631058737998416  0.9534378754903802  0.4449081479416179  1.0000
  C   C27       1.0  0.9603999548589781  0.5926515105837283  0.5369892336190603  1.0000
  C   C28       1.0  0.0396051812650882  0.40733478724406785  0.4630084487763213  1.0000
  C   C29       1.0  0.050324019274391715  0.604530008410336  0.4708579761760063  1.0000
  C   C30       1.0  0.949681039033223  0.39545911234154846  0.5291376114989105  1.0000
  C   C31       1.0  0.051627926992672685  0.4822660724384776  0.564922304951132  1.0000
  C   C32       1.0  0.9483781872993405  0.5177221383352092  0.4350727737484306  1.0000
  N   N1        1.0  0.5579551528950545  0.3986954834444065  0.9697759128747734  1.0000
  N   N2        1.0  0.4420181236157958  0.6013211500097955  0.030228221634821792  1.0000
  N   N3        1.0  0.5652132570128146  0.40609419339671166  0.0377751218224631  1.0000
  N   N4        1.0  0.4347632121826449  0.5939232059584754  0.9622331389253915  1.0000
  N   N5        1.0  0.1405434882997341  0.49325309333939066  0.49841821497091837  1.0000
  N   N6        1.0  0.8594636280427822  0.5067378674119994  0.5015768368207105  1.0000
  N   N7        1.0  0.23069016962041644  0.4500184928048228  0.8532849362463892  1.0000
  N   N8        1.0  0.769329115416042  0.549988316759972  0.1467001340167187  1.0000
  N   N9        1.0  0.37974151662246663  0.1090745108319382  0.3790694601828903  1.0000
  N   N10       1.0  0.6201935460318353  0.8909003934306982  0.620926309618575  1.0000
  O   O1        1.0  0.358314186418653  0.6890298895894489  0.5001042235626869  1.0000
  O   O2        1.0  0.6416293829112689  0.3109739733599995  0.4999326209054899  1.0000
  O   O3        1.0  0.5972925838870182  0.6878648282952896  0.5043570683746239  1.0000
  O   O4        1.0  0.4026620017170828  0.3121249546010462  0.49562872427525656  1.0000
  O   O5        1.0  0.3801237752571467  0.49025690600641525  0.6032665062191782  1.0000
  O   O6        1.0  0.6199720000844308  0.5097627632773652  0.3967307975531326  1.0000
  O   O7        1.0  0.6178612108166205  0.4876477964436037  0.6063940621220425  1.0000
  O   O8        1.0  0.38223003469779127  0.5124036435397203  0.3936163823873287  1.0000
  O   O9        1.0  0.2342287241389016  0.41445679948103026  0.9147569207537813  1.0000
  O   O10       1.0  0.12272525327722411  0.4664029315111763  0.8179405853666211  1.0000
  O   O11       1.0  0.7657620537899276  0.58556392786803  0.0852301034478202  1.0000
  O   O12       1.0  0.877304506203167  0.5335985038756876  0.18203780877158945  1.0000
  O   O13       1.0  0.2605945490667239  0.0802413353442972  0.3611430176856913  1.0000
  O   O14       1.0  0.45819896216345757  0.18041284487844678  0.3475015965693586  1.0000
  O   O15       1.0  0.739314775276  0.9197318803845677  0.6388827688941773  1.0000
  O   O16       1.0  0.5417088571803603  0.8195356118649856  0.6524649770787363  1.0000
  F   F1        1.0  0.7327659340992271  0.5177630420843116  0.8572431874882226  1.0000
  F   F2        1.0  0.2672457391218259  0.4822315658601398  0.1427807761383306  1.0000
  F   F3        1.0  0.3782878519174915  0.09563267585433982  0.6117766847507724  1.0000
  F   F4        1.0  0.621672341173344  0.9043430051664391  0.3882180270411979  1.0000
  F   F5        1.0  0.9066396420783532  0.684672215409279  0.5735026940922126  1.0000
  F   F6        1.0  0.09337611008722038  0.31530841282398825  0.42649762015270903  1.0000
