data_image0
_chemical_formula_structural       Cd8H32C48N32O16
_chemical_formula_sum              "Cd8 H32 C48 N32 O16"
_cell_length_a       6.614754729004565
_cell_length_b       9.864020276001641
_cell_length_c       24.281927229017917
_cell_angle_alpha    89.99994655678265
_cell_angle_beta     89.99987128120088
_cell_angle_gamma    89.99996110407099

_space_group_name_H-M_alt    "P 1"
_space_group_IT_number       1

loop_
  _space_group_symop_operation_xyz
  'x, y, z'

loop_
  _atom_site_type_symbol
  _atom_site_label
  _atom_site_symmetry_multiplicity
  _atom_site_fract_x
  _atom_site_fract_y
  _atom_site_fract_z
  _atom_site_occupancy
  Cd  Cd1       1.0  0.8606760453039826  0.8649269721222839  0.9604599914152203  1.0000
  Cd  Cd2       1.0  0.13932569948123324  0.6350721405939057  0.4604599930283655  1.0000
  Cd  Cd3       1.0  0.6393234326503717  0.36492606645214215  0.0395402537634126  1.0000
  Cd  Cd4       1.0  0.3606747264153539  0.1350750548132922  0.5395398220023679  1.0000
  Cd  Cd5       1.0  0.13932163896124908  0.13507466554671052  0.0395404505187997  1.0000
  Cd  Cd6       1.0  0.8606765201015988  0.36492544193235693  0.5395404489050293  1.0000
  Cd  Cd7       1.0  0.36067576338994917  0.6350725298607004  0.9604597763417928  1.0000
  Cd  Cd8       1.0  0.6393229578542902  0.8649245552857964  0.4604597962741792  1.0000
  H   H1        1.0  0.7526213625725903  0.32343188423303815  0.8517517047650287  1.0000
  H   H2        1.0  0.24737876076845566  0.1765685199337454  0.3517520362640382  1.0000
  H   H3        1.0  0.7473781574500079  0.8234326793493738  0.14824814430269131  1.0000
  H   H4        1.0  0.25262162305818947  0.6765671504650045  0.6482485867065364  1.0000
  H   H5        1.0  0.24737783346552078  0.6765677258647573  0.1482487371689061  1.0000
  H   H6        1.0  0.75262345881454  0.8234321039492731  0.6482479938398527  1.0000
  H   H7        1.0  0.2526240621368884  0.17656693074916063  0.8517510621435491  1.0000
  H   H8        1.0  0.7473790847512518  0.32343347341787887  0.3517518552267518  1.0000
  H   H9        1.0  0.8086722581170845  0.23558342013863157  0.7551218124615318  1.0000
  H   H10       1.0  0.1913301727366559  0.2644182197561805  0.2551217332063445  1.0000
  H   H11       1.0  0.6913273509645563  0.7355830050060421  0.24487848171233398  1.0000
  H   H12       1.0  0.30867163380125356  0.7644186304362323  0.7448784446570471  1.0000
  H   H13       1.0  0.191328449691845  0.7644182175296735  0.24487862947155747  1.0000
  H   H14       1.0  0.8086735586198798  0.7355824041269657  0.7448778850681633  1.0000
  H   H15       1.0  0.3086733568482741  0.26441761887778636  0.7551211365630975  1.0000
  H   H16       1.0  0.6913290740093672  0.235583007232549  0.2551215854471209  1.0000
  H   H17       1.0  0.9289197679224303  0.9982775004341776  0.7425851468368948  1.0000
  H   H18       1.0  0.0710822592707956  0.5017231264887626  0.2425856526172794  1.0000
  H   H19       1.0  0.5710810866171058  0.4982771391505097  0.257414224170148  1.0000
  H   H20       1.0  0.42891830181533663  0.0017234816942064005  0.7574142129265411  1.0000
  H   H21       1.0  0.07108093988870928  0.0017231234491746007  0.2574148832674652  1.0000
  H   H22       1.0  0.9289184485408554  0.4982764836091603  0.7574143774872725  1.0000
  H   H23       1.0  0.4289181094233712  0.5017244985190886  0.7425853941055536  1.0000
  H   H24       1.0  0.571082405995803  0.9982771421891531  0.24258581717781877  1.0000
  H   H25       1.0  0.981299364404606  0.8530201879569218  0.827161229242293  1.0000
  H   H26       1.0  0.018701966311752496  0.6469792309237051  0.3271617121022246  1.0000
  H   H27       1.0  0.5187016373950969  0.3530210585264443  0.17283819678797843  1.0000
  H   H28       1.0  0.48129693574236393  0.14698077036092633  0.6728380984188362  1.0000
  H   H29       1.0  0.018699831635196104  0.1469794221413494  0.17283880086272063  1.0000
  H   H30       1.0  0.9812972297280566  0.3530203791745664  0.6728383180027963  1.0000
  H   H31       1.0  0.48129755864419366  0.6469795653572561  0.8271618333168433  1.0000
  H   H32       1.0  0.5187007485250702  0.8530198535231154  0.3271619316864474  1.0000
  C   C1        1.0  0.7906526898237372  0.17707055065169902  0.9468084261017182  1.0000
  C   C2        1.0  0.2093481625072826  0.32292760761523454  0.4468083136390746  1.0000
  C   C3        1.0  0.7093484903462156  0.6770736089551692  0.05319230206463029  1.0000
  C   C4        1.0  0.2906535847084156  0.822929480541902  0.553193077547462  1.0000
  C   C5        1.0  0.20934650621385487  0.8229300732315322  0.0531920158320318  1.0000
  C   C6        1.0  0.7906510335313399  0.677070988697139  0.5531921282950591  1.0000
  C   C7        1.0  0.2906537292372846  0.3229260011424131  0.9468077280394597  1.0000
  C   C8        1.0  0.7093486348733933  0.1770701295552116  0.4468073643855561  1.0000
  C   C9        1.0  0.8264350822679417  0.1311451162054027  0.888222464549756  1.0000
  C   C10       1.0  0.173567764283554  0.36885419040815043  0.38822276844909703  1.0000
  C   C11       1.0  0.673563120922175  0.6311450148580847  0.11177745735681549  1.0000
  C   C12       1.0  0.3264354481484587  0.8688538849383253  0.6117777816825551  1.0000
  C   C13       1.0  0.17356411377355838  0.868854493893345  0.1117771537263366  1.0000
  C   C14       1.0  0.826435967070111  0.6311454196886217  0.6117776734834521  1.0000
  C   C15       1.0  0.32643758688999464  0.3688535814544239  0.888222572747928  1.0000
  C   C16       1.0  0.6735652596648903  0.13114572516007436  0.3882218365930754  1.0000
  C   C17       1.0  0.7976601548295291  0.21918432766096174  0.8438750706784787  1.0000
  C   C18       1.0  0.20233700983184383  0.2808150808123885  0.3438753902931282  1.0000
  C   C19       1.0  0.7023394708784706  0.7191851251597116  0.156124817878208  1.0000
  C   C20       1.0  0.29766024476451486  0.7808146865628843  0.6561256050185236  1.0000
  C   C21       1.0  0.2023390412068764  0.7808152824363647  0.1561257830843843  1.0000
  C   C22       1.0  0.7976606744338994  0.719185543071177  0.6561250516410837  1.0000
  C   C23       1.0  0.2976612369365697  0.28081448493916383  0.8438743885684873  1.0000
  C   C24       1.0  0.7023404630437468  0.21918492353410102  0.3438752487438776  1.0000
  C   C25       1.0  0.832435685825793  0.1704436049493836  0.7908319154767014  1.0000
  C   C26       1.0  0.16756342741317803  0.32955693914017564  0.2908322379409043  1.0000
  C   C27       1.0  0.667563989297456  0.6704432826402282  0.2091675797142614  1.0000
  C   C28       1.0  0.3324368013123048  0.8295574210367963  0.7091687389062429  1.0000
  C   C29       1.0  0.16756351021179938  0.8295570189338407  0.2091685264570486  1.0000
  C   C30       1.0  0.8324357686271424  0.6704416571726668  0.7091677921643081  1.0000
  C   C31       1.0  0.3324367185143516  0.32955936881445774  0.7908320385607935  1.0000
  C   C32       1.0  0.6675654182683246  0.17044117527441932  0.2908321148558812  1.0000
  C   C33       1.0  0.8988796671791377  0.037477529093337104  0.7837076917168985  1.0000
  C   C34       1.0  0.10112101650136651  0.46252201757407374  0.2837075927067403  1.0000
  C   C35       1.0  0.6011201427402355  0.5374782344096191  0.2162926774992613  1.0000
  C   C36       1.0  0.39887907742681955  0.9625224529036557  0.7162929219443299  1.0000
  C   C37       1.0  0.1011195288557332  0.9625251223602691  0.21629316204539611  1.0000
  C   C38       1.0  0.8988796913108031  0.5374765787384349  0.7162924373980034  1.0000
  C   C39       1.0  0.39888056507090397  0.46252238947373325  0.7837073526050986  1.0000
  C   C40       1.0  0.6011216303865295  0.037477157194750504  0.2837066963312935  1.0000
  C   C41       1.0  0.9269435417221743  0.9570842568950866  0.8303265433109104  1.0000
  C   C42       1.0  0.0730562511544974  0.5429151547152173  0.33032744410592585  1.0000
  C   C43       1.0  0.5730558428063047  0.4570851100260713  0.1696728433003685  1.0000
  C   C44       1.0  0.42694275639442475  0.04291571234512761  0.6696736413215589  1.0000
  C   C45       1.0  0.07305565431593658  0.042915353202715806  0.1696738986230315  1.0000
  C   C46       1.0  0.9269444566564927  0.4570824278113862  0.6696729978279379  1.0000
  C   C47       1.0  0.42694335323468385  0.5429155138581054  0.8303267749755321  1.0000
  C   C48       1.0  0.5730579514150163  0.9570849115377558  0.3303268006117221  1.0000
  N   N1        1.0  0.040760775025276495  0.6897187206156233  0.923704544254427  1.0000
  N   N2        1.0  0.9592397606658096  0.8102794627362186  0.4237048006442521  1.0000
  N   N3        1.0  0.45924110724389067  0.1897196126676803  0.0762952500761074  1.0000
  N   N4        1.0  0.5407597726905422  0.31028041039138543  0.5762950534055804  1.0000
  N   N5        1.0  0.9592399327880727  0.3102808894827832  0.0762950740211963  1.0000
  N   N6        1.0  0.040759435372805804  0.18971913357615483  0.5762956412898816  1.0000
  N   N7        1.0  0.540758088792522  0.8102799974296461  0.9237056036867557  1.0000
  N   N8        1.0  0.4592409351228142  0.6897191997070209  0.4237045648700501  1.0000
  N   N9        1.0  0.9670931156283445  0.6251769174574167  0.8864662893381876  1.0000
  N   N10       1.0  0.0329092384912286  0.8748254065670125  0.3864654416966077  1.0000
  N   N11       1.0  0.5329081171547612  0.12517589021086203  0.113534046657314  1.0000
  N   N12       1.0  0.46708943257506513  0.3748250611026124  0.6135342825166957  1.0000
  N   N13       1.0  0.032909103955830694  0.3748247202114996  0.1135333289365903  1.0000
  N   N14       1.0  0.9670914693239678  0.12517724488861154  0.6135333529205909  1.0000
  N   N15       1.0  0.46709107888452917  0.8748247336728384  0.8864659834475077  1.0000
  N   N16       1.0  0.5329082516884681  0.6251765765659061  0.38646657124625255  1.0000
  N   N17       1.0  0.8986281731861112  0.5635509863384912  0.8500594094889209  1.0000
  N   N18       1.0  0.10136843364891489  0.9364483799496459  0.3500601438603965  1.0000
  N   N19       1.0  0.6013716103023014  0.06355085813475372  0.1499405380218377  1.0000
  N   N20       1.0  0.39862715140026955  0.4364489957748177  0.6499395570108675  1.0000
  N   N21       1.0  0.1013710228538471  0.43645166511653605  0.1499402087865889  1.0000
  N   N22       1.0  0.898627738840915  0.06355021636199612  0.6499415335614387  1.0000
  N   N23       1.0  0.3986275857363211  0.9364477381776201  0.8500599039122888  1.0000
  N   N24       1.0  0.6013750681944359  0.5635485867547559  0.3500580021200506  1.0000
  N   N25       1.0  0.8899008701304753  0.0027836542620179  0.8812464992436588  1.0000
  N   N26       1.0  0.1100944750066475  0.4972156683754038  0.38124720524802314  1.0000
  N   N27       1.0  0.6100959514196943  0.5027835657426962  0.1187534712866807  1.0000
  N   N28       1.0  0.38990256020333897  0.997217345601939  0.6187537080907077  1.0000
  N   N29       1.0  0.1100968141403555  0.9972169696229756  0.1187527072037753  1.0000
  N   N30       1.0  0.8899032092589466  0.50278191415142  0.6187536485156855  1.0000
  N   N31       1.0  0.38990173284553725  0.49721807192629813  0.8812469706473323  1.0000
  N   N32       1.0  0.6100981476049226  0.0027822644950390002  0.3812471456716935  1.0000
  O   O1        1.0  0.8216423819440448  0.09298916283349713  0.9860734377749764  1.0000
  O   O2        1.0  0.17835512349288507  0.40701093281849404  0.4860745479428061  1.0000
  O   O3        1.0  0.6783558599315781  0.5929892840556975  0.013925674927172301  1.0000
  O   O4        1.0  0.32164351493976534  0.9070088267037735  0.5139263995657259  1.0000
  O   O5        1.0  0.1783568140945775  0.9070094334788763  0.013927004159157298  1.0000
  O   O6        1.0  0.8216440725447072  0.5929896910647302  0.5139258939909439  1.0000
  O   O7        1.0  0.32164484788346925  0.407010326043178  0.9860735315195299  1.0000
  O   O8        1.0  0.6783571928712248  0.09298875582283021  0.4860740423681307  1.0000
  O   O9        1.0  0.7669741744192321  0.798399387825022  0.046838976592766805  1.0000
  O   O10       1.0  0.23302341764019732  0.701600674909223  0.54683983335363  1.0000
  O   O11       1.0  0.7330253709827161  0.29840039626813564  0.9531604701282959  1.0000
  O   O12       1.0  0.2669739172667888  0.20159977498041573  0.4531603683066833  1.0000
  O   O13       1.0  0.23302653339529664  0.20160123605928254  0.9531602298537437  1.0000
  O   O14       1.0  0.7669757783973948  0.2983999489740015  0.4531606085801201  1.0000
  O   O15       1.0  0.2669738250543645  0.7016012414005176  0.0468399718052552  1.0000
  O   O16       1.0  0.7330252787779442  0.7983967937625281  0.5468388381410563  1.0000
