data_image0
_chemical_formula_structural       Zn16H16C96S16N8Cl8O68
_chemical_formula_sum              "Zn16 H16 C96 S16 N8 Cl8 O68"
_cell_length_a       19.644376060328412
_cell_length_b       19.61223725505523
_cell_length_c       33.29657861001917
_cell_angle_alpha    79.26320995061492
_cell_angle_beta     79.0930028285708
_cell_angle_gamma    63.81375575803423

_space_group_name_H-M_alt    "P 1"
_space_group_IT_number       1

loop_
  _space_group_symop_operation_xyz
  'x, y, z'

loop_
  _atom_site_type_symbol
  _atom_site_label
  _atom_site_symmetry_multiplicity
  _atom_site_fract_x
  _atom_site_fract_y
  _atom_site_fract_z
  _atom_site_occupancy
  Zn  Zn1       1.0  0.055003857388669496  0.40158628234258475  0.47690803902878537  1.0000
  Zn  Zn2       1.0  0.9866373907378616  0.48392385878698696  0.5603371841355553  1.0000
  Zn  Zn3       1.0  0.0576825758422004  0.5626852617919481  0.4815589833988482  1.0000
  Zn  Zn4       1.0  0.899509863440194  0.5540470760707874  0.4801067605630961  1.0000
  Zn  Zn5       1.0  0.6954891255685778  0.3494405991393705  0.272152277980048  1.0000
  Zn  Zn6       1.0  0.6892590729412617  0.18996185293029547  0.2657822341587917  1.0000
  Zn  Zn7       1.0  0.7716336253801259  0.2653147329877255  0.19029697022660488  1.0000
  Zn  Zn8       1.0  0.8474029987478955  0.19274756050312192  0.2738931827904096  1.0000
  Zn  Zn9       1.0  0.26644890913134833  0.7660324342087816  0.6885026627861632  1.0000
  Zn  Zn10      1.0  0.3492891581588609  0.6959907199770681  0.7706587220823025  1.0000
  Zn  Zn11      1.0  0.19340262270083744  0.8496392339513716  0.7697844963031243  1.0000
  Zn  Zn12      1.0  0.1930363803314705  0.6859966362785951  0.7663828591999362  1.0000
  Zn  Zn13      1.0  0.5609605878979166  0.06028901219215042  0.9832941865331789  1.0000
  Zn  Zn14      1.0  0.4022115702024464  0.053342753909831134  0.9770369364751159  1.0000
  Zn  Zn15      1.0  0.5584945308160627  0.8993671337537702  0.9784569639453906  1.0000
  Zn  Zn16      1.0  0.4836760524721625  0.9814032417596363  0.05974768102147721  1.0000
  H   H1        1.0  0.7495619013017887  0.4520674471974288  0.3484961830273718  1.0000
  H   H2        1.0  0.0013832708746903998  0.30349807979879967  0.39866676016185204  1.0000
  H   H3        1.0  0.20873497985705566  0.693110304624703  0.6007164468005114  1.0000
  H   H4        1.0  0.041736124486732286  0.5584280067340682  0.6469384523004321  1.0000
  H   H5        1.0  0.464264791804723  0.2394182695433428  0.34206336448432484  1.0000
  H   H6        1.0  0.4825324520412264  0.7013329753495082  0.5998357694536693  1.0000
  H   H7        1.0  0.20475575712029576  0.9795400672205966  0.5992548614316107  1.0000
  H   H8        1.0  0.9501438464252345  0.9636057204732321  0.3435335854423585  1.0000
  H   H9        1.0  0.6459042934446798  0.15237272348294081  0.04843583363762599  1.0000
  H   H10       1.0  0.5994525401546935  0.10765236754210154  0.19963981026979377  1.0000
  H   H11       1.0  0.5422987632485885  0.7687910919964688  0.14859848340049808  1.0000
  H   H12       1.0  0.15968631563268323  0.14198226069738953  0.04140480008388179  1.0000
  H   H13       1.0  0.3022344167648399  0.9955858425475411  0.9030139050214742  1.0000
  H   H14       1.0  0.44791230228621964  0.7473263959518802  0.8479593780539287  1.0000
  H   H15       1.0  0.29862228965654936  0.2832831611608597  0.9033918919448282  1.0000
  H   H16       1.0  0.788526739783414  0.011214147432987414  0.9067997433575029  1.0000
  C   C1        1.0  0.06408396931757207  0.3180164820335348  0.5591594499759508  1.0000
  C   C2        1.0  0.0705258905565103  0.5711393590234478  0.5665722494848495  1.0000
  C   C3        1.0  0.17994465434335885  0.44174022770609855  0.4369671566020656  1.0000
  C   C4        1.0  0.9349638715250134  0.6818377466463585  0.43904752736315084  1.0000
  C   C5        1.0  0.9288930137572178  0.4318878722699181  0.431694951174819  1.0000
  C   C6        1.0  0.8206537416479165  0.560518493758998  0.562720509255456  1.0000
  C   C7        1.0  0.567901169067909  0.310016673872539  0.31294406173080347  1.0000
  C   C8        1.0  0.6783313145174219  0.18915730679170634  0.1787739639217776  1.0000
  C   C9        1.0  0.6939735144227582  0.4311789640755989  0.18974146799631333  1.0000
  C   C10       1.0  0.9356873097451768  0.1849785599779849  0.19237955242037685  1.0000
  C   C11       1.0  0.817584568964797  0.31874166604773535  0.32019242836960865  1.0000
  C   C12       1.0  0.8117496896584412  0.06194091409719246  0.30835820650839446  1.0000
  C   C13       1.0  0.433679301176916  0.6905905644710442  0.6871023213122313  1.0000
  C   C14       1.0  0.31674133014791284  0.8202931829255106  0.8182334992608772  1.0000
  C   C15       1.0  0.18693017914151966  0.9338845847450724  0.6863894547239864  1.0000
  C   C16       1.0  0.0675818411756524  0.809665673691988  0.808302133788011  1.0000
  C   C17       1.0  0.18513047114637968  0.6749683346108242  0.6811417307262743  1.0000
  C   C18       1.0  0.31151088648174846  0.5694598912681311  0.8127264165462262  1.0000
  C   C19       1.0  0.4382292768737201  0.18328219866894804  0.937957115000543  1.0000
  C   C20       1.0  0.43438461664273825  0.9246608738536037  0.9314325770845924  1.0000
  C   C21       1.0  0.6853514725054167  0.9399395260013607  0.9378803208030461  1.0000
  C   C22       1.0  0.56296700956387  0.814455033787972  0.06178243842983017  1.0000
  C   C23       1.0  0.568888185764905  0.06851383933263822  0.06956555459954221  1.0000
  C   C24       1.0  0.3157293572593645  0.06283072537181057  0.060189850304205074  1.0000
  C   C25       1.0  0.8990036654437927  0.40718924274149515  0.4015124911732001  1.0000
  C   C26       1.0  0.8502795264959531  0.34666613700639437  0.3473316382250573  1.0000
  C   C27       1.0  0.827554130113711  0.4502294369789653  0.3864982420080167  1.0000
  C   C28       1.0  0.9229486681663133  0.30483149224836126  0.3611496027482345  1.0000
  C   C29       1.0  0.804706204493776  0.4192712546252153  0.3599770961205733  1.0000
  C   C30       1.0  0.9456142118504471  0.33565787327010105  0.3878087396020077  1.0000
  C   C31       1.0  0.10035793913606027  0.6004211167556974  0.5945530007057369  1.0000
  C   C32       1.0  0.15289273187843827  0.6481982463024138  0.653141923022055  1.0000
  C   C33       1.0  0.1477531431537784  0.6395234807579085  0.5814121934214497  1.0000
  C   C34       1.0  0.1045523326517284  0.6101651820023194  0.6662741431024128  1.0000
  C   C35       1.0  0.17261227068811988  0.6626174842671445  0.6107593305942628  1.0000
  C   C36       1.0  0.07930406926137577  0.587372600989262  0.6369461513240822  1.0000
  C   C37       1.0  0.3053352686358933  0.45553928685173867  0.402312673095757  1.0000
  C   C38       1.0  0.4473451228368219  0.29652306637159137  0.34994926098021745  1.0000
  C   C39       1.0  0.25820499999878876  0.4172735292802726  0.4147844547865489  1.0000
  C   C40       1.0  0.4925661234827102  0.3361492264851407  0.33790192648357475  1.0000
  C   C41       1.0  0.37867314525381346  0.3408041353639319  0.3731653747062111  1.0000
  C   C42       1.0  0.3734474069499925  0.41295270605634465  0.37797454458998186  1.0000
  C   C43       1.0  0.7277230534917862  0.5797631629822461  0.6315555388212744  1.0000
  C   C44       1.0  0.5262583930743645  0.6732541620103871  0.6205416788050043  1.0000
  C   C45       1.0  0.7463979695731026  0.5878997662520928  0.5889743739814007  1.0000
  C   C46       1.0  0.5096619270781488  0.6646517991596491  0.662931232643217  1.0000
  C   C47       1.0  0.6061293405809637  0.641311841882398  0.6092413294032041  1.0000
  C   C48       1.0  0.647935717782886  0.6089142045977807  0.6433425924960828  1.0000
  C   C49       1.0  0.07200339603763689  0.22684374696700615  0.6277943548058288  1.0000
  C   C50       1.0  0.1744007148447437  0.024344677157408456  0.6193527695991248  1.0000
  C   C51       1.0  0.0832484488292238  0.24379648189401576  0.5852382662283517  1.0000
  C   C52       1.0  0.1622000112059396  0.009412183406965369  0.6617105007082955  1.0000
  C   C53       1.0  0.1419122063557694  0.1039865582299058  0.6071852519792101  1.0000
  C   C54       1.0  0.10628115394074907  0.14741052262104393  0.6406603089498332  1.0000
  C   C55       1.0  0.8372072861483202  0.8018269929292783  0.3986417232533269  1.0000
  C   C56       1.0  0.904399316905426  0.9447961426686077  0.34900833843122575  1.0000
  C   C57       1.0  0.9060051816418023  0.7582621929682459  0.415037680368151  1.0000
  C   C58       1.0  0.8353198810047002  0.9869295864254464  0.33338673394257506  1.0000
  C   C59       1.0  0.905079307803433  0.8766428324382503  0.37235351403065653  1.0000
  C   C60       1.0  0.8366764213933847  0.8687368169366964  0.3736752519374561  1.0000
  C   C61       1.0  0.6506624332470281  0.16098695679951894  0.14905176987684846  1.0000
  C   C62       1.0  0.5949193197498203  0.09883392430877071  0.09902653098868798  1.0000
  C   C63       1.0  0.6636145457770014  0.17388985336415871  0.10565513328082687  1.0000
  C   C64       1.0  0.5814026767288425  0.08662136929528692  0.14242724860319808  1.0000
  C   C65       1.0  0.6358326061620188  0.14263682925049886  0.0818268644433502  1.0000
  C   C66       1.0  0.6094594435473154  0.11746673325448133  0.16625246988653686  1.0000
  C   C67       1.0  0.6762992086275759  0.52145526013701  0.12019976153766272  1.0000
  C   C68       1.0  0.5744531916095567  0.7239717325893053  0.1286506360687056  1.0000
  C   C69       1.0  0.6651243964196922  0.504496063200946  0.1628242853626674  1.0000
  C   C70       1.0  0.5879760116520457  0.7388717234023402  0.08635401719372739  1.0000
  C   C71       1.0  0.6080756444375124  0.6444035846803187  0.14089669560762266  1.0000
  C   C72       1.0  0.6456564886153302  0.6010625455397475  0.10752150311810744  1.0000
  C   C73       1.0  0.0853617819566566  0.11780183647019979  0.17979134801402805  1.0000
  C   C74       1.0  0.16929633170081357  0.125181376987392  0.07358209241778009  1.0000
  C   C75       1.0  0.012026863303610497  0.15631097238556887  0.16802199438309628  1.0000
  C   C76       1.0  0.24134511269308226  0.08728577978757808  0.08621422583202329  1.0000
  C   C77       1.0  0.11259547730436027  0.13757168039300177  0.10801833666944557  1.0000
  C   C78       1.0  0.1430427443600379  0.10842633312159217  0.14589438885858635  1.0000
  C   C79       1.0  0.34363341355610527  0.8492783598783118  0.8479084804000788  1.0000
  C   C80       1.0  0.4070195230714261  0.8942938809524247  0.9026423513482766  1.0000
  C   C81       1.0  0.30193584126281076  0.9201116338326895  0.8640128435135919  1.0000
  C   C82       1.0  0.44846460872561517  0.8230383466593735  0.8868326833053074  1.0000
  C   C83       1.0  0.3342298181378851  0.9409747699634179  0.8907061501819553  1.0000
  C   C84       1.0  0.4161019858787469  0.8022069273665903  0.8600728480787367  1.0000
  C   C85       1.0  0.4055301720040774  0.4525459985271991  0.8567280301028147  1.0000
  C   C86       1.0  0.3439288097155283  0.30252632134273216  0.8988589826899157  1.0000
  C   C87       1.0  0.3367190812489864  0.4966597873272249  0.8403508568998459  1.0000
  C   C88       1.0  0.41336639674097597  0.2595056503039713  0.9140297695511348  1.0000
  C   C89       1.0  0.34185239777242765  0.37256967715504163  0.877421557428711  1.0000
  C   C90       1.0  0.40965364452376457  0.38103382607449987  0.8770460358006672  1.0000
  C   C91       1.0  0.947924664488596  0.792125269380804  0.8494129221951849  1.0000
  C   C92       1.0  0.805031386032418  0.9539515130477549  0.8992828391773029  1.0000
  C   C93       1.0  0.9942141368156643  0.8309086803567708  0.8354303850177512  1.0000
  C   C94       1.0  0.7600935366740201  0.9141838545819708  0.9123868146877213  1.0000
  C   C95       1.0  0.8729188852818905  0.9095818744733177  0.8755399840628825  1.0000
  C   C96       1.0  0.877865159520759  0.8371549459938874  0.8714399944477477  1.0000
  S   S1        1.0  0.298976125735912  0.3279727566034084  0.3976438599049885  1.0000
  S   S2        1.0  0.452310390201532  0.42691029326569907  0.3540104346669537  1.0000
  S   S3        1.0  0.6657675738325182  0.6335061078967996  0.5635492026040793  1.0000
  S   S4        1.0  0.5897857587164095  0.6172254434072285  0.68923743415381  1.0000
  S   S5        1.0  0.13399519642523217  0.1618648060148757  0.5609214146036335  1.0000
  S   S6        1.0  0.11277398086293286  0.09098170874233352  0.6870134785108204  1.0000
  S   S7        1.0  0.9690619244988312  0.800694065310054  0.40075298872900333  1.0000
  S   S8        1.0  0.7716608735397725  0.9442248488442715  0.3461079794881812  1.0000
  S   S9        1.0  0.6141206409459982  0.5865046685630726  0.18707371563505149  1.0000
  S   S10       1.0  0.6414805055720122  0.657483258845708  0.06126719689032  1.0000
  S   S11       1.0  0.014163015896400595  0.1785213699482426  0.11510931936108898  1.0000
  S   S12       1.0  0.24099483468650354  0.06738412654012652  0.13951170037407218  1.0000
  S   S13       1.0  0.2759674755410302  0.4513266541267454  0.8514468536771247  1.0000
  S   S14       1.0  0.4764670247439253  0.30294182285193466  0.9022475494016573  1.0000
  S   S15       1.0  0.9527533114966074  0.9217849898410364  0.8507091815374181  1.0000
  S   S16       1.0  0.7988380440029416  0.8238713397756995  0.8957988473883987  1.0000
  N   N1        1.0  0.2931327601776701  0.5287598745870739  0.4136143491185534  1.0000
  N   N2        1.0  0.7800104574676111  0.5505854687777969  0.6628094260648891  1.0000
  N   N3        1.0  0.026629775628279593  0.28073964414281244  0.6577479362101853  1.0000
  N   N4        1.0  0.769017767660486  0.7872379762518447  0.40688909794793904  1.0000
  N   N5        1.0  0.7104432403418597  0.46732251929004326  0.08968071699840859  1.0000
  N   N6        1.0  0.10551999968987497  0.08439274760751658  0.22112368443961117  1.0000
  N   N7        1.0  0.4673638964484752  0.47460778358471595  0.8567452221188246  1.0000
  N   N8        1.0  0.967024377778969  0.7125491305821113  0.845739311296306  1.0000
  Cl  Cl1       1.0  0.766228038298081  0.5415611117243772  0.39772417157814016  1.0000
  Cl  Cl2       1.0  0.9883464567964352  0.21744844863748364  0.345991560463183  1.0000
  Cl  Cl3       1.0  0.17699426238481658  0.6624689343223762  0.5305972956234156  1.0000
  Cl  Cl4       1.0  0.07154510646378039  0.5920965777372018  0.7170553649996803  1.0000
  Cl  Cl5       1.0  0.712564719949519  0.22625763304424118  0.07933846794099253  1.0000
  Cl  Cl6       1.0  0.5306852088286006  0.03596496719484323  0.1691324544232842  1.0000
  Cl  Cl7       1.0  0.21096186860838625  0.9839193059882729  0.853575783756149  1.0000
  Cl  Cl8       1.0  0.538564663398084  0.7583357200193034  0.8978855154183448  1.0000
  O   O1        1.0  0.0004066861313844992  0.49960857606595244  0.4996386954103115  1.0000
  O   O2        1.0  0.06420951656644289  0.31604760382334257  0.5208751269197264  1.0000
  O   O3        1.0  0.019618777122516896  0.5473041070450718  0.5833995922799176  1.0000
  O   O4        1.0  0.13965582652195246  0.512935613648203  0.4381762044442752  1.0000
  O   O5        1.0  0.05188236974056078  0.37556556835958327  0.5763996736550112  1.0000
  O   O6        1.0  0.15963869486117221  0.3874525972823617  0.4518650149841577  1.0000
  O   O7        1.0  0.09807416088349188  0.5712527210384977  0.5287557314921542  1.0000
  O   O8        1.0  0.9927797601580436  0.6659165095810234  0.4574505278160643  1.0000
  O   O9        1.0  0.880877983486492  0.48472584346115594  0.45282333130642627  1.0000
  O   O10       1.0  0.9026901210941884  0.638580068145721  0.43828138480966317  1.0000
  O   O11       1.0  0.0006261271122767002  0.39628428759390016  0.43432143976878007  1.0000
  O   O12       1.0  0.8781662832103407  0.5074414266466717  0.5782902114243597  1.0000
  O   O13       1.0  0.8184893438419251  0.5925502139245608  0.5253862453323846  1.0000
  O   O14       1.0  0.7498975292351062  0.24982593911198578  0.2506240180806003  1.0000
  O   O15       1.0  0.6015725141315541  0.35450407778581894  0.30770730149292547  1.0000
  O   O16       1.0  0.6676690911900777  0.16457840692886788  0.21671290420897543  1.0000
  O   O17       1.0  0.7496282964751585  0.3742852911802785  0.17471502602914768  1.0000
  O   O18       1.0  0.5922531833672763  0.2458998966260282  0.2989813145561726  1.0000
  O   O19       1.0  0.6608422725742285  0.4331198789515795  0.2268253119968691  1.0000
  O   O20       1.0  0.7098167240471369  0.23451823881340053  0.16444259802800323  1.0000
  O   O21       1.0  0.8798690213546221  0.2041228123906222  0.17171263346772744  1.0000
  O   O22       1.0  0.8478854947272508  0.2473838170712525  0.3173247679198211  1.0000
  O   O23       1.0  0.9314955965458294  0.19038975933397506  0.23026713956513584  1.0000
  O   O24       1.0  0.7603239764682924  0.36925315702188743  0.30261571924597763  1.0000
  O   O25       1.0  0.7437286053579512  0.0920645771578776  0.29857068090049665  1.0000
  O   O26       1.0  0.8610597566323576  0.0900082727224643  0.29902071749751247  1.0000
  O   O27       1.0  0.2501510988347277  0.749853068068276  0.7488591483234471  1.0000
  O   O28       1.0  0.3756898077282784  0.7191799652597339  0.6672443594995199  1.0000
  O   O29       1.0  0.35569146185996187  0.7498901764680068  0.8127030901641701  1.0000
  O   O30       1.0  0.1650096176851719  0.9342551896037886  0.7251362223291621  1.0000
  O   O31       1.0  0.43341391020909725  0.6820314162393611  0.7261717704998033  1.0000
  O   O32       1.0  0.2273884791481108  0.8756201917374399  0.6671401214725846  1.0000
  O   O33       1.0  0.25880770780999274  0.8673752674481958  0.8006237672338371  1.0000
  O   O34       1.0  0.1022207999275295  0.8521219616751308  0.8075848200272018  1.0000
  O   O35       1.0  0.18686357574433288  0.6451512823044753  0.718521537598363  1.0000
  O   O36       1.0  0.0883910959251111  0.7540823357915869  0.7875900185886663  1.0000
  O   O37       1.0  0.20969209146270626  0.7254651797773091  0.6646156045784365  1.0000
  O   O38       1.0  0.3621053740520921  0.5915835275587963  0.7940463847707375  1.0000
  O   O39       1.0  0.2398575764832955  0.6020755418708672  0.8091922152388377  1.0000
  O   O40       1.0  0.500811109979807  0.9994473395927984  0.9994154166459237  1.0000
  O   O41       1.0  0.505599174974023  0.1548337260629538  0.9485300649699723  1.0000
  O   O42       1.0  0.39150104319736556  0.9931193909169164  0.9395870946054216  1.0000
  O   O43       1.0  0.6531967118241794  0.8939435000205618  0.9443128139082404  1.0000
  O   O44       1.0  0.3908513723111468  0.1528485108517116  0.9460073274803091  1.0000
  O   O45       1.0  0.6598129878923303  0.004738851341741654  0.95128875097609  1.0000
  O   O46       1.0  0.4971123024797564  0.8807268945902177  0.9455768540581174  1.0000
  O   O47       1.0  0.5858461784826331  0.8146820279349072  0.023172879286867985  1.0000
  O   O48       1.0  0.538339090004797  0.022609914854726316  0.08452003144670779  1.0000
  O   O49       1.0  0.5209037492546073  0.8724259011477288  0.08107326905619056  1.0000
  O   O50       1.0  0.5801863199593597  0.09126073825269289  0.03138235580192369  1.0000
  O   O51       1.0  0.3150793651866692  0.07515500616094775  0.02123514416633299  1.0000
  O   O52       1.0  0.3744200392355239  0.030790080483725953  0.07972759831677928  1.0000
  O   O53       1.0  0.3248954732847976  0.5645824729340844  0.3884193915281741  1.0000
  O   O54       1.0  0.256200043472603  0.548919817336852  0.4469981116914993  1.0000
  O   O55       1.0  0.756656469375116  0.522689016188636  0.6962571636374547  1.0000
  O   O56       1.0  0.8403793083593383  0.5582708592626773  0.6551338576805249  1.0000
  O   O57       1.0  0.0476129248034525  0.26112077044648874  0.6927634773987917  1.0000
  O   O58       1.0  0.9703436660198077  0.338748137439559  0.6474456992536303  1.0000
  O   O59       1.0  0.7264590818657836  0.8142625488424426  0.3790936934115479  1.0000
  O   O60       1.0  0.7560292318968109  0.753043270479971  0.44041308837287113  1.0000
  O   O61       1.0  0.7401189365673556  0.4901432090736008  0.05665354515920029  1.0000
  O   O62       1.0  0.705295087414825  0.4055725358119346  0.09731742565040238  1.0000
  O   O63       1.0  0.16779016540613867  0.07959827599756855  0.22799711939956774  1.0000
  O   O64       1.0  0.0628940259433151  0.06055396774891618  0.24550258435306918  1.0000
  O   O65       1.0  0.5318999432484759  0.42052199950760627  0.8584973469051177  1.0000
  O   O66       1.0  0.4522622416209002  0.5427031500740043  0.8569360596606828  1.0000
  O   O67       1.0  0.911827961882679  0.6985741222789628  0.8437954500992216  1.0000
  O   O68       1.0  0.033985591928996  0.6648721908346005  0.8466969130639085  1.0000
