data_image0
_chemical_formula_structural       Cu2H24C44N4O16
_chemical_formula_sum              "Cu2 H24 C44 N4 O16"
_cell_length_a       8.906137905387988
_cell_length_b       8.906127585621707
_cell_length_c       12.202785375753836
_cell_angle_alpha    96.21275877648304
_cell_angle_beta     96.21273136183628
_cell_angle_gamma    107.1840296733522

_space_group_name_H-M_alt    "P 1"
_space_group_IT_number       1

loop_
  _space_group_symop_operation_xyz
  'x, y, z'

loop_
  _atom_site_type_symbol
  _atom_site_label
  _atom_site_symmetry_multiplicity
  _atom_site_fract_x
  _atom_site_fract_y
  _atom_site_fract_z
  _atom_site_occupancy
  Cu  Cu1       1.0  0.5421046631412524  0.4578950734033357  0.7499994209169216  1.0000
  Cu  Cu2       1.0  0.4578943852829767  0.5421046631181666  0.25000053092597335  1.0000
  H   H1        1.0  0.46288100766381757  0.9145710730370882  0.796940819033331  1.0000
  H   H2        1.0  0.9145693197866152  0.4628803938369543  0.296945823036438  1.0000
  H   H3        1.0  0.5371184475271563  0.08542989712756821  0.20305353055957195  1.0000
  H   H4        1.0  0.08542891911327646  0.5371204837294102  0.7030590729650256  1.0000
  H   H5        1.0  0.480588649331736  0.33108121715694244  0.4925195363676237  1.0000
  H   H6        1.0  0.33108422564010453  0.4805885447384952  0.9925210950645107  1.0000
  H   H7        1.0  0.5194118795045739  0.6689197029634502  0.507482272544749  1.0000
  H   H8        1.0  0.6689197121652342  0.5194124132779337  0.007479356982969437  1.0000
  H   H9        1.0  0.5979210530574548  0.16256615539404612  0.3752286326591658  1.0000
  H   H10       1.0  0.16256633065863485  0.5979169509992491  0.8752280284792205  1.0000
  H   H11       1.0  0.40208132405430064  0.837437143065877  0.6247743417258036  1.0000
  H   H12       1.0  0.8374342719752762  0.4020804385950073  0.12477021946835978  1.0000
  H   H13       1.0  0.78549955373866  0.03463283414483701  0.46630461486500246  1.0000
  H   H14       1.0  0.034630527299263775  0.785494852333443  0.9663046168703742  1.0000
  H   H15       1.0  0.21450320420426305  0.9653716720232315  0.5336960310387084  1.0000
  H   H16       1.0  0.9653670820909924  0.21450013764427214  0.033694009149158405  1.0000
  H   H17       1.0  0.9352456557761145  0.9990865902280465  0.6468537070967315  1.0000
  H   H18       1.0  0.9990861396494639  0.9352458135036771  0.14685401169887777  1.0000
  H   H19       1.0  0.06475489251188551  0.0009143493436099001  0.35314564648908936  1.0000
  H   H20       1.0  0.00091291525865961  0.06475392950157752  0.8531451217018284  1.0000
  H   H21       1.0  0.7313686031722284  0.8526155708044243  0.3100598612303997  1.0000
  H   H22       1.0  0.8526135417028871  0.7313691927699184  0.810065128524485  1.0000
  H   H23       1.0  0.2686312133982228  0.14738658761712034  0.6899346152077966  1.0000
  H   H24       1.0  0.14738433581754154  0.2686304965395649  0.18993964063168525  1.0000
  C   C1        1.0  0.6266566928058168  0.7585678476463685  0.9010164023250908  1.0000
  C   C2        1.0  0.7585660281207681  0.6266525491548196  0.40101951240256983  1.0000
  C   C3        1.0  0.37334464555483043  0.24143193142916178  0.09898046242871317  1.0000
  C   C4        1.0  0.24143077822905215  0.3733435883515099  0.59898323933335  1.0000
  C   C5        1.0  0.5617096750189249  0.8804811892170437  0.9571351980400421  1.0000
  C   C6        1.0  0.8804762940387932  0.5617062482874432  0.45714055050848396  1.0000
  C   C7        1.0  0.43829276693180924  0.11952217408040872  0.04285959192309719  1.0000
  C   C8        1.0  0.11951936085891653  0.4382898614581166  0.5428645632141667  1.0000
  C   C9        1.0  0.4788206245686908  0.9514897956620416  0.8864885354305939  1.0000
  C   C10       1.0  0.9514867030459159  0.47881614745962525  0.38649393048779496  1.0000
  C   C11       1.0  0.5211814560025801  0.0485123793785291  0.11350612768724488  1.0000
  C   C12       1.0  0.048510083852207266  0.5211799705954477  0.6135112765746698  1.0000
  C   C13       1.0  0.5825893121198362  0.9293512891255066  0.07288571798608252  1.0000
  C   C14       1.0  0.929347028836638  0.5825855008102748  0.5728904145969977  1.0000
  C   C15       1.0  0.41741276845143466  0.07065088591506453  0.9271089451317563  1.0000
  C   C16       1.0  0.07064713268118793  0.41740941236889034  0.42711447894053106  1.0000
  C   C17       1.0  0.6559360943177241  0.8468679280096866  0.15303185977401773  1.0000
  C   C18       1.0  0.846865994639977  0.6559346329603742  0.6530377779325178  1.0000
  C   C19       1.0  0.34406449935756456  0.1531330569482421  0.846961764716525  1.0000
  C   C20       1.0  0.1531315085331855  0.3440638551247162  0.34696850126272233  1.0000
  C   C21       1.0  0.5649373957437406  0.27834149817226017  0.5306807138336538  1.0000
  C   C22       1.0  0.2783419129990037  0.5649348528002704  0.03068091143141769  1.0000
  C   C23       1.0  0.43506539709338915  0.7216594385671514  0.4693212817583685  1.0000
  C   C24       1.0  0.7216575511505925  0.43506252200072754  0.9693180616185231  1.0000
  C   C25       1.0  0.6309314324121971  0.1814377215288232  0.4652397552269107  1.0000
  C   C26       1.0  0.18143578434242613  0.6309273712625726  0.9652398027287816  1.0000
  C   C27       1.0  0.3690713125629302  0.8185667716717335  0.5347625275611705  1.0000
  C   C28       1.0  0.8185633184277067  0.3690688152815369  0.034759043475865795  1.0000
  C   C29       1.0  0.7353384901159359  0.11235893143718562  0.5150890934589043  1.0000
  C   C30       1.0  0.11235696101009307  0.7353346106583631  0.01509066690727684  1.0000
  C   C31       1.0  0.2646639064475168  0.8876443864739942  0.4849114255995133  1.0000
  C   C32       1.0  0.8876409967918378  0.2646615546087289  0.9849097228419196  1.0000
  C   C33       1.0  0.7774699065242815  0.1427254075889266  0.6321595642836542  1.0000
  C   C34       1.0  0.142725494219377  0.777468417574532  0.1321606837341989  1.0000
  C   C35       1.0  0.22253027390036112  0.857274337242089  0.3678404808990621  1.0000
  C   C36       1.0  0.8572754568262085  0.22253014730910797  0.867839327943045  1.0000
  C   C37       1.0  0.7102502013896697  0.24594620764643343  0.691270301887492  1.0000
  C   C38       1.0  0.245948339170198  0.7102518232583039  0.19127346134405337  1.0000
  C   C39       1.0  0.2897470117269023  0.7540511635030497  0.3087268475984358  1.0000
  C   C40       1.0  0.754052189666112  0.2897490968620957  0.8087283475683192  1.0000
  C   C41       1.0  0.8843290385162064  0.07843800684982233  0.6933012548887161  1.0000
  C   C42       1.0  0.07843889450480654  0.8843293479439325  0.19330178871773274  1.0000
  C   C43       1.0  0.11567114190842895  0.9215617379811933  0.3066987902939999  1.0000
  C   C44       1.0  0.9215612924037302  0.1156704033708351  0.8066974380228016  1.0000
  N   N1        1.0  0.6040630850324648  0.30928813943848615  0.6410687280104241  1.0000
  N   N2        1.0  0.3092882163144921  0.6040602161609742  0.1410688722752695  1.0000
  N   N3        1.0  0.3959397142885664  0.6907128037846777  0.3589324491394095  1.0000
  N   N4        1.0  0.6907127412149876  0.3959383552064182  0.8589303209597928  1.0000
  O   O1        1.0  0.5181415659422584  0.6327734353707158  0.8518964644472857  1.0000
  O   O2        1.0  0.6327691411314121  0.5181359418417557  0.3519000724103448  1.0000
  O   O3        1.0  0.48186163366163026  0.36722873501184955  0.1480999288947444  1.0000
  O   O4        1.0  0.3672272973550364  0.48185900092394024  0.6481033709224632  1.0000
  O   O5        1.0  0.7744288200554477  0.794442270538518  0.900434752310204  1.0000
  O   O6        1.0  0.7944381300244246  0.7744257261082413  0.40043367460977203  1.0000
  O   O7        1.0  0.22557434712894772  0.20555986742528637  0.09956573324274838  1.0000
  O   O8        1.0  0.20555869577709274  0.2255704308493449  0.5995666217996032  1.0000
  O   O9        1.0  0.6968427316714667  0.924275425127263  0.25657993655653405  1.0000
  O   O10       1.0  0.9242748342883332  0.6968421330780573  0.7565843917199186  1.0000
  O   O11       1.0  0.30315898103643957  0.07572555517266011  0.7434154181582002  1.0000
  O   O12       1.0  0.07572418171640292  0.30315757102468416  0.2434196523338912  1.0000
  O   O13       1.0  0.669288539111875  0.7140681121641563  0.1260326355417405  1.0000
  O   O14       1.0  0.7140642019358339  0.6692878983117866  0.6260409355882217  1.0000
  O   O15       1.0  0.33071278380624847  0.2859352557912942  0.8739604241972072  1.0000
  O   O16       1.0  0.28593216275302075  0.33071057498003853  0.3739660687093788  1.0000
