data_image0
_chemical_formula_structural       Ag4H40C48N12O16
_chemical_formula_sum              "Ag4 H40 C48 N12 O16"
_cell_length_a       8.460936957021929
_cell_length_b       10.425234076035261
_cell_length_c       13.869089858025358
_cell_angle_alpha    90.00010089772309
_cell_angle_beta     89.99978800274651
_cell_angle_gamma    100.50559353467312

_space_group_name_H-M_alt    "P 1"
_space_group_IT_number       1

loop_
  _space_group_symop_operation_xyz
  'x, y, z'

loop_
  _atom_site_type_symbol
  _atom_site_label
  _atom_site_symmetry_multiplicity
  _atom_site_fract_x
  _atom_site_fract_y
  _atom_site_fract_z
  _atom_site_occupancy
  Ag  Ag1       1.0  0.9800212194862895  0.4997326092195849  0.7660682260058849  1.0000
  Ag  Ag2       1.0  0.5199750785248511  0.00026784531010549993  0.2660694976029703  1.0000
  Ag  Ag3       1.0  0.019978681031680892  0.5002675042682441  0.23393058235158287  1.0000
  Ag  Ag4       1.0  0.4800271796902465  0.9997322419624982  0.7339307528074811  1.0000
  H   H1        1.0  0.16421081284075714  0.8255043210225497  0.4841878618138509  1.0000
  H   H2        1.0  0.33579150955813475  0.67449680480712  0.9841843266990509  1.0000
  H   H3        1.0  0.8357928592536651  0.17449672861926763  0.5158138306513109  1.0000
  H   H4        1.0  0.6642076821728011  0.32550527274198526  0.0158152026883727  1.0000
  H   H5        1.0  0.3018971300382987  0.21762428679384987  0.5887377829505027  1.0000
  H   H6        1.0  0.1981056179260676  0.2823773343941198  0.0887354154837539  1.0000
  H   H7        1.0  0.6981112574626209  0.7823767104142334  0.41126246745355394  1.0000
  H   H8        1.0  0.8018933387781787  0.7176237676770684  0.9112619508197497  1.0000
  H   H9        1.0  0.9236156574241859  0.9538853135113925  0.7316820513556834  1.0000
  H   H10       1.0  0.5763819377498507  0.5461159606328322  0.23168253372866593  1.0000
  H   H11       1.0  0.07638848474400109  0.04611768708080891  0.2683167569988427  1.0000
  H   H12       1.0  0.4236184365162288  0.4538812133190789  0.768317716682013  1.0000
  H   H13       1.0  0.05236048712823304  0.627363506517604  0.5387876923066628  1.0000
  H   H14       1.0  0.44764105330459353  0.8726379615229476  0.0387855954508254  1.0000
  H   H15       1.0  0.9476384695637775  0.3726375955568528  0.4612140001639204  1.0000
  H   H16       1.0  0.5523586121724193  0.12736117649077983  0.9612160970176546  1.0000
  H   H17       1.0  0.9012938119275872  0.6912179285570018  0.4763392646667128  1.0000
  H   H18       1.0  0.598710181157955  0.808781672327605  0.9763364482108442  1.0000
  H   H19       1.0  0.0987049097336623  0.3087821980406247  0.5236617067756484  1.0000
  H   H20       1.0  0.401290428140932  0.19121647710058196  0.023663802200204  1.0000
  H   H21       1.0  0.6546836306433048  0.4883851708567446  0.4375005261638236  1.0000
  H   H22       1.0  0.8453178268968955  0.0116164524831603  0.9374989171840581  1.0000
  H   H23       1.0  0.3453148522965178  0.5116188707547238  0.5625011663092394  1.0000
  H   H24       1.0  0.15468183858214968  0.9883826855300201  0.0625020542565693  1.0000
  H   H25       1.0  0.6892281228523203  0.2672806219663499  0.6900547646343326  1.0000
  H   H26       1.0  0.8107688401946547  0.23272069325113162  0.1900535164090158  1.0000
  H   H27       1.0  0.31077507918465136  0.7327184767207199  0.3099440437186943  1.0000
  H   H28       1.0  0.18922846758522377  0.7672784709778213  0.8099467340064805  1.0000
  H   H29       1.0  0.837367879115405  0.750254328927099  0.6610876208412861  1.0000
  H   H30       1.0  0.662632238072234  0.749745836920077  0.1610867332979069  1.0000
  H   H31       1.0  0.16263319655843125  0.2497506619443328  0.3389140716294463  1.0000
  H   H32       1.0  0.33736813618977385  0.250251337032921  0.8389149591684628  1.0000
  H   H33       1.0  0.5514019810329104  0.274277639483529  0.5250909654670863  1.0000
  H   H34       1.0  0.9485947363359698  0.22572343973347136  0.0250901143793598  1.0000
  H   H35       1.0  0.44860051221703406  0.7257234232648102  0.4749085639158963  1.0000
  H   H36       1.0  0.05140162762610605  0.7742767130799281  0.974910136037856  1.0000
  H   H37       1.0  0.0007228732479021187  0.2507630437517606  0.85005882914853  1.0000
  H   H38       1.0  0.49927321099333705  0.24923707353368477  0.3500578934323784  1.0000
  H   H39       1.0  0.9992779710858245  0.7492360811521691  0.14994070023505657  1.0000
  H   H40       1.0  0.5007252756432691  0.7507620775854775  0.6499401938982174  1.0000
  C   C1        1.0  0.03463861960955229  0.8715157538620986  0.6115338153621579  1.0000
  C   C2        1.0  0.4653580326322526  0.6284819614490614  0.11152991341941029  1.0000
  C   C3        1.0  0.9653650524909948  0.12848529577807716  0.3884657140194676  1.0000
  C   C4        1.0  0.5346380963031405  0.37151721588641357  0.8884681739138997  1.0000
  C   C5        1.0  0.14964817896809995  0.8987276336941366  0.5374985627310096  1.0000
  C   C6        1.0  0.35034794825668314  0.6012709584033972  0.03749632944992241  1.0000
  C   C7        1.0  0.8503540792510761  0.1012724535773728  0.46250024562374387  1.0000
  C   C8        1.0  0.6496481806766712  0.3987282189326252  0.9625024789112331  1.0000
  C   C9        1.0  0.2456219137220828  0.022624224069467402  0.5288188622277943  1.0000
  C   C10       1.0  0.25437787535913264  0.4773734309478215  0.0288173449542342  1.0000
  C   C11       1.0  0.754382467159374  0.9773748615110733  0.4711821092074189  1.0000
  C   C12       1.0  0.7456184886009041  0.5226267218661249  0.9711836264908343  1.0000
  C   C13       1.0  0.22884005158244486  0.120746999803238  0.5942608756524165  1.0000
  C   C14       1.0  0.271156770875578  0.3792546952685499  0.0942620745437424  1.0000
  C   C15       1.0  0.7711626767023461  0.8792550384208442  0.4057379327030901  1.0000
  C   C16       1.0  0.7288405369083792  0.6207444689593162  0.9057367338160559  1.0000
  C   C17       1.0  0.11142481787646831  0.09528037212947991  0.6665966695471184  1.0000
  C   C18       1.0  0.38857230418955174  0.40471946811060644  0.1665925868393501  1.0000
  C   C19       1.0  0.8885790892568792  0.9047216529869858  0.3334028598348837  1.0000
  C   C20       1.0  0.6114233546843124  0.5952777582712159  0.8334040584375088  1.0000
  C   C21       1.0  0.015385735012777969  0.9723733575207305  0.6758668925853257  1.0000
  C   C22       1.0  0.484613381068371  0.5276263796764341  0.1758649765176585  1.0000
  C   C23       1.0  0.984620529819736  0.02762864137996251  0.3241333578218146  1.0000
  C   C24       1.0  0.5153825128301435  0.47237182218384527  0.8241345528709658  1.0000
  C   C25       1.0  0.9320502142714561  0.6528282954599618  0.54672017439934  1.0000
  C   C26       1.0  0.5679522024741743  0.8471687450385728  0.0467203527515494  1.0000
  C   C27       1.0  0.06795086509303869  0.3471718049207979  0.4532800760124617  1.0000
  C   C28       1.0  0.4320481717857875  0.15282842891496526  0.9532820607426659  1.0000
  C   C29       1.0  0.8149491561320872  0.5310495547062999  0.5672911520922597  1.0000
  C   C30       1.0  0.685054084380397  0.968951418760618  0.0672905029815922  1.0000
  C   C31       1.0  0.1850509794105264  0.4689515342599933  0.4327105403769664  1.0000
  C   C32       1.0  0.3149467599451797  0.0310477061454861  0.9327119105133832  1.0000
  C   C33       1.0  0.6959595651703837  0.4652805455600488  0.5083342394741095  1.0000
  C   C34       1.0  0.8040450288749525  0.0347184656438344  0.0083341870618199  1.0000
  C   C35       1.0  0.304041514194111  0.5347195548207112  0.4916660109376991  1.0000
  C   C36       1.0  0.19595440157129224  0.9652796968930559  0.9916667843784381  1.0000
  C   C37       1.0  0.7127563414584087  0.34757443382106606  0.6393629280378761  1.0000
  C   C38       1.0  0.787243266045479  0.15242677863120244  0.139361627437367  1.0000
  C   C39       1.0  0.2872447379060858  0.6524256665596937  0.3606373223739253  1.0000
  C   C40       1.0  0.21275522058500945  0.8475723724895944  0.8606386229767651  1.0000
  C   C41       1.0  0.36137588149385647  0.0516255495883158  0.4467549648528433  1.0000
  C   C42       1.0  0.1386236623631589  0.44837662534627054  0.9467565678725052  1.0000
  C   C43       1.0  0.6386273205390438  0.9483735490998415  0.5532452855558816  1.0000
  C   C44       1.0  0.8613757644005843  0.5516264276791175  0.05324296151528779  1.0000
  C   C45       1.0  0.09621377355578892  0.20323406747042583  0.7332175682029032  1.0000
  C   C46       1.0  0.40378438183571325  0.29677172623245707  0.2332161922540479  1.0000
  C   C47       1.0  0.9037910773892437  0.7967669690632279  0.2667841242609086  1.0000
  C   C48       1.0  0.5962110383085745  0.7032294151653886  0.7667840581649018  1.0000
  N   N1        1.0  0.9400270699666394  0.749662474981598  0.6229883918341699  1.0000
  N   N2        1.0  0.5599727926779609  0.7503356823796636  0.12298701840642678  1.0000
  N   N3        1.0  0.059972121762257295  0.2503396025680473  0.37701185858109204  1.0000
  N   N4        1.0  0.44002640273547655  0.2496615046809438  0.8770139530334474  1.0000
  N   N5        1.0  0.8238009625134665  0.4558241154828622  0.6490347403348338  1.0000
  N   N6        1.0  0.6762004779076918  0.04417513440746751  0.1490357132995683  1.0000
  N   N7        1.0  0.1762024745542732  0.5441759586810305  0.35096478904641515  1.0000
  N   N8        1.0  0.32380013138507024  0.9558230150223538  0.8509667001950305  1.0000
  N   N9        1.0  0.633619569480345  0.3504134431538404  0.5550251140103768  1.0000
  N   N10       1.0  0.8663805151074442  0.14958764194178542  0.055024350023359106  1.0000
  N   N11       1.0  0.36638150988414964  0.6495866572269194  0.4449751364014318  1.0000
  N   N12       1.0  0.13361797152303714  0.8504115091790112  0.94497590039078  1.0000
  O   O1        1.0  0.3645354401679199  0.9603883028671658  0.385728485638964  1.0000
  O   O2        1.0  0.13546508518030723  0.5396078100087679  0.8857266716931065  1.0000
  O   O3        1.0  0.6354703545969472  0.0396117450815012  0.6142724857952686  1.0000
  O   O4        1.0  0.8645322226056888  0.4603913542185579  0.1142714156388394  1.0000
  O   O5        1.0  0.4490468788239853  0.16498938153699783  0.441764705939768  1.0000
  O   O6        1.0  0.0509475041094163  0.335015777831032  0.9417656383075865  1.0000
  O   O7        1.0  0.5509551443623905  0.8350097302582281  0.558234102414616  1.0000
  O   O8        1.0  0.9490500350187289  0.6649892523632417  0.058233891083673904  1.0000
  O   O9        1.0  0.1861248959884634  0.3114722524976798  0.7280838188052315  1.0000
  O   O10       1.0  0.3138751797658301  0.1885266657943987  0.2280825051038704  1.0000
  O   O11       1.0  0.8138794812084525  0.6885317235718986  0.2719164316053693  1.0000
  O   O12       1.0  0.6861230718359224  0.8114715098490279  0.7719163032541942  1.0000
  O   O13       1.0  0.9823344791026826  0.17571078066300316  0.80065066793982  1.0000
  O   O14       1.0  0.5176616232901311  0.3242897260866329  0.30064876778025246  1.0000
  O   O15       1.0  0.01766942803067198  0.8242912444534624  0.1993488614421892  1.0000
  O   O16       1.0  0.48233686334647524  0.6757094250325295  0.6993493195503434  1.0000
