data_image0
_chemical_formula_structural       Cd6H132C132N24O42
_chemical_formula_sum              "Cd6 H132 C132 N24 O42"
_cell_length_a       17.32055882894662
_cell_length_b       17.320545042359278
_cell_length_c       17.32055259525554
_cell_angle_alpha    65.49970137704622
_cell_angle_beta     65.49975792389249
_cell_angle_gamma    65.49974411851906

_space_group_name_H-M_alt    "P 1"
_space_group_IT_number       1

loop_
  _space_group_symop_operation_xyz
  'x, y, z'

loop_
  _atom_site_type_symbol
  _atom_site_label
  _atom_site_symmetry_multiplicity
  _atom_site_fract_x
  _atom_site_fract_y
  _atom_site_fract_z
  _atom_site_occupancy
  Cd  Cd1       1.0  0.3391136868875434  0.7500008536932297  0.16088523102963148  1.0000
  Cd  Cd2       1.0  0.7499997880420961  0.1608827769366313  0.3391120675637254  1.0000
  Cd  Cd3       1.0  0.16088480211183756  0.33911356642997237  0.7499970926162832  1.0000
  Cd  Cd4       1.0  0.6608882438971193  0.24999973309080997  0.8391161712506374  1.0000
  Cd  Cd5       1.0  0.2500001576671805  0.8391164937118417  0.66088492724527  1.0000
  Cd  Cd6       1.0  0.8391158069128153  0.660886144554872  0.24999944550834394  1.0000
  H   H1        1.0  0.5850878484176149  0.8103169321876673  0.35366948253695807  1.0000
  H   H2        1.0  0.8103176622496091  0.35366910025961557  0.5850875445929731  1.0000
  H   H3        1.0  0.3536696502713283  0.5850871340207174  0.8103185078302816  1.0000
  H   H4        1.0  0.9149115529216088  0.14632892898829647  0.6896828521510017  1.0000
  H   H5        1.0  0.6896823412961766  0.914911511508641  0.1463285873934411  1.0000
  H   H6        1.0  0.14632809385796713  0.6896823886900876  0.914913158001454  1.0000
  H   H7        1.0  0.4149114305986075  0.1896837993967394  0.646330070364968  1.0000
  H   H8        1.0  0.18968227924897713  0.6463308010597114  0.41491380978431663  1.0000
  H   H9        1.0  0.6463309535684869  0.41491320666027304  0.18968354536751542  1.0000
  H   H10       1.0  0.08508905255239088  0.8536720482118054  0.31031662758584133  1.0000
  H   H11       1.0  0.310317602778916  0.08508712262072037  0.8536709808765013  1.0000
  H   H12       1.0  0.8536705232722779  0.31031599933622517  0.08508706118601587  1.0000
  H   H13       1.0  0.2915706045325095  0.8987224878413753  0.2553637704537053  1.0000
  H   H14       1.0  0.8987221440274877  0.2553643564958248  0.291570528742426  1.0000
  H   H15       1.0  0.255365693565757  0.29157087880500393  0.8987215572100382  1.0000
  H   H16       1.0  0.20842986670211863  0.24462884443833127  0.6012778887212775  1.0000
  H   H17       1.0  0.6012773986276796  0.2084297892934969  0.24463100389077397  1.0000
  H   H18       1.0  0.2446301778130859  0.6012788611751104  0.2084297427073949  1.0000
  H   H19       1.0  0.7084286752848924  0.10127760966069839  0.7446354671469921  1.0000
  H   H20       1.0  0.10127779813114297  0.7446361803679052  0.7084294076787786  1.0000
  H   H21       1.0  0.7446362388530899  0.7084303444981469  0.10127727160927683  1.0000
  H   H22       1.0  0.7915694129423227  0.7553706180066867  0.3987221890830596  1.0000
  H   H23       1.0  0.3987218808437872  0.7915690380944791  0.7553699141172103  1.0000
  H   H24       1.0  0.7553691016902135  0.39872187089665073  0.7915692324421001  1.0000
  H   H25       1.0  0.3582390010408217  0.9468651221351222  0.32440630777702484  1.0000
  H   H26       1.0  0.9468648085362048  0.32440686432814636  0.3582392434531628  1.0000
  H   H27       1.0  0.32440805603271616  0.35824023977436764  0.9468635844836443  1.0000
  H   H28       1.0  0.1417594827101922  0.17558895517056777  0.5531346846990886  1.0000
  H   H29       1.0  0.5531347338070204  0.1417585728137922  0.17559080605825975  1.0000
  H   H30       1.0  0.1755911307147429  0.5531344407908064  0.14175973923932617  1.0000
  H   H31       1.0  0.6417596141729618  0.053135168625558886  0.6755942795617075  1.0000
  H   H32       1.0  0.05313513410949608  0.6755936730229376  0.641760115215611  1.0000
  H   H33       1.0  0.6755918854977024  0.6417615662287444  0.0531358270351489  1.0000
  H   H34       1.0  0.8582404613649003  0.8244096789587941  0.4468648835708606  1.0000
  H   H35       1.0  0.44686520978100214  0.8582400608282152  0.8244093399641274  1.0000
  H   H36       1.0  0.8244094755286042  0.44686399764317014  0.8582413680547772  1.0000
  H   H37       1.0  0.5856327083341525  0.7165708925294466  0.2938004226232423  1.0000
  H   H38       1.0  0.7165702401860369  0.2937996997621965  0.585633849170094  1.0000
  H   H39       1.0  0.2937964293856082  0.5856364793528283  0.7165709669038591  1.0000
  H   H40       1.0  0.9143660351071643  0.20620093386978752  0.7834275632037802  1.0000
  H   H41       1.0  0.7834271179858587  0.9143655036820912  0.2062027131969587  1.0000
  H   H42       1.0  0.20620129683636176  0.7834266290116784  0.9143660095752607  1.0000
  H   H43       1.0  0.4143672339974456  0.2834302793913323  0.7061986735943224  1.0000
  H   H44       1.0  0.2834290384842573  0.7061997617081202  0.41436738413911917  1.0000
  H   H45       1.0  0.7062001927091756  0.41436693141188363  0.28343030883440434  1.0000
  H   H46       1.0  0.085633906391422  0.7937989674495467  0.21657379117350944  1.0000
  H   H47       1.0  0.21657415042574962  0.0856327390564999  0.7937999331212922  1.0000
  H   H48       1.0  0.7937993098940623  0.21657180990965214  0.08563451996640478  1.0000
  H   H49       1.0  0.5091549410414229  0.6785454526619715  0.22540992836252366  1.0000
  H   H50       1.0  0.6785460096185787  0.22540981000719273  0.5091549577953102  1.0000
  H   H51       1.0  0.22540981730307408  0.5091540451793788  0.6785465106187589  1.0000
  H   H52       1.0  0.9908457880033267  0.2745903818535637  0.8214519578099769  1.0000
  H   H53       1.0  0.8214533387611664  0.9908457714953655  0.27458895193134225  1.0000
  H   H54       1.0  0.2745905721518511  0.8214521025444196  0.9908446495127022  1.0000
  H   H55       1.0  0.4908456653748912  0.3214536208290537  0.7745903387279326  1.0000
  H   H56       1.0  0.32145326842349664  0.7745909206024987  0.49084575061149144  1.0000
  H   H57       1.0  0.774590787997958  0.49084629696367416  0.3214538093217244  1.0000
  H   H58       1.0  0.009154817611815197  0.7254093257198022  0.17854862458171544  1.0000
  H   H59       1.0  0.1785479308293887  0.00915501195876798  0.7254097558199035  1.0000
  H   H60       1.0  0.7254100357256872  0.17854697240866807  0.009153884320440349  1.0000
  H   H61       1.0  0.6241571877418224  0.9124425461408943  0.3739088449888472  1.0000
  H   H62       1.0  0.9124426042494488  0.3739081192685417  0.6241574178941534  1.0000
  H   H63       1.0  0.3739085621023078  0.624158283274873  0.9124427402404578  1.0000
  H   H64       1.0  0.8758395424097215  0.12608760170618163  0.5875611249614677  1.0000
  H   H65       1.0  0.5875607224039923  0.8758389628019431  0.1260888818856571  1.0000
  H   H66       1.0  0.12608853108115878  0.5875604834373005  0.8758399670306505  1.0000
  H   H67       1.0  0.3758414274719613  0.0875577446197865  0.6260917423498854  1.0000
  H   H68       1.0  0.08755733951153387  0.6260911494305147  0.3758418879245936  1.0000
  H   H69       1.0  0.6260927061999906  0.37584313377424644  0.08755686056445464  1.0000
  H   H70       1.0  0.12415907263108748  0.8739120539974506  0.41244030258090447  1.0000
  H   H71       1.0  0.41243922024171537  0.12416157454914864  0.8739104767831095  1.0000
  H   H72       1.0  0.873911411218607  0.41243878379969323  0.1241610720454034  1.0000
  H   H73       1.0  0.5689387856264218  0.8587792537191986  0.4816675968668349  1.0000
  H   H74       1.0  0.8587802622091726  0.4816670600452964  0.5689375453405178  1.0000
  H   H75       1.0  0.481666906084662  0.5689385246392361  0.8587809768193607  1.0000
  H   H76       1.0  0.9310612962604733  0.01832943492370019  0.6412203037919826  1.0000
  H   H77       1.0  0.6412217046522241  0.9310601746393914  0.018329345504902478  1.0000
  H   H78       1.0  0.018328860073225393  0.6412207208345961  0.9310621213908093  1.0000
  H   H79       1.0  0.4310604941909801  0.14122084378286798  0.5183316407338623  1.0000
  H   H80       1.0  0.14121901760823619  0.51833303745677  0.4310616922601795  1.0000
  H   H81       1.0  0.5183336993893375  0.4310624525608657  0.14121850291748228  1.0000
  H   H82       1.0  0.0689379832428259  0.9816712971480609  0.35877867135750563  1.0000
  H   H83       1.0  0.35877956716889503  0.06893807151067922  0.9816692565462901  1.0000
  H   H84       1.0  0.9816710822265403  0.3587785464023906  0.06893891768524445  1.0000
  H   H85       1.0  0.595126206319982  0.006548036364968317  0.4564633506977742  1.0000
  H   H86       1.0  0.006548894496781098  0.45646244436478156  0.5951266462372828  1.0000
  H   H87       1.0  0.4564632795135636  0.5951286091447723  0.006548267874286939  1.0000
  H   H88       1.0  0.904874081188893  0.043533374252312636  0.4934522233529891  1.0000
  H   H89       1.0  0.49345219478791325  0.9048728881376247  0.04353302909933643  1.0000
  H   H90       1.0  0.04353454212883888  0.49345206405504866  0.9048727353091837  1.0000
  H   H91       1.0  0.4048730749268117  0.9934501579153759  0.5435360965041054  1.0000
  H   H92       1.0  0.9934510492642088  0.5435368243342678  0.4048726595814569  1.0000
  H   H93       1.0  0.5435373248451538  0.40487363670736437  0.9934512647125828  1.0000
  H   H94       1.0  0.09512785105698637  0.9564672139937894  0.5065474456699733  1.0000
  H   H95       1.0  0.5065470850294885  0.09512720936444191  0.956466208501361  1.0000
  H   H96       1.0  0.9564653998568244  0.5065478377516398  0.09512804131566815  1.0000
  H   H97       1.0  0.5101033568592966  0.061225487699154243  0.4043431028674789  1.0000
  H   H98       1.0  0.0612264894368622  0.4043424535325569  0.5101032878145021  1.0000
  H   H99       1.0  0.404343441319959  0.5101050017226212  0.061225292131034274  1.0000
  H   H100      1.0  0.9898929247051097  0.09565851699489501  0.4387755620947189  1.0000
  H   H101      1.0  0.43877591986354497  0.9898921710916395  0.09565711292066943  1.0000
  H   H102      1.0  0.0956577271630366  0.4387761278620344  0.9898923839617737  1.0000
  H   H103      1.0  0.48989592358631734  0.9387733406635306  0.5956566596356295  1.0000
  H   H104      1.0  0.9387734532088385  0.5956580838185344  0.4898960708542717  1.0000
  H   H105      1.0  0.5956584917589252  0.48989685712493236  0.9387721187322028  1.0000
  H   H106      1.0  0.010107679967710196  0.90434309428754  0.5612242329433529  1.0000
  H   H107      1.0  0.5612240232692258  0.010108366746798832  0.9043416679956594  1.0000
  H   H108      1.0  0.9043415513661156  0.5612246032350182  0.010107746692590205  1.0000
  H   H109      1.0  0.039607484314174705  0.9871940048567892  0.23764985396534405  1.0000
  H   H110      1.0  0.9871940187020982  0.23764911523550547  0.039607127172651135  1.0000
  H   H111      1.0  0.23764760996744624  0.03960775318223137  0.9871940894223175  1.0000
  H   H112      1.0  0.4603929566686985  0.26235180092735516  0.5128080403577046  1.0000
  H   H113      1.0  0.5128081255929898  0.46039226368559105  0.26235282241230357  1.0000
  H   H114      1.0  0.26235429965797147  0.5128066259456147  0.46039195836316094  1.0000
  H   H115      1.0  0.960392457357379  0.012806531519586759  0.7623506602083053  1.0000
  H   H116      1.0  0.012804596197575797  0.7623518100948699  0.9603931977148792  1.0000
  H   H117      1.0  0.7623510057334072  0.9603925380658039  0.012805920163977134  1.0000
  H   H118      1.0  0.5396089774936499  0.7376468845843784  0.48719126051399547  1.0000
  H   H119      1.0  0.4871924797080424  0.5396080784574621  0.7376474975281795  1.0000
  H   H120      1.0  0.7376469700737188  0.48719288788178255  0.5396078520429344  1.0000
  H   H121      1.0  0.4771306539936404  0.8026570022137204  0.9826137058187998  1.0000
  H   H122      1.0  0.8026565843005212  0.9826133297625644  0.4771289404494964  1.0000
  H   H123      1.0  0.9826130225707528  0.4771301593944129  0.8026578006313301  1.0000
  H   H124      1.0  0.02285647771379469  0.51737714769078  0.697342135266382  1.0000
  H   H125      1.0  0.6973415008860684  0.02285614392724955  0.5173758353695277  1.0000
  H   H126      1.0  0.517377057410293  0.697343274667716  0.022857024537529524  1.0000
  H   H127      1.0  0.5228686251318918  0.19734055506016546  0.017388892596464707  1.0000
  H   H128      1.0  0.19734269422863082  0.017387401334488593  0.5228711902048673  1.0000
  H   H129      1.0  0.017386920562017794  0.5228703784440254  0.19734098028499866  1.0000
  H   H130      1.0  0.9771428029366189  0.48262422041273806  0.30265484417459027  1.0000
  H   H131      1.0  0.30265777844426367  0.9771439530874697  0.48262397998360757  1.0000
  H   H132      1.0  0.4826215571434459  0.3026563805485622  0.977144980757281  1.0000
  C   C1        1.0  0.3569130855596823  0.8602016008660055  0.26484189869947283  1.0000
  C   C2        1.0  0.8602021082854987  0.2648418824886246  0.3569126880983191  1.0000
  C   C3        1.0  0.2648421908855311  0.3569135280233268  0.860202606833056  1.0000
  C   C4        1.0  0.14308872180069432  0.23515212294228144  0.6397974481811773  1.0000
  C   C5        1.0  0.6397967815762866  0.14308712233738405  0.235154759199645  1.0000
  C   C6        1.0  0.23515498592811912  0.6397977416850862  0.1430876592278595  1.0000
  C   C7        1.0  0.6430875215166763  0.13979810816942248  0.7351569504349057  1.0000
  C   C8        1.0  0.13979783338605495  0.7351586538877509  0.6430878260753232  1.0000
  C   C9        1.0  0.7351584129861166  0.643088717341456  0.13979750350625147  1.0000
  C   C10       1.0  0.8569118853849742  0.7648444117826183  0.3602044464665399  1.0000
  C   C11       1.0  0.36020316135169134  0.8569108757602206  0.76484680477882  1.0000
  C   C12       1.0  0.7648456195458805  0.36020323551501565  0.8569118205089837  1.0000
  C   C13       1.0  0.3934897911456473  0.8870033486989822  0.3037580162496525  1.0000
  C   C14       1.0  0.8870034460211682  0.3037588032766718  0.393489400962544  1.0000
  C   C15       1.0  0.30375967220812317  0.39348967163884635  0.8870024113152796  1.0000
  C   C16       1.0  0.10651069074327778  0.19623590926097725  0.6129973234854305  1.0000
  C   C17       1.0  0.6129961056428925  0.10650891806953662  0.19624055307971125  1.0000
  C   C18       1.0  0.19623949504656923  0.6129969584437088  0.10650954443302406  1.0000
  C   C19       1.0  0.606510151814163  0.11299655408241437  0.6962416048703235  1.0000
  C   C20       1.0  0.11299649516330848  0.6962417326123498  0.6065116909635364  1.0000
  C   C21       1.0  0.6962409324646969  0.6065119396435957  0.11299738372279214  1.0000
  C   C22       1.0  0.8934912429001611  0.8037608710796174  0.3870044979972037  1.0000
  C   C23       1.0  0.38700383711211817  0.8934884449710195  0.8037618511023938  1.0000
  C   C24       1.0  0.8037604484003108  0.38700294482504205  0.8934894989345138  1.0000
  C   C25       1.0  0.47780174679936477  0.8351496482357416  0.3151235783916846  1.0000
  C   C26       1.0  0.8351500305997701  0.31512274971483106  0.47780220825544006  1.0000
  C   C27       1.0  0.31512314726600005  0.47780233671172556  0.8351487195788392  1.0000
  C   C28       1.0  0.022198746952319895  0.1848729539521513  0.6648493262286053  1.0000
  C   C29       1.0  0.6648482086547176  0.022197840555136697  0.18487532734157244  1.0000
  C   C30       1.0  0.18487466521643364  0.6648494912347542  0.022199181963372946  1.0000
  C   C31       1.0  0.5221988594758143  0.16485069488201987  0.6848755860439227  1.0000
  C   C32       1.0  0.16485057435532718  0.6848763223141316  0.52219979209233  1.0000
  C   C33       1.0  0.6848754663454243  0.5221992222136365  0.16485249836235752  1.0000
  C   C34       1.0  0.9778005314038648  0.8151271420878528  0.33515164462940594  1.0000
  C   C35       1.0  0.3351517341002932  0.9777995224854262  0.8151270768405325  1.0000
  C   C36       1.0  0.8151266058035062  0.33514938899765667  0.9777997353890484  1.0000
  C   C37       1.0  0.5201476934839134  0.7583751101032802  0.2864509509356594  1.0000
  C   C38       1.0  0.758376587871815  0.2864492126672928  0.5201486106227193  1.0000
  C   C39       1.0  0.28644780555726596  0.5201500277719332  0.7583761833953488  1.0000
  C   C40       1.0  0.9798503797024053  0.21354835185199747  0.7416220020421348  1.0000
  C   C41       1.0  0.7416200973862386  0.9798505971035637  0.21355097231192838  1.0000
  C   C42       1.0  0.2135499429840166  0.7416221545179054  0.9798506714218576  1.0000
  C   C43       1.0  0.4798515858464184  0.24162498691143935  0.7135488644174758  1.0000
  C   C44       1.0  0.24162468119983052  0.7135496656157014  0.4798526177394536  1.0000
  C   C45       1.0  0.7135488152492682  0.479854016587758  0.2416259853965884  1.0000
  C   C46       1.0  0.020148899454959197  0.7864511101056731  0.2583786535146402  1.0000
  C   C47       1.0  0.25837851682156543  0.020147787998624298  0.7864527133901688  1.0000
  C   C48       1.0  0.7864513277218208  0.2583773602842  0.020147983479361625  1.0000
  C   C49       1.0  0.47808190914524556  0.7374058306966302  0.24829513604951367  1.0000
  C   C50       1.0  0.7374070076042752  0.24829339170406675  0.4780829301255808  1.0000
  C   C51       1.0  0.24829416232203974  0.47808373618852323  0.7374061114667753  1.0000
  C   C52       1.0  0.021917262719902898  0.2517040294705167  0.7625922399413199  1.0000
  C   C53       1.0  0.7625919084973274  0.021917876235711627  0.25170376434452635  1.0000
  C   C54       1.0  0.25170429345631357  0.7625926939002947  0.02191768777942124  1.0000
  C   C55       1.0  0.5219173701850862  0.262594266318082  0.7517046793036213  1.0000
  C   C56       1.0  0.26259359832496887  0.7517056812996045  0.5219179147173135  1.0000
  C   C57       1.0  0.7517044503470627  0.5219197264459152  0.26259431912080794  1.0000
  C   C58       1.0  0.978083342895239  0.7482956781028414  0.2374083424503723  1.0000
  C   C59       1.0  0.23740737048706959  0.9780809506649029  0.748297731415896  1.0000
  C   C60       1.0  0.7482976403919253  0.23740662618113337  0.9780813506410694  1.0000
  C   C61       1.0  0.49192697488504666  0.9203624940708718  0.3915727289699123  1.0000
  C   C62       1.0  0.9203629097646696  0.391572966848102  0.49192699498770043  1.0000
  C   C63       1.0  0.3915737255760232  0.49192613490726694  0.9203638167827889  1.0000
  C   C64       1.0  0.008069534180016498  0.10842520906336965  0.5796387789255988  1.0000
  C   C65       1.0  0.5796399633456417  0.00806836834549064  0.10842600905368728  1.0000
  C   C66       1.0  0.10842609187734098  0.5796358954380663  0.008072859372973137  1.0000
  C   C67       1.0  0.5080736313901324  0.07963784904689669  0.6084264354656952  1.0000
  C   C68       1.0  0.07963636779033577  0.6084277632742427  0.508074291171539  1.0000
  C   C69       1.0  0.6084262144931712  0.5080756696337827  0.07963732799332496  1.0000
  C   C70       1.0  0.991928418833673  0.8915733727089042  0.42036221224747566  1.0000
  C   C71       1.0  0.42036396250631464  0.9919291003839416  0.8915723938172989  1.0000
  C   C72       1.0  0.8915731887094153  0.42036166329787494  0.9919280057849849  1.0000
  C   C73       1.0  0.5598775957866877  0.9199206440582587  0.42580813808251616  1.0000
  C   C74       1.0  0.9199211531147851  0.42580804707024084  0.559877455714016  1.0000
  C   C75       1.0  0.42580745689181737  0.5598774943944702  0.9199213169370566  1.0000
  C   C76       1.0  0.9401204715040092  0.07418946755784352  0.5800798991681122  1.0000
  C   C77       1.0  0.5800801590348497  0.9401201879639199  0.07418933539545958  1.0000
  C   C78       1.0  0.0741896516610083  0.5800809863374211  0.9401204524762722  1.0000
  C   C79       1.0  0.44012234877547474  0.08007799055845763  0.5741908524349881  1.0000
  C   C80       1.0  0.08007812541436717  0.5741926840268048  0.4401226749403548  1.0000
  C   C81       1.0  0.5741924849527037  0.4401236770389542  0.08007835703294588  1.0000
  C   C82       1.0  0.05987880733924559  0.9258106289695147  0.41992049393746106  1.0000
  C   C83       1.0  0.4199204477274065  0.05988015564120264  0.9258092512877095  1.0000
  C   C84       1.0  0.9258096270411111  0.4199203798166805  0.05987883797445203  1.0000
  C   C85       1.0  0.5348565260948134  0.0013408034981025358  0.4547163891368556  1.0000
  C   C86       1.0  0.0013412395304043998  0.4547162787145068  0.5348565230036684  1.0000
  C   C87       1.0  0.4547170123457818  0.534857430518954  0.0013410107160183788  1.0000
  C   C88       1.0  0.9651417711715664  0.045282342543224274  0.498658668341058  1.0000
  C   C89       1.0  0.49865983673466013  0.9651420111393917  0.045281768336359045  1.0000
  C   C90       1.0  0.04528214812809488  0.49865937822099243  0.9651424025712814  1.0000
  C   C91       1.0  0.46514275354962814  0.998658658946915  0.5452836886674817  1.0000
  C   C92       1.0  0.9986587034293989  0.5452836240668829  0.46514309811630733  1.0000
  C   C93       1.0  0.545284255956517  0.4651439865301653  0.9986585900889012  1.0000
  C   C94       1.0  0.0348575078446558  0.9547183890411827  0.501340884560868  1.0000
  C   C95       1.0  0.5013407700275889  0.03485833246573113  0.9547168183468103  1.0000
  C   C96       1.0  0.9547177948317155  0.5013405245604046  0.034857218548687306  1.0000
  C   C97       1.0  0.20910876255534555  0.9148208775673862  0.14199406327045241  1.0000
  C   C98       1.0  0.9148225629640976  0.14199264929297303  0.20910812512548202  1.0000
  C   C99       1.0  0.14199380325894845  0.20910837565126877  0.9148210148954518  1.0000
  C   C100      1.0  0.2908916765677674  0.3580080265489796  0.5851774238587737  1.0000
  C   C101      1.0  0.5851789743813922  0.2908909561574687  0.358005595456433  1.0000
  C   C102      1.0  0.35801004908083894  0.5851796619142886  0.2908900322900792  1.0000
  C   C103      1.0  0.7908911794621429  0.08518092892308704  0.8580047704959027  1.0000
  C   C104      1.0  0.08517804442637097  0.8580064251727605  0.7908909864600985  1.0000
  C   C105      1.0  0.8580054791349593  0.7908904546608325  0.0851764365979053  1.0000
  C   C106      1.0  0.7091082667379778  0.6419931463465074  0.41482051685391513  1.0000
  C   C107      1.0  0.4148222966703796  0.7091098287587342  0.6419913790374989  1.0000
  C   C108      1.0  0.6419938711628603  0.4148222453915124  0.7091105776895362  1.0000
  C   C109      1.0  0.14611341122285637  0.00422369550223319  0.11527378535470229  1.0000
  C   C110      1.0  0.0042248759356411  0.11527368685100466  0.1461142427809676  1.0000
  C   C111      1.0  0.11527368211599757  0.14611401900197754  0.004223841179595022  1.0000
  C   C112      1.0  0.35388923357593427  0.3847279408513699  0.49577679796182395  1.0000
  C   C113      1.0  0.4957784149794475  0.35388834487630993  0.3847273204546014  1.0000
  C   C114      1.0  0.38472824731286437  0.49577807692295994  0.3538881008285628  1.0000
  C   C115      1.0  0.8538845413355957  0.9957767904664789  0.8847258407123135  1.0000
  C   C116      1.0  0.9957750660500221  0.8847262149556766  0.8538865338438768  1.0000
  C   C117      1.0  0.8847249340719255  0.8538862727334117  0.9957755906542617  1.0000
  C   C118      1.0  0.6461133635876803  0.6152718195664304  0.5042217837743055  1.0000
  C   C119      1.0  0.5042228530087484  0.6461137067425039  0.6152720178991089  1.0000
  C   C120      1.0  0.6152730190411402  0.5042233381767358  0.646113810986101  1.0000
  C   C121      1.0  0.06201754478275489  0.031083610410909998  0.1723192067827881  1.0000
  C   C122      1.0  0.031082885122671697  0.17231917744102526  0.06201710934303147  1.0000
  C   C123      1.0  0.17231751537531886  0.062017703915451174  0.0310832306919266  1.0000
  C   C124      1.0  0.43798510488350917  0.32768247199099676  0.4689183090576634  1.0000
  C   C125      1.0  0.46891838758643434  0.43798446721348216  0.32768296279989795  1.0000
  C   C126      1.0  0.3276837739894275  0.46891784131524605  0.4379839939675633  1.0000
  C   C127      1.0  0.9379810701169189  0.9689173149194652  0.8276811181047423  1.0000
  C   C128      1.0  0.9689157310652586  0.8276811142943639  0.9379823224908254  1.0000
  C   C129      1.0  0.827679773239552  0.937983610856271  0.9689163271570465  1.0000
  C   C130      1.0  0.5620155017057725  0.6723172365570773  0.5310811178291533  1.0000
  C   C131      1.0  0.5310828800558198  0.5620163142912344  0.6723180559610995  1.0000
  C   C132      1.0  0.672318158256452  0.5310827469308632  0.5620156750553917  1.0000
  N   N1        1.0  0.3974197055715932  0.7872126815154553  0.23708902605908835  1.0000
  N   N2        1.0  0.7872135770728688  0.23708760337613183  0.39742049839344434  1.0000
  N   N3        1.0  0.23708918989574096  0.3974197574006978  0.7872138714067987  1.0000
  N   N4        1.0  0.1025821097674324  0.26290810624765726  0.7127845111054752  1.0000
  N   N5        1.0  0.712785324803086  0.10258186237736301  0.2629084116993284  1.0000
  N   N6        1.0  0.2629086278369215  0.7127863300087822  0.10258123079473339  1.0000
  N   N7        1.0  0.6025815649612768  0.21278619822960082  0.762910469045771  1.0000
  N   N8        1.0  0.21278636473982704  0.7629116633735005  0.6025811184350546  1.0000
  N   N9        1.0  0.7629100873451617  0.6025816072913414  0.21278715230123862  1.0000
  N   N10       1.0  0.897418497277094  0.7370896981039788  0.28721628088739243  1.0000
  N   N11       1.0  0.28721395466838107  0.8974169650106134  0.7370925063086561  1.0000
  N   N12       1.0  0.7370933064983942  0.28721299056000027  0.8974172298733264  1.0000
  N   N13       1.0  0.5228538061224484  0.8548846526248466  0.3512617420032739  1.0000
  N   N14       1.0  0.8548843887881218  0.3512615557579789  0.5228544713062248  1.0000
  N   N15       1.0  0.351265511085522  0.5228527250196888  0.854882552613219  1.0000
  N   N16       1.0  0.9771449228166273  0.14873455502588917  0.6451169070752201  1.0000
  N   N17       1.0  0.6451169296514363  0.9771437725926185  0.14873665656769244  1.0000
  N   N18       1.0  0.14873557490351888  0.6451163020441014  0.9771448514341826  1.0000
  N   N19       1.0  0.4771461357539052  0.1451184234923629  0.6487359891082322  1.0000
  N   N20       1.0  0.1451168807706011  0.6487373230123692  0.47714617930351017  1.0000
  N   N21       1.0  0.648735757672014  0.4771467878329998  0.14511841329775177  1.0000
  N   N22       1.0  0.022854356686671892  0.8512661770458717  0.354882068074268  1.0000
  N   N23       1.0  0.35488234901885807  0.022855688877697768  0.851264576741528  1.0000
  N   N24       1.0  0.8512656959434536  0.35488194313126065  0.022854906121885774  1.0000
  O   O1        1.0  0.4168623321730393  0.9743366830960764  0.39825946025302283  1.0000
  O   O2        1.0  0.9743377453453304  0.39825619409037183  0.41686210657831424  1.0000
  O   O3        1.0  0.39825572797293046  0.41686135670068564  0.974337813068779  1.0000
  O   O4        1.0  0.08313748459230647  0.10174064142554327  0.5256616680037922  1.0000
  O   O5        1.0  0.5256637834153253  0.08313698301871135  0.1017407306889027  1.0000
  O   O6        1.0  0.10174146207692296  0.525663213455317  0.08313629576846894  1.0000
  O   O7        1.0  0.5831382718715685  0.02566619732574784  0.6017398098826447  1.0000
  O   O8        1.0  0.025662859641592192  0.6017447826223757  0.5831379509109665  1.0000
  O   O9        1.0  0.6017415574053968  0.5831405897166062  0.025664948843612558  1.0000
  O   O10       1.0  0.9168637880299925  0.898256970642194  0.4743366187461646  1.0000
  O   O11       1.0  0.4743381485482842  0.9168661444808779  0.8982567330243613  1.0000
  O   O12       1.0  0.8982558277943721  0.4743355630376341  0.9168643118853267  1.0000
  O   O13       1.0  0.1864988003691294  0.8609724446910716  0.21865089368446894  1.0000
  O   O14       1.0  0.860973229545223  0.21864913805298153  0.1864995761301813  1.0000
  O   O15       1.0  0.21865108980382786  0.18649639795588502  0.8609751321217587  1.0000
  O   O16       1.0  0.3135029950614978  0.28134998400991396  0.6390227657888089  1.0000
  O   O17       1.0  0.6390282901343483  0.3134972902030026  0.28134875520971997  1.0000
  O   O18       1.0  0.28135209470261197  0.639027486561346  0.3134980428759776  1.0000
  O   O19       1.0  0.8134998151905818  0.1390291161837068  0.7813480132469834  1.0000
  O   O20       1.0  0.13902737927462983  0.7813480331910295  0.8134997450565749  1.0000
  O   O21       1.0  0.7813488574441506  0.81349779516033  0.13902511780175075  1.0000
  O   O22       1.0  0.6864969469559907  0.7186518224805593  0.36097606797755344  1.0000
  O   O23       1.0  0.360975635230531  0.6865001780390753  0.718650225413704  1.0000
  O   O24       1.0  0.7186511625398211  0.3609733458383884  0.6865032862392085  1.0000
  O   O25       1.0  0.2847192711391101  0.8961585705688007  0.08508791587338736  1.0000
  O   O26       1.0  0.8961627115945486  0.08508475763525768  0.2847174474380483  1.0000
  O   O27       1.0  0.08508619159627527  0.2847185540953772  0.8961596946963085  1.0000
  O   O28       1.0  0.21528116077955411  0.414915737285142  0.6038376502353772  1.0000
  O   O29       1.0  0.603837527017461  0.21527993170958828  0.41491353668008196  1.0000
  O   O30       1.0  0.4149156527129135  0.6038414316501458  0.21527856442946103  1.0000
  O   O31       1.0  0.7152813336748522  0.10384177108689835  0.9149129818195334  1.0000
  O   O32       1.0  0.1038405501408519  0.9149129048401431  0.7152817274185351  1.0000
  O   O33       1.0  0.9149130917717795  0.7152802771914321  0.10383660129216557  1.0000
  O   O34       1.0  0.7847181193837897  0.5850856303310221  0.39615990695803316  1.0000
  O   O35       1.0  0.3961590989102461  0.7847196735863801  0.5850870027556637  1.0000
  O   O36       1.0  0.5850869407589058  0.39616086460964756  0.7847218562640352  1.0000
  O   O37       1.0  0.4672662512367508  0.7499974784126447  0.032715313086967526  1.0000
  O   O38       1.0  0.749997836205935  0.03271492551114349  0.46726514864735696  1.0000
  O   O39       1.0  0.03271365755355048  0.4672641897337612  0.7499986195173705  1.0000
  O   O40       1.0  0.5327317019180808  0.24999983373289325  0.9672867807409489  1.0000
  O   O41       1.0  0.25000144361147386  0.9672851719909297  0.5327340889533403  1.0000
  O   O42       1.0  0.967284959749662  0.532734833349593  0.25000075946645256  1.0000
