data_image0
_chemical_formula_structural       Al2H14C30Br2O10
_chemical_formula_sum              "Al2 H14 C30 Br2 O10"
_cell_length_a       6.625029892502984
_cell_length_b       11.165545133362041
_cell_length_c       15.196865923929296
_cell_angle_alpha    83.92866818047797
_cell_angle_beta     77.6993695421855
_cell_angle_gamma    72.242139793756

_space_group_name_H-M_alt    "P 1"
_space_group_IT_number       1

loop_
  _space_group_symop_operation_xyz
  'x, y, z'

loop_
  _atom_site_type_symbol
  _atom_site_label
  _atom_site_symmetry_multiplicity
  _atom_site_fract_x
  _atom_site_fract_y
  _atom_site_fract_z
  _atom_site_occupancy
  Al  Al1       1.0  0.500945721165948  0.5018221719646616  0.5011459271854831  1.0000
  Al  Al2       1.0  0.002301947430630829  0.4983673268696974  0.5021371353704538  1.0000
  H   H1        1.0  0.3012625102287103  0.35438383173232063  0.5627764732086292  1.0000
  H   H2        1.0  0.7019264982039174  0.6527244769650054  0.4567836278038655  1.0000
  H   H3        1.0  0.28499216394732224  0.5973923059618186  0.7682529598943546  1.0000
  H   H4        1.0  0.019817175050342032  0.6650392523721392  0.9106196409970693  1.0000
  H   H5        1.0  0.9532177939701256  0.4131854719697398  0.7776482384972423  1.0000
  H   H6        1.0  0.06614588243220966  0.3395379654772554  0.9255689956172117  1.0000
  H   H7        1.0  0.714002785509855  0.4040340791202084  0.23442368232350924  1.0000
  H   H8        1.0  0.9782811761048008  0.3347315454717402  0.09223388301673195  1.0000
  H   H9        1.0  0.0446997150032331  0.586272951919092  0.2255323698754168  1.0000
  H   H10       1.0  0.9315181564941283  0.6596471178687934  0.0772236165881424  1.0000
  H   H11       1.0  0.19393839516838798  0.23621035989467026  0.36893999584246717  1.0000
  H   H12       1.0  0.5173499064483592  0.12057218040817469  0.2656967964651996  1.0000
  H   H13       1.0  0.4190599312521572  0.7673482394583997  0.37600336682794483  1.0000
  H   H14       1.0  0.6295522390391068  0.8849423849811019  0.2691493671996952  1.0000
  C   C1        1.0  0.8622945890928831  0.27453278020233535  0.4947361656407878  1.0000
  C   C2        1.0  0.6773315820253811  0.5023247631171088  0.6642803414304197  1.0000
  C   C3        1.0  0.1364521443237764  0.7266720247940198  0.5081071361644546  1.0000
  C   C4        1.0  0.322596069697113  0.49792913659710064  0.3387325327135428  1.0000
  C   C5        1.0  0.41038604634482573  0.5574216797383044  0.8082819149579308  1.0000
  C   C6        1.0  0.35853678893044355  0.5602478465473054  0.9026601358784063  1.0000
  C   C7        1.0  0.1443830601606848  0.6188796291575898  0.9500331233910444  1.0000
  C   C8        1.0  0.7880872192415111  0.4518798245308345  0.8137541491152405  1.0000
  C   C9        1.0  0.7408067747608836  0.44504441072978546  0.9082265638624136  1.0000
  C   C10       1.0  0.9021552579669674  0.3834902611860541  0.9608922401355926  1.0000
  C   C11       1.0  0.5881959273857473  0.44332501513304834  0.1945185947366425  1.0000
  C   C12       1.0  0.6396843886900713  0.4397649986794859  0.10019390472182717  1.0000
  C   C13       1.0  0.8536919654635611  0.38085139456084943  0.052839194002558466  1.0000
  C   C14       1.0  0.2099901588661268  0.5479538174246912  0.18938725876720497  1.0000
  C   C15       1.0  0.2571001403070881  0.5546433918833387  0.0948089012129785  1.0000
  C   C16       1.0  0.09577777757915128  0.6159510523835293  0.04201627100582069  1.0000
  C   C17       1.0  0.6235992616632728  0.5049925676407269  0.764539782358881  1.0000
  C   C18       1.0  0.5242052544297308  0.5012880756162302  0.9535959541014449  1.0000
  C   C19       1.0  0.3750895540180606  0.4954996611094415  0.23842540543304117  1.0000
  C   C20       1.0  0.47372284799561715  0.4984981284889897  0.049355666792998  1.0000
  C   C21       1.0  0.9310411188100289  0.13333242745686386  0.49751795328837295  1.0000
  C   C22       1.0  0.1195205013254679  0.06856549074577599  0.4363250240127741  1.0000
  C   C23       1.0  0.8158292172974129  0.067009713509556  0.5601509405492848  1.0000
  C   C24       1.0  0.24242364375422196  0.13377825288697656  0.3718149381025809  1.0000
  C   C25       1.0  0.4238386347293712  0.0687478388904026  0.3138490950027304  1.0000
  C   C26       1.0  0.06377095125941415  0.8679343529476854  0.5050277518211104  1.0000
  C   C27       1.0  0.8832302278450753  0.9332594324498088  0.5644278256166257  1.0000
  C   C28       1.0  0.185946513239749  0.9335305803815782  0.43958460060165544  1.0000
  C   C29       1.0  0.3701095280326144  0.8696452222795015  0.37668194675144656  1.0000
  C   C30       1.0  0.487395437621558  0.9358058950638931  0.31602485956862125  1.0000
  Br  Br1       1.0  0.733187317092181  0.8441273633274803  0.6549081404511836  1.0000
  Br  Br2       1.0  0.5756106538853912  0.15442872015110956  0.6459808505397432  1.0000
  O   O1        1.0  0.6753249201249361  0.33114910665918257  0.4791996290037162  1.0000
  O   O2        1.0  0.8640907359572123  0.5104415911483428  0.6264037614875662  1.0000
  O   O3        1.0  0.00527668166628801  0.6713262614022354  0.49460062693674434  1.0000
  O   O4        1.0  0.46106929427876503  0.5182408360222934  0.37759354722756905  1.0000
  O   O5        1.0  0.32742655544160476  0.6733789301790267  0.5205687558339562  1.0000
  O   O6        1.0  0.14134958011391766  0.482137469188565  0.37738419124723777  1.0000
  O   O7        1.0  0.9981391994489497  0.32646866816833864  0.5083645768510434  1.0000
  O   O8        1.0  0.5341131132647517  0.4895025762982356  0.6248306402401482  1.0000
  O   O9        1.0  0.2653684536132701  0.4409732314762633  0.5390252282840677  1.0000
  O   O10       1.0  0.7390194914381993  0.5615531735018138  0.46375857265983467  1.0000
