data_image0
_chemical_formula_structural       Co2Mo6H16C20N4O20
_chemical_formula_sum              "Co2 Mo6 H16 C20 N4 O20"
_cell_length_a       7.096665304119062
_cell_length_b       10.40741825237298
_cell_length_c       10.631444482223637
_cell_angle_alpha    89.04646215579803
_cell_angle_beta     90.1675778424259
_cell_angle_gamma    79.24180985743145

_space_group_name_H-M_alt    "P 1"
_space_group_IT_number       1

loop_
  _space_group_symop_operation_xyz
  'x, y, z'

loop_
  _atom_site_type_symbol
  _atom_site_label
  _atom_site_symmetry_multiplicity
  _atom_site_fract_x
  _atom_site_fract_y
  _atom_site_fract_z
  _atom_site_occupancy
  Co  Co1       1.0  0.24457787356790564  0.08034596637757832  0.8051899218355771  1.0000
  Co  Co2       1.0  0.7551540298589926  0.919376149995472  0.1949000072516682  1.0000
  Mo  Mo1       1.0  0.11475108027082827  0.34595251827692414  0.01848694164233681  1.0000
  Mo  Mo2       1.0  0.8853397240175125  0.653866737928361  0.9817000781461047  1.0000
  Mo  Mo3       1.0  0.37853034190506923  0.5332100196741507  0.13282485345051503  1.0000
  Mo  Mo4       1.0  0.6218655344318051  0.46652324429203423  0.8669567137044042  1.0000
  Mo  Mo5       1.0  0.2753002759774218  0.8911637272031644  0.1002941057223623  1.0000
  Mo  Mo6       1.0  0.7245770086902539  0.10849316834088545  0.899677706873817  1.0000
  H   H1        1.0  0.1938682029584981  0.3632683467646558  0.7268632860237645  1.0000
  H   H2        1.0  0.8062236512019325  0.6365318114800119  0.2738254490516852  1.0000
  H   H3        1.0  0.18363681880584434  0.4776639115484613  0.517460232067819  1.0000
  H   H4        1.0  0.8165624567031387  0.5225364864904664  0.4834653945214029  1.0000
  H   H5        1.0  0.2043546560746066  0.34490545087565755  0.3207629316974164  1.0000
  H   H6        1.0  0.7955273715719214  0.6557748739466475  0.6798626006834497  1.0000
  H   H7        1.0  0.23537321161521876  0.10278053923131841  0.3415483564129006  1.0000
  H   H8        1.0  0.7644284359408289  0.897831047477425  0.6585573591376247  1.0000
  H   H9        1.0  0.24401020881536784  0.8993539135120161  0.3808212832856129  1.0000
  H   H10       1.0  0.7556887837001867  0.10123139797492804  0.6188945280051072  1.0000
  H   H11       1.0  0.2924345194777942  0.6644831527178994  0.447424376263193  1.0000
  H   H12       1.0  0.70754957268241  0.33594872661325337  0.5518731641285868  1.0000
  H   H13       1.0  0.32767813028571163  0.6085646125207306  0.6797140038398055  1.0000
  H   H14       1.0  0.6725854014834098  0.3912876073002636  0.31950176564124894  1.0000
  H   H15       1.0  0.3191536141160113  0.7876005616267039  0.8319018870539239  1.0000
  H   H16       1.0  0.6806489621107803  0.2120465854564415  0.1676721930226179  1.0000
  C   C1        1.0  0.20128543164103266  0.30976009891892897  0.6395066507715441  1.0000
  C   C2        1.0  0.7987531728940596  0.690257828684679  0.3610546294386268  1.0000
  C   C3        1.0  0.19522152712468  0.37209002075462666  0.5224606157465317  1.0000
  C   C4        1.0  0.8049721796955609  0.6281174211038378  0.47818833191246307  1.0000
  C   C5        1.0  0.20611043107747656  0.298552469690577  0.4132942363393965  1.0000
  C   C6        1.0  0.7938646133463648  0.7018955996104879  0.5872135533948253  1.0000
  C   C7        1.0  0.22351676264010933  0.16360670135740207  0.42459428587965675  1.0000
  C   C8        1.0  0.7762548115555176  0.8368352925673436  0.5756623633050353  1.0000
  C   C9        1.0  0.22990899961875746  0.10613090821045294  0.5444739636066416  1.0000
  C   C10       1.0  0.7698501067305517  0.8941045735311236  0.4556869611467889  1.0000
  C   C11       1.0  0.25339951538138905  0.9665573839560723  0.570521093453273  1.0000
  C   C12       1.0  0.7463640730016082  0.033621601427860484  0.42937285039003836  1.0000
  C   C13       1.0  0.25956163152361  0.8710054719275675  0.4797324470517523  1.0000
  C   C14       1.0  0.740223296043844  0.1293800805374659  0.5199421202958447  1.0000
  C   C15       1.0  0.2855832718160229  0.7402337233916472  0.517623091373828  1.0000
  C   C16       1.0  0.7144276757508621  0.26006852398996466  0.481833108634973  1.0000
  C   C17       1.0  0.3062831375365462  0.7091559151086245  0.6453311797987524  1.0000
  C   C18       1.0  0.6937555155311658  0.2908117954736582  0.3540778803113227  1.0000
  C   C19       1.0  0.3008106032658586  0.8085399838620333  0.7319460961887856  1.0000
  C   C20       1.0  0.6989905293629802  0.1912753553484947  0.2676435477911951  1.0000
  N   N1        1.0  0.21885343031140544  0.1788720883856811  0.6508836435998903  1.0000
  N   N2        1.0  0.7809698039354276  0.8211368636281833  0.3494274859695849  1.0000
  N   N3        1.0  0.27166645833334263  0.9348341981183025  0.6957015625327188  1.0000
  N   N4        1.0  0.7281066057797078  0.0650464080114403  0.3041247801614091  1.0000
  O   O1        1.0  0.9939835929029143  0.2608052001561632  0.1169738829870468  1.0000
  O   O2        1.0  0.006023831291393757  0.7394445760553695  0.8836167650636356  1.0000
  O   O3        1.0  0.20998047105653936  0.23327985875776144  0.901892259474529  1.0000
  O   O4        1.0  0.7895802339170572  0.7661961254629475  0.0984666374570722  1.0000
  O   O5        1.0  0.08076516407002292  0.5437185162215171  0.0853540946403228  1.0000
  O   O6        1.0  0.9196710119410197  0.4560876240377639  0.9146499536302317  1.0000
  O   O7        1.0  0.33842198648454064  0.3554760500275905  0.11563556763780272  1.0000
  O   O8        1.0  0.6621251387960143  0.6442655322900137  0.8841101808353855  1.0000
  O   O9        1.0  0.3675907228964591  0.5496454075897432  0.2923469950060991  1.0000
  O   O10       1.0  0.6332160475965408  0.45005847513957786  0.7074325489972821  1.0000
  O   O11       1.0  0.6259372111057145  0.5019452324092769  0.0982497613458406  1.0000
  O   O12       1.0  0.3743917625404051  0.49783902625222254  0.9011874603029355  1.0000
  O   O13       1.0  0.32667543236728847  0.7112817828774426  0.0739873411625354  1.0000
  O   O14       1.0  0.6737126879689866  0.288434154925632  0.9258820330369844  1.0000
  O   O15       1.0  0.9426404019422635  0.07154398297056731  0.8204039264485985  1.0000
  O   O16       1.0  0.05715499855155309  0.9279868221975253  0.17950255060588924  1.0000
  O   O17       1.0  0.27722403925086075  0.9755075397344155  0.9543898689123581  1.0000
  O   O18       1.0  0.7225793606123575  0.0239459347744244  0.0454880062059715  1.0000
  O   O19       1.0  0.5514297603262223  0.06876975576237498  0.7972477103239229  1.0000
  O   O20       1.0  0.44833843427799996  0.9311356555306176  0.2027023114030513  1.0000
