data_image0
_chemical_formula_structural       Al3H45C81O18
_chemical_formula_sum              "Al3 H45 C81 O18"
_cell_length_a       4.016288625211603
_cell_length_b       27.741702267640406
_cell_length_c       27.802286672663897
_cell_angle_alpha    59.92577825564251
_cell_angle_beta     89.67262362844752
_cell_angle_gamma    89.25509510686406

_space_group_name_H-M_alt    "P 1"
_space_group_IT_number       1

loop_
  _space_group_symop_operation_xyz
  'x, y, z'

loop_
  _atom_site_type_symbol
  _atom_site_label
  _atom_site_symmetry_multiplicity
  _atom_site_fract_x
  _atom_site_fract_y
  _atom_site_fract_z
  _atom_site_occupancy
  Al  Al1       1.0  0.99849790421456  0.5000985427551755  0.4996810145100453  1.0000
  Al  Al2       1.0  0.9546760489879843  0.8332922765650533  0.8330096558448759  1.0000
  Al  Al3       1.0  0.05367836947655752  0.16655986177586607  0.16599879393493916  1.0000
  H   H1        1.0  0.5112723778286253  0.07727613414817117  0.9225558944702782  1.0000
  H   H2        1.0  0.5227589685322444  0.2562242067548438  0.8328732874532251  1.0000
  H   H3        1.0  0.4994251030013929  0.1665097783774738  0.7440011502457581  1.0000
  H   H4        1.0  0.7610951493077281  0.9275721343209542  0.9068933208031565  1.0000
  H   H5        1.0  0.7836381521174048  0.016487167796100353  0.9071688382672747  1.0000
  H   H6        1.0  0.17394962561643015  0.09519454644107839  0.7598380357961361  1.0000
  H   H7        1.0  0.15573503937891084  0.006489009539379363  0.7590159471322905  1.0000
  H   H8        1.0  0.2396143802950094  0.0930178506632017  0.9819716258103739  1.0000
  H   H9        1.0  0.25408320795406786  0.09332404670855958  0.0706975513850878  1.0000
  H   H10       1.0  0.8487020157481882  0.24153652825555855  0.9936133543046708  1.0000
  H   H11       1.0  0.8390090012152883  0.24057307264965994  0.9051171109129327  1.0000
  H   H12       1.0  0.8120415606880869  0.31428711244758745  0.7588835549685483  1.0000
  H   H13       1.0  0.8110023299879076  0.4034218992589372  0.6689866731499166  1.0000
  H   H14       1.0  0.19973189038972095  0.33041726761111073  0.5966424199687452  1.0000
  H   H15       1.0  0.2068123152333001  0.24060722595451983  0.6858237835923546  1.0000
  H   H16       1.0  0.5099318299620066  0.4997436493283375  0.07791702676843944  1.0000
  H   H17       1.0  0.5055066490066055  0.5894745868777279  0.16679699591821887  1.0000
  H   H18       1.0  0.5155606158317171  0.41038593365811954  0.25654016576229577  1.0000
  H   H19       1.0  0.23878388146265914  0.3362074118868676  0.09382161283610195  1.0000
  H   H20       1.0  0.22560109032324507  0.4254128356227938  0.09374250642219556  1.0000
  H   H21       1.0  0.8347482239721274  0.35223810520452054  0.2411297759638842  1.0000
  H   H22       1.0  0.8441789017331517  0.2627376052616555  0.24174498586616983  1.0000
  H   H23       1.0  0.794430013048384  0.5745714558796776  0.018535145619715403  1.0000
  H   H24       1.0  0.7762346474213758  0.663712765786549  0.9293870416466702  1.0000
  H   H25       1.0  0.16357351580565901  0.736112482162028  0.005071101724645672  1.0000
  H   H26       1.0  0.17865224872302582  0.6466835757438787  0.09404321311891552  1.0000
  H   H27       1.0  0.1993182851641465  0.5738044153779355  0.24049158899105552  1.0000
  H   H28       1.0  0.19140737343003175  0.5730948499706798  0.3302030853516271  1.0000
  H   H29       1.0  0.8191311074054681  0.42702545763962263  0.40337092776282196  1.0000
  H   H30       1.0  0.8191406863223424  0.42616534636160713  0.31442383132453244  1.0000
  H   H31       1.0  0.49179717798492106  0.9229137600033113  0.49978248731871133  1.0000
  H   H32       1.0  0.4901504160941457  0.8336026704579496  0.41055934085641616  1.0000
  H   H33       1.0  0.47715698167170484  0.743882958046484  0.5891867035149403  1.0000
  H   H34       1.0  0.758519709757657  0.9062607565420747  0.663803328017103  1.0000
  H   H35       1.0  0.7674158383432329  0.9069062033672425  0.5745680197134746  1.0000
  H   H36       1.0  0.16539570723043084  0.7596061117722286  0.6466287117515036  1.0000
  H   H37       1.0  0.1607230335151543  0.7584175027756004  0.7361840331723215  1.0000
  H   H38       1.0  0.2120941226432365  0.9837593248512703  0.42350778074840895  1.0000
  H   H39       1.0  0.23814238245705618  0.07255795062028621  0.33411640132232623  1.0000
  H   H40       1.0  0.8488547590362074  0.9930237348292151  0.2653947737826883  1.0000
  H   H41       1.0  0.8262497626823874  0.9044895281794325  0.3550300591283315  1.0000
  H   H42       1.0  0.7882360601282983  0.7593862158744143  0.42629771068938993  1.0000
  H   H43       1.0  0.7954240950536261  0.6695140859548018  0.4269988152881653  1.0000
  H   H44       1.0  0.1770597288223145  0.5969605327712842  0.5725461773368608  1.0000
  H   H45       1.0  0.17666573567458244  0.6861496277544815  0.5733031269924568  1.0000
  C   C1        1.0  0.4909547117236955  0.574162042267858  0.49973937688707076  1.0000
  C   C2        1.0  0.5024468685086845  0.42600434342366356  0.573698622647825  1.0000
  C   C3        1.0  0.5022111403126036  0.5000960410730927  0.4257456306460412  1.0000
  C   C4        1.0  0.45052212072634035  0.9078522628129022  0.8322570833074749  1.0000
  C   C5        1.0  0.46011312345728334  0.7595773592978221  0.9077196538524108  1.0000
  C   C6        1.0  0.4570737272717195  0.8320004244758151  0.7596215130324142  1.0000
  C   C7        1.0  0.5555319833989287  0.1677899117952748  0.0914074563602512  1.0000
  C   C8        1.0  0.5477605610758688  0.23999621083864037  0.167528937416499  1.0000
  C   C9        1.0  0.5544106499020245  0.09194331655806565  0.23978960679779956  1.0000
  C   C10       1.0  0.5269687627108156  0.16672307429589495  0.8838126351393001  1.0000
  C   C11       1.0  0.5113793163605038  0.11655970203477042  0.8832682517840168  1.0000
  C   C12       1.0  0.4954177438082825  0.11578287033901087  0.8333241096014206  1.0000
  C   C13       1.0  0.49785132187611936  0.1666535094635576  0.7831444110733018  1.0000
  C   C14       1.0  0.5115746391007151  0.2176253365079505  0.7821748957173539  1.0000
  C   C15       1.0  0.5250312084142907  0.21689713205147845  0.832931914964746  1.0000
  C   C16       1.0  0.6284075566583099  0.9642095919888759  0.8751521439259377  1.0000
  C   C17       1.0  0.6389928363399167  0.01426679105018277  0.8752823245348508  1.0000
  C   C18       1.0  0.48103630536093783  0.06252981797980083  0.8334332128303429  1.0000
  C   C19       1.0  0.3095791951679487  0.05886516159399245  0.7914811172854853  1.0000
  C   C20       1.0  0.2968765712955063  0.008957142317257097  0.7910771006557766  1.0000
  C   C21       1.0  0.457255521972712  0.9614065512458791  0.8329367296329623  1.0000
  C   C22       1.0  0.3806458393024172  0.12491458794400502  0.9846115211994401  1.0000
  C   C23       1.0  0.3860561393809903  0.1251448598108666  0.034519386140559015  1.0000
  C   C24       1.0  0.5514081336330036  0.1675256792732824  0.037753149880089217  1.0000
  C   C25       1.0  0.7114894841336721  0.209394340608114  0.9907715356469067  1.0000
  C   C26       1.0  0.7039873018672013  0.20885940432987132  0.9409799993919633  1.0000
  C   C27       1.0  0.5380077236783052  0.16678363007566332  0.9368928632709128  1.0000
  C   C28       1.0  0.6735408344014786  0.3178039736649723  0.7236370058335524  1.0000
  C   C29       1.0  0.6751546989471607  0.36770437721815347  0.6733891967351368  1.0000
  C   C30       1.0  0.505218250885271  0.37243974783868344  0.6272735723433555  1.0000
  C   C31       1.0  0.33787602524189714  0.3261468655227233  0.6321955283146821  1.0000
  C   C32       1.0  0.3445705460308944  0.27591652011307843  0.6821128774789784  1.0000
  C   C33       1.0  0.5102694520758676  0.2708364413177335  0.7289040478596576  1.0000
  C   C34       1.0  0.4986319585451183  0.5507434894799488  0.11620605867378234  1.0000
  C   C35       1.0  0.5102668951384574  0.49977797276090286  0.11710829042388586  1.0000
  C   C36       1.0  0.5217219153163484  0.4488706463090111  0.16724330204066004  1.0000
  C   C37       1.0  0.520631525225902  0.4496810245595243  0.21725608575526684  1.0000
  C   C38       1.0  0.5111017440656981  0.49993676089948735  0.21784762502093716  1.0000
  C   C39       1.0  0.5009838527675613  0.5501105844063332  0.16694046692128958  1.0000
  C   C40       1.0  0.37328457823556266  0.34005240214923305  0.12565228611536847  1.0000
  C   C41       1.0  0.3679414234471921  0.39024157334261395  0.1255995710375259  1.0000
  C   C42       1.0  0.5288260023758653  0.39548462581993965  0.16745274050518327  1.0000
  C   C43       1.0  0.6969748989413276  0.348600448921104  0.20943765190637725  1.0000
  C   C44       1.0  0.7046590022373637  0.2982469745020424  0.20974901667905493  1.0000
  C   C45       1.0  0.5419729496880095  0.2937985794154089  0.16779409337136297  1.0000
  C   C46       1.0  0.649493942618129  0.6094907876133461  0.015498428290165235  1.0000
  C   C47       1.0  0.6414700319599689  0.6596529282037908  0.9653496743940336  1.0000
  C   C48       1.0  0.46924523363292553  0.7056024462855602  0.961584578926015  1.0000
  C   C49       1.0  0.3058390082070517  0.7008529107923279  0.00832820612210144  1.0000
  C   C50       1.0  0.31635455410019386  0.6505583628227498  0.058376506002503034  1.0000
  C   C51       1.0  0.4881240398626332  0.6040011895874855  0.06292818275248638  1.0000
  C   C52       1.0  0.34007111136557466  0.5420051148637484  0.27585456834152916  1.0000
  C   C53       1.0  0.3332061070606401  0.5416686775839848  0.32599100364218003  1.0000
  C   C54       1.0  0.505191308110895  0.5000955233111738  0.3722788297890033  1.0000
  C   C55       1.0  0.6796121522531849  0.45847931919018947  0.3676624089623104  1.0000
  C   C56       1.0  0.6776029130669488  0.45809166683260116  0.31788160663494125  1.0000
  C   C57       1.0  0.5099683896457775  0.5000284590267157  0.27092215206781123  1.0000
  C   C58       1.0  0.5007921207154453  0.884313620700837  0.4491115659967591  1.0000
  C   C59       1.0  0.4885780050305471  0.8835847780375231  0.49986333843102665  1.0000
  C   C60       1.0  0.4743229060660995  0.8334224602907413  0.5506569304191871  1.0000
  C   C61       1.0  0.4735115938592999  0.7832436909915542  0.5499463010243558  1.0000
  C   C62       1.0  0.4827818318399011  0.7825015012736712  0.4998945218688391  1.0000
  C   C63       1.0  0.4951160904136744  0.8334482755641871  0.44983635596285143  1.0000
  C   C64       1.0  0.6249071479944633  0.8745365905357331  0.6597290579358415  1.0000
  C   C65       1.0  0.627480112142209  0.8749260181065992  0.6094812582667188  1.0000
  C   C66       1.0  0.4677794176899185  0.8332177536054957  0.6039154839676755  1.0000
  C   C67       1.0  0.30261087375990314  0.7911461463753752  0.6505162585518606  1.0000
  C   C68       1.0  0.29791751777227676  0.7904712170084167  0.7009263263751961  1.0000
  C   C69       1.0  0.46038350494509933  0.8321750501698802  0.705729424749073  1.0000
  C   C70       1.0  0.35855870095739567  0.9858646281518162  0.3893708871984459  1.0000
  C   C71       1.0  0.3711772488567534  0.03583051006862799  0.3390681671443829  1.0000
  C   C72       1.0  0.5448539740177055  0.038427932721475676  0.29406098257890523  1.0000
  C   C73       1.0  0.7056377878516217  0.9907417163367852  0.29988529085505883  1.0000
  C   C74       1.0  0.6906144881704464  0.9409321158486177  0.35027405748424195  1.0000
  C   C75       1.0  0.5165837877536675  0.9374765313646306  0.39587397963260423  1.0000
  C   C76       1.0  0.6496804129677687  0.7241305910939743  0.4580058571646645  1.0000
  C   C77       1.0  0.6558797950881045  0.6739082150832304  0.45831812178730746  1.0000
  C   C78       1.0  0.48665418449651554  0.6277250626098124  0.49977481883960456  1.0000
  C   C79       1.0  0.3145681362633681  0.6325929884112752  0.5411949671760753  1.0000
  C   C80       1.0  0.31688791236333474  0.6824886389638323  0.5415671214817763  1.0000
  C   C81       1.0  0.4826717274464657  0.7292868530189622  0.4998460063205599  1.0000
  O   O1        1.0  0.7376676997786478  0.47385287690818945  0.4601642844710554  1.0000
  O   O2        1.0  0.7271938594938377  0.5660139682485408  0.4735287654816105  1.0000
  O   O3        1.0  0.7342806192175217  0.4604525490946258  0.5654464180668979  1.0000
  O   O4        1.0  0.2646150265295831  0.5263024929409994  0.4338604811294928  1.0000
  O   O5        1.0  0.2685988327877453  0.4341693249359294  0.539339370969131  1.0000
  O   O6        1.0  0.25822796697525524  0.5397353860020146  0.5258783484614186  1.0000
  O   O7        1.0  0.6933196526127009  0.8063810195361325  0.7937959540203393  1.0000
  O   O8        1.0  0.684509751678398  0.8991248610062853  0.8062522983372703  1.0000
  O   O9        1.0  0.6911284164237587  0.7941589400060708  0.8988297543956562  1.0000
  O   O10       1.0  0.2178959020159112  0.8578813893008713  0.7675345985069556  1.0000
  O   O11       1.0  0.22253711966266118  0.7673424989373671  0.8743291030250334  1.0000
  O   O12       1.0  0.2130157232157757  0.8745891669469971  0.8576787146514986  1.0000
  O   O13       1.0  0.7914792695765985  0.12515376295807804  0.23195068578759503  1.0000
  O   O14       1.0  0.7943323263709419  0.1419971239624687  0.12490252928286341  1.0000
  O   O15       1.0  0.7855438389443068  0.23219104875494884  0.1415488058077088  1.0000
  O   O16       1.0  0.3229004064211622  0.1007245940504902  0.2050250787989967  1.0000
  O   O17       1.0  0.31416847840406353  0.2057770089397266  0.19294204238376267  1.0000
  O   O18       1.0  0.3189968255385411  0.19354820167860956  0.10013677567638271  1.0000
