data_image0
_chemical_formula_structural       Tl6H54C48O6
_chemical_formula_sum              "Tl6 H54 C48 O6"
_cell_length_a       6.871219511335157
_cell_length_b       14.417346521221047
_cell_length_c       14.417263490992102
_cell_angle_alpha    117.46872924751838
_cell_angle_beta     99.13092870956501
_cell_angle_gamma    99.1301118484066

_space_group_name_H-M_alt    "P 1"
_space_group_IT_number       1

loop_
  _space_group_symop_operation_xyz
  'x, y, z'

loop_
  _atom_site_type_symbol
  _atom_site_label
  _atom_site_symmetry_multiplicity
  _atom_site_fract_x
  _atom_site_fract_y
  _atom_site_fract_z
  _atom_site_occupancy
  Tl  Tl1       1.0  0.40486128395144766  0.747459018707353  0.131223445111921  1.0000
  Tl  Tl2       1.0  0.6568012950762283  0.384341483432074  0.25294478456015673  1.0000
  Tl  Tl3       1.0  0.1568079793683026  0.2529485389586554  0.3843415613826481  1.0000
  Tl  Tl4       1.0  0.273752833666599  0.8686393717974285  0.615808626667864  1.0000
  Tl  Tl5       1.0  0.9048907761216256  0.13123116725926556  0.7474689168604555  1.0000
  Tl  Tl6       1.0  0.7737612502030372  0.6158084822801939  0.8686357732875933  1.0000
  H   H1        1.0  0.2546845797280568  0.02377316986112281  0.3112689085812833  1.0000
  H   H2        1.0  0.23127417272625916  0.2873811835623385  0.9762998937569024  1.0000
  H   H3        1.0  0.7312956813431627  0.9763083799780647  0.2873819278343249  1.0000
  H   H4        1.0  0.9450299285810005  0.6888963134784376  0.7128947058283899  1.0000
  H   H5        1.0  0.7547060921207205  0.3112752340245208  0.02378990328658404  1.0000
  H   H6        1.0  0.4450375835944485  0.7128903208332033  0.6888878162475436  1.0000
  H   H7        1.0  0.33698525438912  0.9431306733937603  0.42622844707438656  1.0000
  H   H8        1.0  0.3946349060280668  0.48270717588007966  0.05644904825578579  1.0000
  H   H9        1.0  0.8946716078105866  0.056460354919806804  0.4827071973175379  1.0000
  H   H10       1.0  0.9128724993904245  0.573914884226582  0.5175496265537659  1.0000
  H   H11       1.0  0.837002128591003  0.4262236965925937  0.9431319510936973  1.0000
  H   H12       1.0  0.41288462399925413  0.5175477511932556  0.5739047208396428  1.0000
  H   H13       1.0  0.15729943485936096  0.7500481042887371  0.3617774612618376  1.0000
  H   H14       1.0  0.4075422823014421  0.6114615745369534  0.2494058651685337  1.0000
  H   H15       1.0  0.9075528056372802  0.24941814046026423  0.6114593848606162  1.0000
  H   H16       1.0  0.7964704206512679  0.6380393071765341  0.3886503685390324  1.0000
  H   H17       1.0  0.6573287501268511  0.3617669912433002  0.7500498659061564  1.0000
  H   H18       1.0  0.2965088437688409  0.3886506053465694  0.638035884675986  1.0000
  H   H19       1.0  0.9182746531940325  0.5854291905215021  0.23431832238696162  1.0000
  H   H20       1.0  0.33403397432622495  0.6487283629284805  0.4143681764766144  1.0000
  H   H21       1.0  0.8340414032788175  0.4143678814817307  0.6487303732891904  1.0000
  H   H22       1.0  0.6843925546806701  0.7653315977653675  0.3510887253128701  1.0000
  H   H23       1.0  0.41832421192105335  0.23430068193665224  0.5854258461330701  1.0000
  H   H24       1.0  0.18441976088121956  0.3510878685463865  0.7653178966089556  1.0000
  H   H25       1.0  0.8958308355582644  0.5555136068046096  0.09878444523363329  1.0000
  H   H26       1.0  0.3371788134812235  0.5427260667498786  0.4442323476037799  1.0000
  H   H27       1.0  0.8371804104133533  0.4442329037597261  0.5427216396180726  1.0000
  H   H28       1.0  0.7964751560048314  0.9009807537181161  0.45640488815832486  1.0000
  H   H29       1.0  0.3958940459838374  0.09877136708954738  0.5555237791376798  1.0000
  H   H30       1.0  0.2965034973501091  0.45639904133063414  0.9009649688246668  1.0000
  H   H31       1.0  0.6975313548456228  0.59423811818899  0.15800161315524264  1.0000
  H   H32       1.0  0.10233819811563197  0.5649458819893809  0.40516690852728493  1.0000
  H   H33       1.0  0.602329101949998  0.4051697690962399  0.5649469825752932  1.0000
  H   H34       1.0  0.5393120718603513  0.8413436981900942  0.43592409206332416  1.0000
  H   H35       1.0  0.19756750468240372  0.1579795402256821  0.5942253496272798  1.0000
  H   H36       1.0  0.03934953268013432  0.43591565052236103  0.8413366659301502  1.0000
  H   H37       1.0  0.0359818101851488  0.018657801430528295  0.1597408473210038  1.0000
  H   H38       1.0  0.01718974109944331  0.1414193286500662  0.9817507336418317  1.0000
  H   H39       1.0  0.5171718799255133  0.9817508378107221  0.14142067688867865  1.0000
  H   H40       1.0  0.877237089067691  0.8403190847898969  0.8589019124663511  1.0000
  H   H41       1.0  0.5359950807707322  0.1597460317960184  0.018672365392085114  1.0000
  H   H42       1.0  0.3772295165420588  0.8588958016913112  0.8403073033510324  1.0000
  H   H43       1.0  0.8056076443547084  0.912659306961416  0.0836394688598361  1.0000
  H   H44       1.0  0.8924926539378933  0.1715549716921387  0.08777444684286453  1.0000
  H   H45       1.0  0.3924833140219732  0.0877719054473474  0.17155877449765464  1.0000
  H   H46       1.0  0.7221836909259095  0.9161153666912156  0.8287166818175038  1.0000
  H   H47       1.0  0.30562599344347774  0.08365168193695645  0.912669217247533  1.0000
  H   H48       1.0  0.22216677413899788  0.8287172631586869  0.9161028964080344  1.0000
  H   H49       1.0  0.03285857208452829  0.8965339111929039  0.04403208971388739  1.0000
  H   H50       1.0  0.1355964165107224  0.1477407914767639  0.10402550585880019  1.0000
  H   H51       1.0  0.63555631516617  0.10401782017823538  0.14773544035195843  1.0000
  H   H52       1.0  0.988994198060475  0.9561564188630598  0.8523008666825193  1.0000
  H   H53       1.0  0.5328711715035652  0.044042697481863506  0.8965518751976518  1.0000
  H   H54       1.0  0.48898784591713723  0.852297075126117  0.9561457317870181  1.0000
  C   C1        1.0  0.910576631487345  0.7738981527933859  0.1510901132839138  1.0000
  C   C2        1.0  0.13630177700969176  0.377411182335493  0.22616747746149463  1.0000
  C   C3        1.0  0.6363052700328213  0.22617971134620524  0.37742158064178716  1.0000
  C   C4        1.0  0.7601672052871821  0.8488150437980267  0.6227265768298339  1.0000
  C   C5        1.0  0.41060205934243754  0.15109261115006942  0.7739058782558459  1.0000
  C   C6        1.0  0.2601767822520388  0.6227289920524939  0.8488052615597752  1.0000
  C   C7        1.0  0.02097806287961392  0.8820865863322351  0.18573629297146968  1.0000
  C   C8        1.0  0.13877394376326896  0.3038359485176941  0.11809817548729741  1.0000
  C   C9        1.0  0.6387673233687681  0.11810533938083272  0.30384166306590293  1.0000
  C   C10       1.0  0.836177705395862  0.814273348624887  0.6963629362411651  1.0000
  C   C11       1.0  0.5210106826058265  0.18574184426162793  0.8820983382986328  1.0000
  C   C12       1.0  0.3361832373272264  0.6963660310928503  0.8142692057789703  1.0000
  C   C13       1.0  0.17156858223093965  0.9408501785891231  0.2845473903651482  1.0000
  C   C14       1.0  0.23094734387916563  0.3436447625035726  0.059145409175769645  1.0000
  C   C15       1.0  0.7309560086642578  0.0591621147574983  0.34365560993719413  1.0000
  C   C16       1.0  0.8884059215306054  0.7155341034511054  0.6565820161052686  1.0000
  C   C17       1.0  0.6715758057812239  0.2845460309359281  0.9408703006967372  1.0000
  C   C18       1.0  0.3884234606652655  0.6565857174504542  0.7155246601092743  1.0000
  C   C19       1.0  0.21952454956330322  0.8954634522474694  0.34954664644742206  1.0000
  C   C20       1.0  0.3244128899340524  0.45391538108600576  0.10425771415426512  1.0000
  C   C21       1.0  0.8244312932309014  0.1042604840690728  0.4539140912619858  1.0000
  C   C22       1.0  0.8715396456675109  0.6504865231689507  0.5463389142889882  1.0000
  C   C23       1.0  0.7195449640768032  0.34954845491226644  0.8954781507063885  1.0000
  C   C24       1.0  0.3715578268814  0.5463350484506222  0.6504821604628718  1.0000
  C   C25       1.0  0.11878557225381317  0.788010639895333  0.3134406099627681  1.0000
  C   C26       1.0  0.3307499431553182  0.5252959293131597  0.21158112418560657  1.0000
  C   C27       1.0  0.8307618233107377  0.21159591839882103  0.5253072825966784  1.0000
  C   C28       1.0  0.806333874009411  0.6864353662249627  0.4748532938010683  1.0000
  C   C29       1.0  0.6188046744287377  0.3134358131495958  0.7880133843497532  1.0000
  C   C30       1.0  0.30636734659783843  0.4748573729772688  0.6864248092584475  1.0000
  C   C31       1.0  0.9679082130783886  0.7259454563616005  0.2150660087622215  1.0000
  C   C32       1.0  0.24153203615468039  0.4891948623019359  0.27380827555267473  1.0000
  C   C33       1.0  0.7415326445942512  0.27380870984763556  0.48919388499830774  1.0000
  C   C34       1.0  0.7533889699696702  0.7847472285294543  0.5109124513939705  1.0000
  C   C35       1.0  0.46794710097507414  0.21506515590710512  0.7259534413956601  1.0000
  C   C36       1.0  0.25341119852313204  0.5109157832720969  0.7847423339142452  1.0000
  C   C37       1.0  0.8645150385318062  0.6098561865509852  0.17531587703045673  1.0000
  C   C38       1.0  0.25386431824602346  0.5655834925390266  0.3897854831671524  1.0000
  C   C39       1.0  0.7538644449649257  0.3897843284675844  0.5655836718240081  1.0000
  C   C40       1.0  0.6892946338575927  0.8243111289081  0.4343659269893793  1.0000
  C   C41       1.0  0.3645506503079333  0.17530003572908734  0.6098564341187256  1.0000
  C   C42       1.0  0.18932054385960134  0.43436326660057045  0.8243040121852162  1.0000
  C   C43       1.0  0.9713127858715965  0.9304206188417439  0.11533827492176835  1.0000
  C   C44       1.0  0.04059745099260685  0.18525382085768888  0.06999497477928436  1.0000
  C   C45       1.0  0.5405794760215984  0.06999430753086949  0.18525496013302253  1.0000
  C   C46       1.0  0.8565699624054945  0.8846529982509497  0.8149245388155607  1.0000
  C   C47       1.0  0.4713312703583342  0.115348162403869  0.9304375783318195  1.0000
  C   C48       1.0  0.35656464069609956  0.8149235852725738  0.8846408267720918  1.0000
  O   O1        1.0  0.7551761736860528  0.7195230495001612  0.06242134784446322  1.0000
  O   O2        1.0  0.035162596628204285  0.34333604404171325  0.28071899405075834  1.0000
  O   O3        1.0  0.5351510636588446  0.2807190719856436  0.34333195922774723  1.0000
  O   O4        1.0  0.6930419461213333  0.9374142504483274  0.6567948950939525  1.0000
  O   O5        1.0  0.2551973430234895  0.062426899603814014  0.7195406383763016  1.0000
  O   O6        1.0  0.19303893978557338  0.6567876696043625  0.9373990635138655  1.0000
