data_image0
_chemical_formula_structural       U2H34C20N4O18
_chemical_formula_sum              "U2 H34 C20 N4 O18"
_cell_length_a       8.479838611463713
_cell_length_b       8.595577686128175
_cell_length_c       10.794093236352184
_cell_angle_alpha    72.57460790414929
_cell_angle_beta     75.91899905885512
_cell_angle_gamma    79.68028797717126

_space_group_name_H-M_alt    "P 1"
_space_group_IT_number       1

loop_
  _space_group_symop_operation_xyz
  'x, y, z'

loop_
  _atom_site_type_symbol
  _atom_site_label
  _atom_site_symmetry_multiplicity
  _atom_site_fract_x
  _atom_site_fract_y
  _atom_site_fract_z
  _atom_site_occupancy
  U   U1        1.0  0.8168243781015717  0.5594486101001975  0.7816896547896518  1.0000
  U   U2        1.0  0.1831633423951828  0.440548523070575  0.2183139640467644  1.0000
  H   H1        1.0  0.7379846022721921  0.7112894679545079  0.9866576678639519  1.0000
  H   H2        1.0  0.26201255979745497  0.28871015111398884  0.01334443272717322  1.0000
  H   H3        1.0  0.572380798738031  0.6419092546673042  0.0011566031968684323  1.0000
  H   H4        1.0  0.42761605824279775  0.3580928209439024  0.9988431183303063  1.0000
  H   H5        1.0  0.5991600752343302  0.08021008718260698  0.23785495838102833  1.0000
  H   H6        1.0  0.40084026708179715  0.9197932294264534  0.7621419306566111  1.0000
  H   H7        1.0  0.8109745279374748  0.16634521036398553  0.5525380607198896  1.0000
  H   H8        1.0  0.1890250647558034  0.8336544166497502  0.4474635612766421  1.0000
  H   H9        1.0  0.6855550398317476  0.3564931146158727  0.5281860565639817  1.0000
  H   H10       1.0  0.3144444003171217  0.6435077406692143  0.4718143759005855  1.0000
  H   H11       1.0  0.541162442711382  0.24179203609411107  0.39087561023126943  1.0000
  H   H12       1.0  0.4588392755167091  0.7582100554075666  0.6091231541067259  1.0000
  H   H13       1.0  0.7400817763702321  0.2968920228279259  0.3243584000595093  1.0000
  H   H14       1.0  0.25992117328113556  0.7031100710290872  0.6756419751125405  1.0000
  H   H15       1.0  0.8556219518798682  0.9961392977846162  0.397625319129034  1.0000
  H   H16       1.0  0.1443765297115931  0.0038591018370013014  0.6023721813027266  1.0000
  H   H17       1.0  0.6535356118312592  0.9453613786727004  0.4648008467205926  1.0000
  H   H18       1.0  0.3464624443499176  0.05464070252840969  0.5351967853779486  1.0000
  H   H19       1.0  0.8472077091437241  0.7898529243623286  0.25792554739023643  1.0000
  H   H20       1.0  0.1527904995818616  0.21014792856743011  0.742073274240269  1.0000
  H   H21       1.0  0.7184752034027754  0.8660419870750004  0.14076296412029168  1.0000
  H   H22       1.0  0.2815219344996719  0.13395763441942418  0.8592363612738084  1.0000
  H   H23       1.0  0.4046326264831066  0.35966093830048623  0.6879493496833362  1.0000
  H   H24       1.0  0.5953668136657625  0.6403399169846014  0.3120510827812311  1.0000
  H   H25       1.0  0.3798785667689088  0.28479590373847696  0.5585327517622147  1.0000
  H   H26       1.0  0.6201219361473634  0.7152061837905846  0.4414662518730808  1.0000
  H   H27       1.0  0.5274181833844763  0.1214210017684891  0.857748275840919  1.0000
  H   H28       1.0  0.4725813851416021  0.8785786276711675  0.14225057095859484  1.0000
  H   H29       1.0  0.7096370995160016  0.2025119656562069  0.7707742090379099  1.0000
  H   H30       1.0  0.29036370043335313  0.7974876661387924  0.2292262485956513  1.0000
  H   H31       1.0  0.9332870013668214  0.029927337829803904  0.10732518314802775  1.0000
  H   H32       1.0  0.06671730808503898  0.9700735325371143  0.8926752171930232  1.0000
  H   H33       1.0  0.8884304847661822  0.1976985777862694  0.17805414967850197  1.0000
  H   H34       1.0  0.11157139406204661  0.8023022846354093  0.8219467292571425  1.0000
  C   C1        1.0  0.6887354353897166  0.22437552284256407  0.5356101825577751  1.0000
  C   C2        1.0  0.31126414119209034  0.7756241057884524  0.4643895893074089  1.0000
  C   C3        1.0  0.668879692586259  0.20730356773853492  0.40341001297694135  1.0000
  C   C4        1.0  0.33112110736309575  0.7926960640564573  0.596590444656627  1.0000
  C   C5        1.0  0.7273161882174008  0.03451848404754541  0.3888474277592309  1.0000
  C   C6        1.0  0.27268323581999704  0.9654823728548224  0.6111511545739816  1.0000
  C   C7        1.0  0.725228924370505  0.8506190679730352  0.24397201843213884  1.0000
  C   C8        1.0  0.27477171497871217  0.14938179290195558  0.7560263246037806  1.0000
  C   C9        1.0  0.4080745553985495  0.24592771678238284  0.6581263819758618  1.0000
  C   C10       1.0  0.5919248766945912  0.7540731393113519  0.34187312542302095  1.0000
  C   C11       1.0  0.6293888526551897  0.1131174232660612  0.7738947489152537  1.0000
  C   C12       1.0  0.37060950861480535  0.8868822013923393  0.2261052622472306  1.0000
  C   C13       1.0  0.7186596685873426  0.9420609889279845  0.8167551949570466  1.0000
  C   C14       1.0  0.28134037368342757  0.057934954080330704  0.18324907056973666  1.0000
  C   C15       1.0  0.8338732327898272  0.11586187744057948  0.14363708064167469  1.0000
  C   C16       1.0  0.1661272701264451  0.884140210088482  0.8563619229936209  1.0000
  C   C17       1.0  0.7468243732919433  0.22243617600006624  0.03418101327271474  1.0000
  C   C18       1.0  0.2531907053103665  0.7775659600090492  0.9658141937293507  1.0000
  C   C19       1.0  0.9835883395637383  0.5921312271967664  0.4673510447948388  1.0000
  C   C20       1.0  0.0164164350625313  0.4078647446402996  0.5326374624919694  1.0000
  N   N1        1.0  0.5687463751520098  0.1487998138476954  0.6515325525355138  1.0000
  N   N2        1.0  0.43125184968504726  0.8512010374647758  0.3484681192263466  1.0000
  N   N3        1.0  0.7140064218685893  0.022852300967571203  0.2555701538995123  1.0000
  N   N4        1.0  0.2859952883037593  0.9771497913427466  0.7444276853728057  1.0000
  O   O1        1.0  0.014181873677635782  0.5937080951235956  0.7991259442915251  1.0000
  O   O2        1.0  0.9858271847557489  0.4062940153619365  0.20087693465674056  1.0000
  O   O3        1.0  0.6224349619633857  0.5269931197730389  0.757361257317548  1.0000
  O   O4        1.0  0.3775761948253234  0.4730016282915556  0.2426448192625656  1.0000
  O   O5        1.0  0.7333501267525548  0.8425002316244914  0.7448839139577217  1.0000
  O   O6        1.0  0.2666471717500301  0.1574981607899417  0.2551175260340274  1.0000
  O   O7        1.0  0.7684971220362725  0.904655833831626  0.9242264353078298  1.0000
  O   O8        1.0  0.23149877638715574  0.09534378611611061  0.07577035418654529  1.0000
  O   O9        1.0  0.8420413123086022  0.2987650834565727  0.930710332696286  1.0000
  O   O10       1.0  0.15796273233311808  0.7012382394098466  0.0692923139091874  1.0000
  O   O11       1.0  0.5941656180837  0.2313944666384273  0.05545235040558087  1.0000
  O   O12       1.0  0.4058278255488972  0.7686051477899981  0.9445421424863626  1.0000
  O   O13       1.0  0.9013523088620515  0.6798328671232381  0.5416249183841658  1.0000
  O   O14       1.0  0.09863699949348607  0.32017163634311874  0.4583794102568888  1.0000
  O   O15       1.0  0.041724952485921576  0.6404603915002411  0.34440771463051323  1.0000
  O   O16       1.0  0.9582759038535825  0.3595392346342551  0.6555992184627755  1.0000
  O   O17       1.0  0.692028009176873  0.6061089856971265  0.9963090733727  1.0000
  O   O18       1.0  0.3079693054371829  0.393889405100019  0.003694216750403769  1.0000
