data_image0
_chemical_formula_structural       Na4H36C32S4O20
_chemical_formula_sum              "Na4 H36 C32 S4 O20"
_cell_length_a       6.074612248024193
_cell_length_b       9.800349845891125
_cell_length_c       16.60908221006849
_cell_angle_alpha    100.63861856497083
_cell_angle_beta     90.0001460930561
_cell_angle_gamma    89.99967944308932

_space_group_name_H-M_alt    "P 1"
_space_group_IT_number       1

loop_
  _space_group_symop_operation_xyz
  'x, y, z'

loop_
  _atom_site_type_symbol
  _atom_site_label
  _atom_site_symmetry_multiplicity
  _atom_site_fract_x
  _atom_site_fract_y
  _atom_site_fract_z
  _atom_site_occupancy
  Na  Na1       1.0  0.3282106433414782  0.6296251305894031  0.45881960797734667  1.0000
  Na  Na2       1.0  0.828205526710839  0.8703777490263889  0.5411788500438915  1.0000
  Na  Na3       1.0  0.671791273486406  0.3703747384958548  0.5411795959412017  1.0000
  Na  Na4       1.0  0.1717963900819512  0.12962940072063842  0.45881996981523787  1.0000
  H   H1        1.0  0.5244853871716728  0.7927698073327536  0.3475755333706444  1.0000
  H   H2        1.0  0.0244846036988804  0.707232009931303  0.6524189168065175  1.0000
  H   H3        1.0  0.4755115910649294  0.20722905014013543  0.6524211482229773  1.0000
  H   H4        1.0  0.9755222517048167  0.2927689172742661  0.3475786000279156  1.0000
  H   H5        1.0  0.8082321678732497  0.6822546673188723  0.2822275018148232  1.0000
  H   H6        1.0  0.308232481001923  0.8177430853869154  0.717770360561296  1.0000
  H   H7        1.0  0.19176151797434926  0.31774418351530903  0.7177697811220509  1.0000
  H   H8        1.0  0.6917760205864455  0.18226094976078852  0.28222810845868906  1.0000
  H   H9        1.0  0.3285977836519364  0.44958227344481827  0.30728321535768527  1.0000
  H   H10       1.0  0.8285983741303866  0.050419306369256796  0.6927143981145176  1.0000
  H   H11       1.0  0.6714024869957027  0.5504144744103241  0.6927162390636138  1.0000
  H   H12       1.0  0.1713986040821354  0.9495857736371746  0.3072835865051501  1.0000
  H   H13       1.0  0.22101288311529288  0.24797871427260534  0.20625225294080704  1.0000
  H   H14       1.0  0.7210139854029052  0.2520231840379452  0.7937477071482133  1.0000
  H   H15       1.0  0.7789857413609341  0.752014885776454  0.7937498573598345  1.0000
  H   H16       1.0  0.278986285218437  0.7479797929947266  0.20625244895498437  1.0000
  H   H17       1.0  0.807737678282315  0.29381399283825266  0.06616378729261639  1.0000
  H   H18       1.0  0.3077389442470775  0.20618449278578768  0.933837673354645  1.0000
  H   H19       1.0  0.1922642385850892  0.7061785822972482  0.9338370033736465  1.0000
  H   H20       1.0  0.6922679111589005  0.7938184775923319  0.06616308409449091  1.0000
  H   H21       1.0  0.917734264880771  0.4962940925721211  0.17093494396125655  1.0000
  H   H22       1.0  0.41773335385157406  0.0037030286264964998  0.8290640544389516  1.0000
  H   H23       1.0  0.08226600578880999  0.5036984892100093  0.8290652453604037  1.0000
  H   H24       1.0  0.582261978178522  0.9962999617020784  0.17093489897459335  1.0000
  H   H25       1.0  0.2452901156414811  0.9970550759253382  0.017304973685902777  1.0000
  H   H26       1.0  0.7452948937285055  0.5029448819654121  0.9826997029938053  1.0000
  H   H27       1.0  0.7546969854502094  0.002943695191497402  0.9826995253789544  1.0000
  H   H28       1.0  0.25470866931267006  0.4970549339652734  0.017304311678373093  1.0000
  H   H29       1.0  0.10990616899511002  0.1500849170037881  0.07182132938637409  1.0000
  H   H30       1.0  0.6099007544917114  0.34991417658979884  0.9281824285855149  1.0000
  H   H31       1.0  0.8901023326284658  0.8499149122069556  0.9281814825988659  1.0000
  H   H32       1.0  0.390099516175745  0.6500804616528697  0.07181979866255966  1.0000
  H   H33       1.0  0.24372779885746348  0.0329890430946591  0.12718003663339053  1.0000
  H   H34       1.0  0.7437258374461209  0.4670158703766278  0.8728226920785926  1.0000
  H   H35       1.0  0.7562642407924328  0.9670128891109686  0.872820603864717  1.0000
  H   H36       1.0  0.25627443318410303  0.5329881049883483  0.12718118903647727  1.0000
  C   C1        1.0  0.6911715976174476  0.6162810469162634  0.30815482865951777  1.0000
  C   C2        1.0  0.19116781956199697  0.8837201626308867  0.691846327341892  1.0000
  C   C3        1.0  0.3088319654236145  0.3837156942896058  0.6918452271068245  1.0000
  C   C4        1.0  0.8088390358285907  0.11628490407171907  0.30815285996876435  1.0000
  C   C5        1.0  0.6305936117126479  0.48901741110340397  0.2466435086437072  1.0000
  C   C6        1.0  0.13058549973627007  0.010985855297477103  0.7533529109403572  1.0000
  C   C7        1.0  0.36941324371959183  0.5109783051889139  0.7533552274882565  1.0000
  C   C8        1.0  0.8694081860806192  0.989019238002221  0.2466438709901125  1.0000
  C   C9        1.0  0.437119903923687  0.416079371206962  0.2554449039645305  1.0000
  C   C10       1.0  0.9371139751703053  0.08391768782122713  0.7445541050222173  1.0000
  C   C11       1.0  0.5628803667415169  0.5839142487714284  0.7445554023041222  1.0000
  C   C12       1.0  0.06288629548389219  0.9160769902853972  0.2554445141609704  1.0000
  C   C13       1.0  0.3735589652784697  0.30130233221884595  0.19710907559142746  1.0000
  C   C14       1.0  0.8735556889957649  0.19869700042217886  0.8028907339189144  1.0000
  C   C15       1.0  0.626451182560416  0.6986923126519714  0.8028925503151922  1.0000
  C   C16       1.0  0.1264429354453256  0.8013028553803778  0.19710967268703422  1.0000
  C   C17       1.0  0.5062570964307085  0.25819313655631504  0.12808451050895533  1.0000
  C   C18       1.0  0.0062493528045734995  0.2418000868887304  0.8719160837935218  1.0000
  C   C19       1.0  0.49374811283899334  0.7418004302622164  0.8719206065142227  1.0000
  C   C20       1.0  0.9937542102276852  0.7581977058013791  0.12808288623151035  1.0000
  C   C21       1.0  0.7047270245040947  0.32794977865229674  0.11980380597746884  1.0000
  C   C22       1.0  0.20471834056091606  0.17205008887352588  0.8801965126641702  1.0000
  C   C23       1.0  0.2952748923655619  0.6720438147474823  0.8801989056682229  1.0000
  C   C24       1.0  0.7952736990757572  0.8279529081043222  0.11980183940433156  1.0000
  C   C25       1.0  0.765031793398805  0.44194459138232395  0.17856450233268356  1.0000
  C   C26       1.0  0.2650352624121126  0.058056120895692204  0.8214359661960697  1.0000
  C   C27       1.0  0.234971769664206  0.5580479837505409  0.821436288334034  1.0000
  C   C28       1.0  0.734973239174117  0.9419499707125426  0.17856454075032246  1.0000
  C   C29       1.0  0.2505821421566026  0.0792428494085939  0.07169753550165578  1.0000
  C   C30       1.0  0.7505810111752638  0.4207609905921501  0.9283062826955228  1.0000
  C   C31       1.0  0.7494115437086748  0.920755948273644  0.9283045581884007  1.0000
  C   C32       1.0  0.24941596705276936  0.579245067814611  0.07169723096846069  1.0000
  S   S1        1.0  0.8438781896843112  0.5660794601978694  0.3954907578893269  1.0000
  S   S2        1.0  0.34387660614849114  0.9339233691593737  0.6045077086900646  1.0000
  S   S3        1.0  0.1561237271304279  0.4339235234761533  0.6045087968701706  1.0000
  S   S4        1.0  0.656123664453034  0.0660817174857655  0.3954896745863578  1.0000
  O   O1        1.0  0.6744027801972052  0.5117729258726058  0.4442998501966142  1.0000
  O   O2        1.0  0.1744052786283703  0.9882325101666325  0.5556999604033307  1.0000
  O   O3        1.0  0.32559749043507225  0.48822694321529536  0.5556993537214865  1.0000
  O   O4        1.0  0.8255933457776263  0.011774626297693701  0.444300062143192  1.0000
  O   O5        1.0  0.9531538786266155  0.6921914577414371  0.44023776126081043  1.0000
  O   O6        1.0  0.45314655368771645  0.8078068683436115  0.5597602972124703  1.0000
  O   O7        1.0  0.046844745810055606  0.30780841134910014  0.5597614426568426  1.0000
  O   O8        1.0  0.5468487783247795  0.19219822495344366  0.440236484718447  1.0000
  O   O9        1.0  0.009691974816625799  0.4608211901711314  0.3610539508603735  1.0000
  O   O10       1.0  0.5096972182208006  0.0391782713453921  0.6389455429711359  1.0000
  O   O11       1.0  0.9903099419849254  0.5391838831833837  0.6389446351047849  1.0000
  O   O12       1.0  0.4903063447829509  0.9608257571662407  0.3610535273916397  1.0000
  O   O13       1.0  0.455159457859338  0.1505127749503998  0.06588126927020707  1.0000
  O   O14       1.0  0.9551590289561245  0.34948626273654065  0.9341215915296099  1.0000
  O   O15       1.0  0.5448309356520724  0.8494797603396266  0.934123129457802  1.0000
  O   O16       1.0  0.0448346568915525  0.6505146379141775  0.06587833067782607  1.0000
  O   O17       1.0  0.5031972390916479  0.6899918997480298  0.3414212168055854  1.0000
  O   O18       1.0  0.0031873176232793  0.810009939303427  0.6585774311511157  1.0000
  O   O19       1.0  0.4967948005713226  0.31000486805228894  0.6585764335810252  1.0000
  O   O20       1.0  0.996811306806805  0.18999097462736358  0.3414212883693607  1.0000
