data_image0
_chemical_formula_structural       Cd2H56C54N8O12
_chemical_formula_sum              "Cd2 H56 C54 N8 O12"
_cell_length_a       8.814061332641606
_cell_length_b       10.418551024266279
_cell_length_c       14.720996126090698
_cell_angle_alpha    86.80556065354612
_cell_angle_beta     87.92310570846955
_cell_angle_gamma    77.41999669172387

_space_group_name_H-M_alt    "P 1"
_space_group_IT_number       1

loop_
  _space_group_symop_operation_xyz
  'x, y, z'

loop_
  _atom_site_type_symbol
  _atom_site_label
  _atom_site_symmetry_multiplicity
  _atom_site_fract_x
  _atom_site_fract_y
  _atom_site_fract_z
  _atom_site_occupancy
  Cd  Cd1       1.0  0.3483547640447001  0.39049702946883247  0.0321269201648633  1.0000
  Cd  Cd2       1.0  0.6516447593114381  0.6095041568328057  0.9678733677519202  1.0000
  H   H1        1.0  0.4812012207962796  0.12997556284052786  0.7454057359412543  1.0000
  H   H2        1.0  0.5188008632608075  0.8700246219452408  0.254596556024289  1.0000
  H   H3        1.0  0.294004378323443  0.4687634493385956  0.5071882867950919  1.0000
  H   H4        1.0  0.705998828098828  0.5312367378354138  0.49281329412909247  1.0000
  H   H5        1.0  0.07728684235033971  0.5641826833602578  0.9188277357489056  1.0000
  H   H6        1.0  0.9227107844158058  0.435821463053692  0.08117181359353509  1.0000
  H   H7        1.0  0.9580582664363038  0.5823618725669348  0.7678394915143725  1.0000
  H   H8        1.0  0.041942601731889795  0.41763834018716756  0.23215875753474788  1.0000
  H   H9        1.0  0.10233593575288327  0.44118972141448126  0.6424365936741125  1.0000
  H   H10       1.0  0.897667230587807  0.5588104787694802  0.35756294983959686  1.0000
  H   H11       1.0  0.4641612067749394  0.28992482010936266  0.8352202001058869  1.0000
  H   H12       1.0  0.5358351719324901  0.710075383091798  0.16478089310866295  1.0000
  H   H13       1.0  0.5602334700541078  0.12561305335216838  0.548652742555916  1.0000
  H   H14       1.0  0.4397725195159697  0.8743851563701875  0.4513495145907313  1.0000
  H   H15       1.0  0.47442086182828574  0.9988852094868643  0.5971443591076095  1.0000
  H   H16       1.0  0.5255800330609618  0.0011149945939337002  0.40285524821516105  1.0000
  H   H17       1.0  0.6970117112723744  0.9356309443307251  0.707656602568093  1.0000
  H   H18       1.0  0.3029852325735406  0.06436726796901839  0.2923479472252878  1.0000
  H   H19       1.0  0.7823887896070687  0.05927183828836038  0.6531452457161604  1.0000
  H   H20       1.0  0.21761203303077542  0.9407244076212747  0.3468579109846672  1.0000
  H   H21       1.0  0.707178920543193  0.8198656199504905  0.5637953935037032  1.0000
  H   H22       1.0  0.2928137562888082  0.18013160686053448  0.4362106726287962  1.0000
  H   H23       1.0  0.7774298604301466  0.9452856277312874  0.502751763420683  1.0000
  H   H24       1.0  0.22256583535704524  0.054708641355667  0.4972543302448073  1.0000
  H   H25       1.0  0.9534145368783699  0.7793536897802581  0.6597446193396762  1.0000
  H   H26       1.0  0.0465791799365149  0.22063469918073514  0.3402583570393744  1.0000
  H   H27       1.0  0.02038615253414388  0.8949771172307873  0.5856138558690487  1.0000
  H   H28       1.0  0.979608447608918  0.10501714079462225  0.4143943071114434  1.0000
  H   H29       1.0  0.9537796949623857  0.6303051826580982  0.5363687315994241  1.0000
  H   H30       1.0  0.04621706183611003  0.36969309035477227  0.4636263102784  1.0000
  H   H31       1.0  0.9843821516106602  0.7511144997290841  0.45257886623548405  1.0000
  H   H32       1.0  0.015613881175518407  0.24889160484148223  0.5474226915272664  1.0000
  H   H33       1.0  0.23959308120706185  0.7529550263429242  0.512719028327389  1.0000
  H   H34       1.0  0.7604013474682533  0.2470481543171559  0.4872786097655251  1.0000
  H   H35       1.0  0.2148514699587737  0.6371914431332754  0.6023441427797991  1.0000
  H   H36       1.0  0.7851450344421806  0.3628127008924338  0.39765611760400077  1.0000
  H   H37       1.0  0.49402253031395577  0.34769071532818424  0.44246533152879397  1.0000
  H   H38       1.0  0.5059829475597583  0.6523094679489888  0.5575361855863291  1.0000
  H   H39       1.0  0.6459947545448445  0.18412129739711955  0.3367664898831606  1.0000
  H   H40       1.0  0.3540095742426246  0.8158788921651237  0.6632343799996718  1.0000
  H   H41       1.0  0.600784467562754  0.21925836177781113  0.1685340301645013  1.0000
  H   H42       1.0  0.39921494346039327  0.7807388793626229  0.8314677697198576  1.0000
  H   H43       1.0  0.267956662159115  0.5604783252561062  0.20753049715089836  1.0000
  H   H44       1.0  0.732048094931912  0.43952480317499715  0.7924722868958297  1.0000
  H   H45       1.0  0.3452699523917105  0.918736227523709  0.0131978009249849  1.0000
  H   H46       1.0  0.6547334208161715  0.08125413480295407  0.9868014317344558  1.0000
  H   H47       1.0  0.993647725907728  0.14934040884223515  0.18228124271161045  1.0000
  H   H48       1.0  0.006350423452303688  0.8506697237257513  0.8177051565379967  1.0000
  H   H49       1.0  0.014083450292005858  0.7344926639542348  0.1623858920300947  1.0000
  H   H50       1.0  0.9859164125261305  0.26551239378551367  0.8376244292451387  1.0000
  H   H51       1.0  0.7433187815055434  0.9637745314821017  0.21509087147703088  1.0000
  H   H52       1.0  0.2566805216228758  0.0362364970134905  0.7849090481572033  1.0000
  H   H53       1.0  0.8473263736754294  0.034858024338909395  0.2928169441982575  1.0000
  H   H54       1.0  0.1526751741833721  0.9651530089331573  0.7071815533532586  1.0000
  H   H55       1.0  0.8687280046325087  0.8612351062536873  0.2940271386832691  1.0000
  H   H56       1.0  0.13127329405837432  0.13877691162745975  0.7059713284209008  1.0000
  C   C1        1.0  0.13645974916477147  0.5063785204007161  0.8634207475122507  1.0000
  C   C2        1.0  0.8635411323639487  0.4936216880167378  0.1365781806737019  1.0000
  C   C3        1.0  0.07059930344271963  0.5160207189202095  0.7778994527945073  1.0000
  C   C4        1.0  0.929400402278695  0.4839795044556111  0.22209746988550447  1.0000
  C   C5        1.0  0.15026903247142806  0.43946186312079744  0.709826614790998  1.0000
  C   C6        1.0  0.8497313507214631  0.5605403145148101  0.29017225250025547  1.0000
  C   C7        1.0  0.29459781187896544  0.35563648388444585  0.728495002603651  1.0000
  C   C8        1.0  0.7054040363707303  0.644364681173755  0.2715079380513642  1.0000
  C   C9        1.0  0.35195789811990613  0.3516820533385569  0.8159971105466609  1.0000
  C   C10       1.0  0.648042774322491  0.6483191266780108  0.18400382460241357  1.0000
  C   C11       1.0  0.37834379846275124  0.27489374152546014  0.6541160358443889  1.0000
  C   C12       1.0  0.6216570830659692  0.7251064668919867  0.3458828923415567  1.0000
  C   C13       1.0  0.549385063198777  0.0670147061333211  0.6119588739261557  1.0000
  C   C14       1.0  0.4506179207766436  0.932986456976458  0.38804403482433253  1.0000
  C   C15       1.0  0.7078661651668555  0.9897780286946085  0.6420081164631952  1.0000
  C   C16       1.0  0.2921346574709816  0.0102182172150265  0.3579950402376325  1.0000
  C   C17       1.0  0.7793410475315528  0.892802404250169  0.5701697551045228  1.0000
  C   C18       1.0  0.22065271158405866  0.1071948379590495  0.4298335625761495  1.0000
  C   C19       1.0  0.9462600087992358  0.8218564157188695  0.5892969441770572  1.0000
  C   C20       1.0  0.053736367689055  0.1781349212241068  0.4107058451463529  1.0000
  C   C21       1.0  0.010308178339293855  0.7142098923539847  0.5230588635980737  1.0000
  C   C22       1.0  0.9896874127827999  0.2857932776843696  0.4769401008639561  1.0000
  C   C23       1.0  0.1860914538587082  0.6685817374002808  0.5314860520885105  1.0000
  C   C24       1.0  0.8139052462680426  0.3314214393629625  0.4685115221953352  1.0000
  C   C25       1.0  0.2835758537812794  0.5829516058916652  0.3852981755025979  1.0000
  C   C26       1.0  0.7164304361796924  0.41703673561681837  0.6147085247475486  1.0000
  C   C27       1.0  0.37113494161602045  0.46952881755069587  0.3326157467678924  1.0000
  C   C28       1.0  0.6288654682979243  0.530473351411608  0.6673844787970038  1.0000
  C   C29       1.0  0.4763281551991271  0.3604274638872979  0.36938108856989516  1.0000
  C   C30       1.0  0.5236762003093959  0.6395727170016343  0.630621139586587  1.0000
  C   C31       1.0  0.560400151590244  0.26860003620586775  0.310647042301582  1.0000
  C   C32       1.0  0.4396035398073367  0.7313981860866362  0.6893539203804762  1.0000
  C   C33       1.0  0.536173582072152  0.28684784626517507  0.2175037437935998  1.0000
  C   C34       1.0  0.4638278645950465  0.7131503712508547  0.7824986409711768  1.0000
  C   C35       1.0  0.3517167020662983  0.4786469436664189  0.23845073733209424  1.0000
  C   C36       1.0  0.6482888025284765  0.5213532309374498  0.7615521380566717  1.0000
  C   C37       1.0  0.25657726254770113  0.6820068533545081  0.0463769871300812  1.0000
  C   C38       1.0  0.7434169226523296  0.3179844614653931  0.9536299408233403  1.0000
  C   C39       1.0  0.18354302455050236  0.8138859699773491  0.0824040364364365  1.0000
  C   C40       1.0  0.8164581863093048  0.18611322781110565  0.9175989970178121  1.0000
  C   C41       1.0  0.24335309443116432  0.9255387655187303  0.058398334659386805  1.0000
  C   C42       1.0  0.7566520251712634  0.07445357080256089  0.9415994150226366  1.0000
  C   C43       1.0  0.17238065511642026  0.04640610806644219  0.0940551963755638  1.0000
  C   C44       1.0  0.8276218503429503  0.9535872471173263  0.9059378327103997  1.0000
  C   C45       1.0  0.0453459850211999  0.05389978957593659  0.1550535280118623  1.0000
  C   C46       1.0  0.9546560376820069  0.9461043967475219  0.8449384232073739  1.0000
  C   C47       1.0  0.9876973027224379  0.942611852947394  0.18171007679816845  1.0000
  C   C48       1.0  0.012304756832726603  0.05739720676986338  0.8182891607848715  1.0000
  C   C49       1.0  0.05663099786804794  0.8232765606150136  0.14369698437996448  1.0000
  C   C50       1.0  0.943370780349376  0.17672951253020838  0.8563078095442548  1.0000
  C   C51       1.0  0.8547809544844116  0.9510016714871339  0.24961505985780968  1.0000
  C   C52       1.0  0.14522033084594452  0.04901035073066849  0.7503827281095352  1.0000
  C   C53       1.0  0.23234140032742803  0.168422982334441  0.07028338443672057  1.0000
  C   C54       1.0  0.7676636178395314  0.8315733685344852  0.9297019870885278  1.0000
  N   N1        1.0  0.27409813935587835  0.4256146340390998  0.8815353512349872  1.0000
  N   N2        1.0  0.7259022571975395  0.5743875392598595  0.11846419519309137  1.0000
  N   N3        1.0  0.4706326492389012  0.15821824228277845  0.6784167411473873  1.0000
  N   N4        1.0  0.5293676617025727  0.8417799771816662  0.3215856755219163  1.0000
  N   N5        1.0  0.25824809298500645  0.5603687227669666  0.4753719644821287  1.0000
  N   N6        1.0  0.7417532757381483  0.4396383870271662  0.5246246493528445  1.0000
  N   N7        1.0  0.43141809041391366  0.38968383690806957  0.18240604296976667  1.0000
  N   N8        1.0  0.5685819446385951  0.6103153758387593  0.8175949849785409  1.0000
  O   O1        1.0  0.18360062663487756  0.5892611648874818  0.06258769433452469  1.0000
  O   O2        1.0  0.8163798385519457  0.4107390699281692  0.9374131664066496  1.0000
  O   O3        1.0  0.38661929312362286  0.6668922577296711  0.0035880247182333985  1.0000
  O   O4        1.0  0.6133843317151816  0.33308915594240307  0.9964258076497357  1.0000
  O   O5        1.0  0.1640181323033049  0.27517895249651037  0.10678178970550789  1.0000
  O   O6        1.0  0.8359964266940313  0.7248203129806468  0.8932065990210274  1.0000
  O   O7        1.0  0.34976825235705195  0.16209091961986385  0.016092226479251796  1.0000
  O   O8        1.0  0.6502285297099918  0.8379015561032613  0.9838860515665715  1.0000
  O   O9        1.0  0.3581908377231359  0.31362673498624344  0.5723951797695079  1.0000
  O   O10       1.0  0.6418085599394843  0.6863705104908461  0.4276059409780331  1.0000
  O   O11       1.0  0.23944480077668123  0.6929844900525312  0.34570197355847637  1.0000
  O   O12       1.0  0.7605455588296622  0.30702560411454266  0.6542927986647625  1.0000
