data_image0
_chemical_formula_structural       Co4H40C32N16Cl8
_chemical_formula_sum              "Co4 H40 C32 N16 Cl8"
_cell_length_a       8.742978021569517
_cell_length_b       9.580335413263482
_cell_length_c       14.168581809004158
_cell_angle_alpha    90.00000878295836
_cell_angle_beta     90.00008256884965
_cell_angle_gamma    105.12671335505024

_space_group_name_H-M_alt    "P 1"
_space_group_IT_number       1

loop_
  _space_group_symop_operation_xyz
  'x, y, z'

loop_
  _atom_site_type_symbol
  _atom_site_label
  _atom_site_symmetry_multiplicity
  _atom_site_fract_x
  _atom_site_fract_y
  _atom_site_fract_z
  _atom_site_occupancy
  Co  Co1       1.0  0.7429132931025816  0.8832948117810274  0.7846717122039237  1.0000
  Co  Co2       1.0  0.7570870444990232  0.6167049003234267  0.2846710631525937  1.0000
  Co  Co3       1.0  0.2570888511331759  0.11670656246821659  0.2153293644045036  1.0000
  Co  Co4       1.0  0.24291189410867284  0.383293222859443  0.7153293076672895  1.0000
  H   H1        1.0  0.6102199095168713  0.5840132173980095  0.6545873409400897  1.0000
  H   H2        1.0  0.8897812401057764  0.915986388826319  0.1545868409970481  1.0000
  H   H3        1.0  0.3897816240449075  0.4159859943239185  0.3454130298810156  1.0000
  H   H4        1.0  0.11021945398196209  0.08401390052075192  0.845412118249854  1.0000
  H   H5        1.0  0.8095766148608233  0.6814701303369333  0.6241334344998677  1.0000
  H   H6        1.0  0.6904233120450982  0.8185294466107038  0.1241334518701436  1.0000
  H   H7        1.0  0.1904237738912755  0.31852907774692335  0.37586623053378787  1.0000
  H   H8        1.0  0.3095773820435427  0.1814708427366583  0.8758662131636967  1.0000
  H   H9        1.0  0.6716485621896593  0.5973177232533473  0.5339521479772742  1.0000
  H   H10       1.0  0.8283502945373087  0.9026828553962009  0.0339515916462716  1.0000
  H   H11       1.0  0.3283512924267455  0.40268364371974746  0.4660475170562535  1.0000
  H   H12       1.0  0.1716489494051174  0.097316349049585  0.9660473675999343  1.0000
  H   H13       1.0  0.5425699649338114  0.7565932333144191  0.4495463322343483  1.0000
  H   H14       1.0  0.9574281995019477  0.7434055290582648  0.9495443362400097  1.0000
  H   H15       1.0  0.45742698939557863  0.24340596385729898  0.5504561559455254  1.0000
  H   H16       1.0  0.0425721892501514  0.2565936790255918  0.05045532879364599  1.0000
  H   H17       1.0  0.590835407518675  0.08486154069591831  0.6675166180211178  1.0000
  H   H18       1.0  0.9091669698571464  0.4151397759458463  0.167515429575964  1.0000
  H   H19       1.0  0.40916757619113037  0.9151387559281899  0.3324858701615128  1.0000
  H   H20       1.0  0.09083257942362623  0.5848605097640417  0.832484941244303  1.0000
  H   H21       1.0  0.3260193969670055  0.854511201172734  0.8261845002095427  1.0000
  H   H22       1.0  0.17397875824834583  0.6454891332030143  0.3261851911675607  1.0000
  H   H23       1.0  0.6739801523119554  0.14548908453655682  0.1738144590368478  1.0000
  H   H24       1.0  0.8260196462227399  0.35451114886880225  0.6738144738652565  1.0000
  H   H25       1.0  0.48738454208647386  0.9859555254068509  0.8801709279720384  1.0000
  H   H26       1.0  0.012615201383695793  0.5140459393209582  0.3801707552835367  1.0000
  H   H27       1.0  0.5126153125290286  0.0140458415659452  0.11982803127454389  1.0000
  H   H28       1.0  0.9873843478961744  0.48595434638863116  0.6198289097497919  1.0000
  H   H29       1.0  0.3175026948974988  0.8967517437180421  0.9492589193465548  1.0000
  H   H30       1.0  0.1824954698360628  0.6032476130104883  0.4492596136728366  1.0000
  H   H31       1.0  0.6824968543814689  0.10324854199124901  0.0507400398998357  1.0000
  H   H32       1.0  0.8175029346350301  0.3967526690613212  0.5507400513599805  1.0000
  H   H33       1.0  0.3239772271724988  0.6727720465893513  0.031219252823063905  1.0000
  H   H34       1.0  0.17602246306637434  0.8272280467308094  0.5312198362773088  1.0000
  H   H35       1.0  0.6760243063865728  0.32722716513168854  0.9687790006372198  1.0000
  H   H36       1.0  0.8239747965950385  0.172772231702929  0.4687791229680514  1.0000
  H   H37       1.0  0.7016557072994729  0.5742819741029167  0.8664540340179983  1.0000
  H   H38       1.0  0.7983425499058397  0.9257177995791042  0.36645486469709  1.0000
  H   H39       1.0  0.298343002504545  0.4257193892312117  0.1335428078672507  1.0000
  H   H40       1.0  0.20165554922781578  0.0742814012289088  0.6335440945485971  1.0000
  C   C1        1.0  0.6851622117469631  0.6538643516875879  0.6019095581962617  1.0000
  C   C2        1.0  0.8148388031119183  0.8461352101870148  0.1019082782629823  1.0000
  C   C3        1.0  0.31483962715226005  0.3461359412981508  0.398091518411981  1.0000
  C   C4        1.0  0.18516273044896536  0.15386400153462182  0.8980913867711848  1.0000
  C   C5        1.0  0.5644965781273185  0.8238020800845407  0.5124806611082562  1.0000
  C   C6        1.0  0.935503063140814  0.6761974028618809  0.0124787663605304  1.0000
  C   C7        1.0  0.4355026658196266  0.1761971243627301  0.4875218270726407  1.0000
  C   C8        1.0  0.06449732561128485  0.32380180522197577  0.9875208986731181  1.0000
  C   C9        1.0  0.5345866314974257  0.9573792926212406  0.5314938488267558  1.0000
  C   C10       1.0  0.9654130584102419  0.5426202063320814  0.0314912616118121  1.0000
  C   C11       1.0  0.46541406259753165  0.04262099672820341  0.4685107567156734  1.0000
  C   C12       1.0  0.03458504072430914  0.4573789944762226  0.9685084034208202  1.0000
  C   C13       1.0  0.5906240880943017  0.991366255322525  0.6240557154769064  1.0000
  C   C14       1.0  0.9093772887565164  0.5086344064604447  0.12405448619311699  1.0000
  C   C15       1.0  0.4093780561432609  0.008635118927315898  0.3759467727054044  1.0000
  C   C16       1.0  0.09062195518771428  0.4913647979859306  0.8759458846269653  1.0000
  C   C17       1.0  0.3956724453653635  0.8846707268867605  0.8911141082763976  1.0000
  C   C18       1.0  0.10432587595586537  0.6153296621531652  0.39111473377676736  1.0000
  C   C19       1.0  0.6043271039135971  0.11532955882253047  0.1088848509699929  1.0000
  C   C20       1.0  0.895672223179588  0.3846695386554373  0.6088856370428034  1.0000
  C   C21       1.0  0.41792753679219163  0.666563295781401  0.982675141188281  1.0000
  C   C22       1.0  0.08207185823790303  0.833436092718273  0.4826764745470058  1.0000
  C   C23       1.0  0.5820728519581095  0.33343591230185865  0.017323112271491  1.0000
  C   C24       1.0  0.9179265462340851  0.16656418935383502  0.5173238962727496  1.0000
  C   C25       1.0  0.5062782217272143  0.5650015505971382  0.9726769978542363  1.0000
  C   C26       1.0  0.9937214520316572  0.9349983161517912  0.4726780045419545  1.0000
  C   C27       1.0  0.4937198774055387  0.4349976502105689  0.0273212556045124  1.0000
  C   C28       1.0  0.006277791911671197  0.0650008882942927  0.5273216604911823  1.0000
  C   C29       1.0  0.6109477381410784  0.6180772780669628  0.8977351785583708  1.0000
  C   C30       1.0  0.8890523545701612  0.8819246881151629  0.39773538031172956  1.0000
  C   C31       1.0  0.3890535666197366  0.3819251738071189  0.10226378068891509  1.0000
  C   C32       1.0  0.11094719470789728  0.11807559759382973  0.6022628731477155  1.0000
  N   N1        1.0  0.6519246681739759  0.8865003796785375  0.658054906126388  1.0000
  N   N2        1.0  0.8480767956560059  0.613500310728611  0.1580543382840034  1.0000
  N   N3        1.0  0.34807862086875463  0.11350099820788272  0.34194475890867443  1.0000
  N   N4        1.0  0.151922753622955  0.38649997498067984  0.8419446209623871  1.0000
  N   N5        1.0  0.6352997114129478  0.7854109351073646  0.589041635003298  1.0000
  N   N6        1.0  0.8647015758631866  0.714589697197262  0.0890403864736768  1.0000
  N   N7        1.0  0.36470243282371223  0.21459043914217804  0.4109601473920677  1.0000
  N   N8        1.0  0.1352988128889123  0.28540951088659483  0.9109592785599787  1.0000
  N   N9        1.0  0.5892679451801898  0.7432889033475049  0.8650099521138656  1.0000
  N   N10       1.0  0.910733208620634  0.7567130389210561  0.36501016065695063  1.0000
  N   N11       1.0  0.41073335957972296  0.2567135485262853  0.1349883013464819  1.0000
  N   N12       1.0  0.08926634065832671  0.2432872467882419  0.6349887985894398  1.0000
  N   N13       1.0  0.46970001800510625  0.7709350307654788  0.9171816705479756  1.0000
  N   N14       1.0  0.030299820147725098  0.7290664651216759  0.4171815354075292  1.0000
  N   N15       1.0  0.5303009814191739  0.22906633984509744  0.0828172886991183  1.0000
  N   N16       1.0  0.9696985843233678  0.2709338169501336  0.5828181296252879  1.0000
  Cl  Cl1       1.0  0.9677118756679023  0.814976235346137  0.7780776420926115  1.0000
  Cl  Cl2       1.0  0.5322898952104113  0.6850245561082744  0.2780775042895343  1.0000
  Cl  Cl3       1.0  0.0322888184198362  0.1850240540009338  0.2219213171542904  1.0000
  Cl  Cl4       1.0  0.4677104935416877  0.3149746519755824  0.7219221607441213  1.0000
  Cl  Cl5       1.0  0.7777239324518062  0.10255003832541118  0.8469799710435383  1.0000
  Cl  Cl6       1.0  0.7222782933640703  0.39744926687996707  0.34698002492218194  1.0000
  Cl  Cl7       1.0  0.22227676163954868  0.8974502510228461  0.1530218113511239  1.0000
  Cl  Cl8       1.0  0.27772324019951367  0.6025499448425579  0.6530217574728  1.0000
