data_image0
_chemical_formula_structural       Zn4H36C52N4O20
_chemical_formula_sum              "Zn4 H36 C52 N4 O20"
_cell_length_a       9.629316561
_cell_length_b       10.19355367802725
_cell_length_c       13.5533
_cell_angle_alpha    109.48806208753165
_cell_angle_beta     90.0
_cell_angle_gamma    90.0

_space_group_name_H-M_alt    "P 1"
_space_group_IT_number       1

loop_
  _space_group_symop_operation_xyz
  'x, y, z'

loop_
  _atom_site_type_symbol
  _atom_site_label
  _atom_site_symmetry_multiplicity
  _atom_site_fract_x
  _atom_site_fract_y
  _atom_site_fract_z
  _atom_site_occupancy
  Zn  Zn1       1.0  0.5977506257621955  0.9727079098568083  0.6129949491312203  1.0000
  Zn  Zn2       1.0  0.097748370202325  0.027290487783112397  0.8870036158597756  1.0000
  Zn  Zn3       1.0  0.40224973137634384  0.027290487783112397  0.38700509151514956  1.0000
  Zn  Zn4       1.0  0.9022530254315129  0.9727089504855114  0.11299447240902785  1.0000
  H   H1        1.0  0.1521115222166785  0.9466817859500196  0.5922807013138751  1.0000
  H   H2        1.0  0.6521117007859445  0.05332077420472099  0.9077152189606537  1.0000
  H   H3        1.0  0.8478919504077567  0.05332077420472099  0.40771890809909184  1.0000
  H   H4        1.0  0.3478876178572889  0.9466807453213164  0.09228265369144843  1.0000
  H   H5        1.0  0.8428282473203055  0.6569135199577971  0.4228911070658796  1.0000
  H   H6        1.0  0.3428301457416367  0.3430859183108339  0.0771084568582978  1.0000
  H   H7        1.0  0.1571721098182337  0.3430921620830603  0.5771107613189415  1.0000
  H   H8        1.0  0.6571691729015967  0.6569072761855637  0.9228947052267458  1.0000
  H   H9        1.0  0.2751389450348327  0.5333378206353103  0.4084126468481344  1.0000
  H   H10       1.0  0.7751422390900018  0.4666616176333136  0.0915861792483597  1.0000
  H   H11       1.0  0.724862450598998  0.4666626582620239  0.5915871781815412  1.0000
  H   H12       1.0  0.2248591565438289  0.5333367800066071  0.9084145992257078  1.0000
  H   H13       1.0  0.7944956375185868  0.45201997175692554  0.3658152235599061  1.0000
  H   H14       1.0  0.2944985744352238  0.5479794665116984  0.13418729167502616  1.0000
  H   H15       1.0  0.2055016041340423  0.5479805071404016  0.6341868149528338  1.0000
  H   H16       1.0  0.705502821198607  0.452017890499512  0.8658132256935431  1.0000
  H   H17       1.0  0.7413631024358622  0.2161625164450385  0.2460897849065731  1.0000
  H   H18       1.0  0.2413660393524992  0.7838379624522958  0.2539078266400381  1.0000
  H   H19       1.0  0.2586372547026698  0.7838379624522958  0.7539129914338503  1.0000
  H   H20       1.0  0.7586374332719361  0.2161614758163353  0.7460873103180177  1.0000
  H   H21       1.0  0.1532019422826849  0.1415869009449864  0.1548147813416634  1.0000
  H   H22       1.0  0.6532062748331526  0.8584125373236376  0.3451869960655785  1.0000
  H   H23       1.0  0.8467963378652499  0.8584166998384576  0.8451850891767947  1.0000
  H   H24       1.0  0.3467971977912825  0.1415869009449864  0.6548155191693539  1.0000
  H   H25       1.0  0.22474699905132672  0.3757720659282739  0.2672344776602529  1.0000
  H   H26       1.0  0.7247502931064959  0.6242252910829365  0.23276382622525918  1.0000
  H   H27       1.0  0.7752492041060037  0.62423153485517  0.7327646550305218  1.0000
  H   H28       1.0  0.2752500640320363  0.375767903413454  0.767237122376727  1.0000
  H   H29       1.0  0.5426947973820972  0.7842032231276761  0.6725226387678943  1.0000
  H   H30       1.0  0.042695657308137  0.21579621514094782  0.8274754495009092  1.0000
  H   H31       1.0  0.45730452126112914  0.21579621514094782  0.3274776629839735  1.0000
  H   H32       1.0  0.9573067768209996  0.7842053043850825  0.17252389880656688  1.0000
  H   H33       1.0  0.5235065197063662  0.9143619396366559  0.7773146542492099  1.0000
  H   H34       1.0  0.0235063411371002  0.0856364580032647  0.722683910741793  1.0000
  H   H35       1.0  0.4764917604415615  0.0856374986319679  0.2226849096749675  1.0000
  H   H36       1.0  0.9764960929920364  0.9143661021514761  0.2773156986711811  1.0000
  C   C1        1.0  0.3728914692183594  0.7783590523215764  0.5400357808513618  1.0000
  C   C2        1.0  0.8728906092923269  0.2216414265757578  0.9599603550398754  1.0000
  C   C3        1.0  0.6271109649107701  0.22164246720446104  0.4599628296284308  1.0000
  C   C4        1.0  0.12710870935090673  0.7783559304354597  0.040038686673319966  1.0000
  C   C5        1.0  0.87034837279559  0.9071566264846922  0.5658434305982638  1.0000
  C   C6        1.0  0.37034715573102533  0.0928438524126349  0.9341541809483475  1.0000
  C   C7        1.0  0.1296550998288453  0.0928469742987517  0.4341579155755682  1.0000
  C   C8        1.0  0.6296500859216039  0.9071576671134025  0.06584664301450961  1.0000
  C   C9        1.0  0.2275613213169123  0.7440786615283912  0.4997034262040785  1.0000
  C   C10       1.0  0.7275646153720814  0.2559228579976462  0.0002951842757141912  1.0000
  C   C11       1.0  0.7724390358216198  0.2559218173689359  0.5002956609979066  1.0000
  C   C12       1.0  0.2724367802617493  0.7440744990135714  0.9997038574374882  1.0000
  C   C13       1.0  0.12401814733526352  0.8438780762038433  0.5392698398672309  1.0000
  C   C14       1.0  0.6240193643998354  0.1561234433221941  0.9607258193018069  1.0000
  C   C15       1.0  0.8759832482985672  0.1561244839508973  0.46072976954573613  1.0000
  C   C16       1.0  0.37598099273870395  0.8438739136890233  0.039271746756014546  1.0000
  C   C17       1.0  0.9851394893818793  0.8093947628132271  0.513898411783451  1.0000
  C   C18       1.0  0.48513931081261324  0.1906067567128105  0.9860987230409605  1.0000
  C   C19       1.0  0.0148650217378616  0.1906098785989272  0.48610171984050504  1.0000
  C   C20       1.0  0.514861046325926  0.8093895596696967  0.013901533222117683  1.0000
  C   C21       1.0  0.9518712924158095  0.6784077058552285  0.4429854576757606  1.0000
  C   C22       1.0  0.4518721523418421  0.3215927730421058  0.05701289169853399  1.0000
  C   C23       1.0  0.0481290647227297  0.3215958949282154  0.5570173641534453  1.0000
  C   C24       1.0  0.5481282047966971  0.6784045839691117  0.9429883634977256  1.0000
  C   C25       1.0  0.0546508152127174  0.577600962593543  0.400867960649343  1.0000
  C   C26       1.0  0.5546509937819906  0.4224005569324945  0.09913286331350686  1.0000
  C   C27       1.0  0.9453516189164191  0.4224005569324945  0.5991343389688807  1.0000
  C   C28       1.0  0.4453483248612429  0.5775988813361295  0.9008696519214254  1.0000
  C   C29       1.0  0.1929482729361069  0.6110457285367801  0.43287454302181066  1.0000
  C   C30       1.0  0.692948451505373  0.3889537097318509  0.0671242830746834  1.0000
  C   C31       1.0  0.8070520842024251  0.3889526691031406  0.5671262354522497  1.0000
  C   C32       1.0  0.3070498286425618  0.6110426066506633  0.9328752353607114  1.0000
  C   C33       1.0  0.016388494344362  0.4383804513232477  0.3284948964225762  1.0000
  C   C34       1.0  0.516388672913628  0.5616179463166731  0.1715051442238007  1.0000
  C   C35       1.0  0.9836077088129684  0.5616210682027898  0.6715051897125832  1.0000
  C   C36       1.0  0.4836096072343068  0.438377329437131  0.828497064416851  1.0000
  C   C37       1.0  0.878519253823498  0.3901077669654569  0.3193997122865326  1.0000
  C   C38       1.0  0.378519075254232  0.6098927119318702  0.18059937491545236  1.0000
  C   C39       1.0  0.1214769493338324  0.609891671303167  0.6805998516376519  1.0000
  C   C40       1.0  0.6214802433890014  0.3901067263367537  0.8194009268364155  1.0000
  C   C41       1.0  0.8468887639470353  0.2570508995136365  0.2537261644584277  1.0000
  C   C42       1.0  0.34688962387306793  0.7429485387549875  0.2462733994657498  1.0000
  C   C43       1.0  0.1531084777055938  0.7429527012698074  0.7462737060600302  1.0000
  C   C44       1.0  0.6531096947701657  0.2570488182562229  0.7537263800751359  1.0000
  C   C45       1.0  0.07746863396528882  0.2144017726765313  0.20292113084625638  1.0000
  C   C46       1.0  0.5774698510298535  0.7855976655920927  0.2970776952502375  1.0000
  C   C47       1.0  0.9225275691920417  0.7856028687356158  0.797076049466945  1.0000
  C   C48       1.0  0.4225284291180742  0.2143996914191248  0.7029242977737126  1.0000
  C   C49       1.0  0.1160030406025001  0.3464742053736245  0.2664691635862226  1.0000
  C   C50       1.0  0.6160032191717663  0.6535231516375859  0.23352766464390837  1.0000
  C   C51       1.0  0.8839942010501289  0.6535283547811161  0.7335304458267445  1.0000
  C   C52       1.0  0.3839960994714673  0.3464721241162181  0.7664715926859884  1.0000
  N   N1        1.0  0.944748253146564  0.1695423504704578  0.197018335182463  1.0000
  N   N2        1.0  0.44474911307259657  0.8304581284268693  0.30297780070877417  1.0000
  N   N3        1.0  0.0552489885060723  0.830461250312986  0.802980059680621  1.0000
  N   N4        1.0  0.555250205570637  0.1695433910991611  0.6970200719433279  1.0000
  O   O1        1.0  0.4362396825765771  0.6933011838781766  0.5729263498030832  1.0000
  O   O2        1.0  0.9362398611458431  0.3066992950191505  0.9270727373989016  1.0000
  O   O3        1.0  0.5637617130572607  0.3066972137617441  0.42707369084329366  1.0000
  O   O4        1.0  0.0637584190020917  0.6933011838781766  0.07292561197539266  1.0000
  O   O5        1.0  0.41825709794525073  0.8988066217574655  0.5421233284330497  1.0000
  O   O6        1.0  0.9182551995239123  0.1011959383972751  0.9578755431522268  1.0000
  O   O7        1.0  0.5817463746791844  0.1011948977685719  0.45787380639136194  1.0000
  O   O8        1.0  0.08174411911931401  0.8988045405000519  0.042122806222067745  1.0000
  O   O9        1.0  0.8921214652754018  0.012275256201697  0.6455692834334811  1.0000
  O   O10       1.0  0.39212336369673306  0.9877210601808103  0.8544280215188492  1.0000
  O   O11       1.0  0.1078799303584361  0.9877262633243332  0.3544308027016854  1.0000
  O   O12       1.0  0.6078759549465006  0.0122783780878137  0.1455722802330186  1.0000
  O   O13       1.0  0.7489129632738029  0.8730135986805436  0.5249744632455985  1.0000
  O   O14       1.0  0.2489138231998353  0.1269858395880803  0.9750236250232049  1.0000
  O   O15       1.0  0.25109050935063243  0.1269879208454938  0.475025622889568  1.0000
  O   O16       1.0  0.7510854954433981  0.8730156799379502  0.024977198939644965  1.0000
  O   O17       1.0  0.5932134397923221  0.8664389065236833  0.7216735403836196  1.0000
  O   O18       1.0  0.09321222272775741  0.1335594911162374  0.7783242867796928  1.0000
  O   O19       1.0  0.4067858788509113  0.1335605317449406  0.2783267613682483  1.0000
  O   O20       1.0  0.9067891729060804  0.8664430690385032  0.22167532263327408  1.0000
