data_image0
_chemical_formula_structural       AlH24C45O6F3
_chemical_formula_sum              "Al1 H24 C45 O6 F3"
_cell_length_a       3.951009307798634
_cell_length_b       23.65247245341262
_cell_length_c       23.623054202159626
_cell_angle_alpha    59.93948000938084
_cell_angle_beta     88.10464800890874
_cell_angle_gamma    88.4977738005441

_space_group_name_H-M_alt    "P 1"
_space_group_IT_number       1

loop_
  _space_group_symop_operation_xyz
  'x, y, z'

loop_
  _atom_site_type_symbol
  _atom_site_label
  _atom_site_symmetry_multiplicity
  _atom_site_fract_x
  _atom_site_fract_y
  _atom_site_fract_z
  _atom_site_occupancy
  Al  Al1       1.0  0.026857788617590504  0.49964025008043217  0.4996275511305869  1.0000
  H   H1        1.0  0.7650757949599906  0.32612827550983775  0.6771483641375011  1.0000
  H   H2        1.0  0.750375709471683  0.2611689833417472  0.7971122849661184  1.0000
  H   H3        1.0  0.8309465789500265  0.1625662040640421  0.015823244129698797  1.0000
  H   H4        1.0  0.215333492354894  0.6838952226174725  0.3374664081047315  1.0000
  H   H5        1.0  0.21435359956305433  0.8034903128527587  0.27991197945084423  1.0000
  H   H6        1.0  0.316030606169619  0.8936649405264985  0.22642670739708856  1.0000
  H   H7        1.0  0.2979119531644869  0.011587444299927094  0.1648973176352584  1.0000
  H   H8        1.0  0.5162214339434215  0.10373268922815268  0.10826159562618187  1.0000
  H   H9        1.0  0.8192194449315836  0.6773785104163393  0.48825954041047487  1.0000
  H   H10       1.0  0.8150458799901942  0.7971314548200109  0.43279326498146303  1.0000
  H   H11       1.0  0.7284751212626545  0.015549035838567702  0.32874666833440347  1.0000
  H   H12       1.0  0.24536106024813625  0.3377147339421427  0.4800977270736978  1.0000
  H   H13       1.0  0.2558638936955333  0.2789187015918273  0.4196710596508665  1.0000
  H   H14       1.0  0.2756475786956115  0.23229543474003117  0.3762615603814651  1.0000
  H   H15       1.0  0.24901109571880656  0.1705554148077795  0.3204943723362348  1.0000
  H   H16       1.0  0.5158383603977514  0.10898742823523831  0.28773360051266644  1.0000
  H   H17       1.0  0.858662036997778  0.48861401317889613  0.32994706591743744  1.0000
  H   H18       1.0  0.856059622957041  0.4329385414829261  0.2658919933897153  1.0000
  H   H19       1.0  0.8146754544560083  0.3215478229318762  0.1574238137070054  1.0000
  H   H20       1.0  0.2622236178291786  0.4853612557470868  0.6845419383294241  1.0000
  H   H21       1.0  0.2865963612995728  0.42521232862011965  0.8042068745801173  1.0000
  H   H22       1.0  0.19765812582246406  0.3703125447297424  0.8950530308540647  1.0000
  H   H23       1.0  0.19601643044097025  0.3150666922434695  0.013502811219460446  1.0000
  H   H24       1.0  0.5151740090986365  0.28783460631156277  0.10290789288300319  1.0000
  C   C1        1.0  0.5163206990041473  0.44747855554398075  0.6003865793776625  1.0000
  C   C2        1.0  0.5442924842519261  0.451687178267818  0.4469196917463519  1.0000
  C   C3        1.0  0.5204805921864235  0.6003083453881217  0.4512045319328237  1.0000
  C   C4        1.0  0.6542662217739447  0.3468263634870326  0.7057222899774517  1.0000
  C   C5        1.0  0.6489687815823191  0.31057454271033436  0.7736520326254419  1.0000
  C   C6        1.0  0.6848996932752202  0.24055213799765335  0.9230933211704764  1.0000
  C   C7        1.0  0.6832202503271458  0.20767000437385258  0.9908519276836643  1.0000
  C   C8        1.0  0.3511516865300309  0.7093566451899276  0.3573205274104225  1.0000
  C   C9        1.0  0.35372396195083405  0.7771166800799777  0.3250567067108674  1.0000
  C   C10       1.0  0.4047086744993464  0.9198974892914005  0.24989331611961085  1.0000
  C   C11       1.0  0.39915735723413104  0.9876147824570222  0.2139974995636751  1.0000
  C   C12       1.0  0.5139772185077192  0.40980319152491507  0.6729858693526081  1.0000
  C   C13       1.0  0.5192913435719007  0.33731724713549477  0.8117125400306688  1.0000
  C   C14       1.0  0.5194600460465041  0.30091758836784516  0.8841691532553425  1.0000
  C   C15       1.0  0.5134999868465328  0.23398520597805114  0.025479143206887017  1.0000
  C   C16       1.0  0.51374941463245  0.1995071842722353  0.09764654418877679  1.0000
  C   C17       1.0  0.5152405611396277  0.131070445007289  0.1341342420786233  1.0000
  C   C18       1.0  0.6840152609122255  0.7057162098687825  0.4427785252211791  1.0000
  C   C19       1.0  0.680600996749405  0.7735434687344734  0.4111465739911964  1.0000
  C   C20       1.0  0.6242880283977995  0.9230305531415656  0.3399957795712324  1.0000
  C   C21       1.0  0.6276445063754396  0.990687261157724  0.30479483192333134  1.0000
  C   C22       1.0  0.3842593373108443  0.3574923334229537  0.4335672998730189  1.0000
  C   C23       1.0  0.3920450363574234  0.32468990349801885  0.3986441483948227  1.0000
  C   C24       1.0  0.3976729539813561  0.2526726983413282  0.32819215821826475  1.0000
  C   C25       1.0  0.3848528759220002  0.21659914062506402  0.29674868187343845  1.0000
  C   C26       1.0  0.5185708542147297  0.6727696209401585  0.4165468677507248  1.0000
  C   C27       1.0  0.5173357041869124  0.8113208642581854  0.3509602978749412  1.0000
  C   C28       1.0  0.5172094264739684  0.8836516105233869  0.31495191255537236  1.0000
  C   C29       1.0  0.5133821627153239  0.02515645887330459  0.24045879566781278  1.0000
  C   C30       1.0  0.514125919101005  0.0973580225318571  0.20273549985310518  1.0000
  C   C31       1.0  0.5154287506901766  0.1340532712653442  0.2344968914921566  1.0000
  C   C32       1.0  0.7231423092770016  0.44289342486365507  0.3486605296217248  1.0000
  C   C33       1.0  0.7218664741647771  0.41095882816500046  0.3127069809482207  1.0000
  C   C34       1.0  0.694232592483921  0.33608542873357555  0.23755337265193788  1.0000
  C   C35       1.0  0.68628672942328  0.30097873022884863  0.2050430028928076  1.0000
  C   C36       1.0  0.3742709543601351  0.43647785830271596  0.7098257515965043  1.0000
  C   C37       1.0  0.3855217916127316  0.40153982378416225  0.7776412007940008  1.0000
  C   C38       1.0  0.34619012294808027  0.32549463766533654  0.9208468098430698  1.0000
  C   C39       1.0  0.3443789685075346  0.2940952688614473  0.9886513350568717  1.0000
  C   C40       1.0  0.5520664100358772  0.4169607909592584  0.4091603968423313  1.0000
  C   C41       1.0  0.5578467812468944  0.3505142356726765  0.33686844962549134  1.0000
  C   C42       1.0  0.5532993056812288  0.3144108293161025  0.30059559422235077  1.0000
  C   C43       1.0  0.529941266781819  0.24001176945552063  0.2339329758640645  1.0000
  C   C44       1.0  0.5191016947663343  0.20252315010571914  0.19943862505171953  1.0000
  C   C45       1.0  0.5152545284810728  0.2345979774916955  0.1309405083745716  1.0000
  O   O1        1.0  0.29160070947707345  0.5723089808100353  0.4373416403857249  1.0000
  O   O2        1.0  0.2786231684566403  0.48921425042238537  0.5725907131027342  1.0000
  O   O3        1.0  0.30428203742827986  0.43790241418262343  0.48928611586549636  1.0000
  O   O4        1.0  0.7513821026972209  0.5703493644455834  0.49297481155306844  1.0000
  O   O5        1.0  0.7766949710724944  0.4930057925794813  0.4349140964383266  1.0000
  O   O6        1.0  0.7572556393263952  0.43548654796408925  0.5703493570951039  1.0000
  F   F1        1.0  0.8557274213934889  0.3948176955932395  0.20395313021215597  1.0000
  F   F2        1.0  0.8703605085871119  0.2107677715144689  0.8951776868661978  1.0000
  F   F3        1.0  0.7354399533163017  0.8956046036799562  0.40273375906571135  1.0000
