data_image0
_chemical_formula_structural       Zn4H80C112N16
_chemical_formula_sum              "Zn4 H80 C112 N16"
_cell_length_a       19.835354688345845
_cell_length_b       20.583939750494356
_cell_length_c       21.12914134334347
_cell_angle_alpha    109.2111216966902
_cell_angle_beta     102.70425803545595
_cell_angle_gamma    113.468734772018

_space_group_name_H-M_alt    "P 1"
_space_group_IT_number       1

loop_
  _space_group_symop_operation_xyz
  'x, y, z'

loop_
  _atom_site_type_symbol
  _atom_site_label
  _atom_site_symmetry_multiplicity
  _atom_site_fract_x
  _atom_site_fract_y
  _atom_site_fract_z
  _atom_site_occupancy
  Zn  Zn1       1.0  0.5947131163478473  0.606330686013898  0.49601270796871677  1.0000
  Zn  Zn2       1.0  0.39518685385983326  0.37813820987931723  0.48957483784249695  1.0000
  Zn  Zn3       1.0  0.49132002418553355  0.5829102970025559  0.6000685872671171  1.0000
  Zn  Zn4       1.0  0.5034937079804962  0.4012610150078899  0.3820144109411174  1.0000
  H   H1        1.0  0.7845306655962856  0.7559744201379102  0.6359460975597101  1.0000
  H   H2        1.0  0.21911173200233947  0.3458965866937049  0.5140577147038314  1.0000
  H   H3        1.0  0.503644258662618  0.7666535957760132  0.6491597874290633  1.0000
  H   H4        1.0  0.35625670159069495  0.2320658408295273  0.23393794070086218  1.0000
  H   H5        1.0  0.2292706261203605  0.2797274022273655  0.3689395405519634  1.0000
  H   H6        1.0  0.5561443881216305  0.7205664608833046  0.4558839214189021  1.0000
  H   H7        1.0  0.3409907514203566  0.5958552273202358  0.5647448923315395  1.0000
  H   H8        1.0  0.3979684138871987  0.2216681244932843  0.5079576238248578  1.0000
  H   H9        1.0  0.942229770770396  0.506091412985512  0.4924063368777141  1.0000
  H   H10       1.0  0.9695465913979646  0.37916158546811113  0.4886872037777224  1.0000
  H   H11       1.0  0.9123569295754022  0.3763075412540359  0.6006798694265498  1.0000
  H   H12       1.0  0.7192877531823001  0.15805508511407138  0.5920821275013141  1.0000
  H   H13       1.0  0.6744000868370534  0.1069242000696491  0.6930698529981996  1.0000
  H   H14       1.0  0.6342411894289272  0.9957502128432979  0.48253385366930257  1.0000
  H   H15       1.0  0.4939738090704679  0.0065117200428658996  0.4399989076528428  1.0000
  H   H16       1.0  0.4488970049161549  0.9549055106639412  0.5416983595267766  1.0000
  H   H17       1.0  0.5347977248434219  0.11770644568085227  0.6513481681407427  1.0000
  H   H18       1.0  0.5315714119669366  0.6017079551122392  0.185102702395504  1.0000
  H   H19       1.0  0.5330417667361189  0.5754987503295297  0.7630031552045224  1.0000
  H   H20       1.0  0.6681671857754594  0.6007428898365247  0.8391863239570299  1.0000
  H   H21       1.0  0.5406535415783223  0.3429568469281464  0.7312012942141024  1.0000
  H   H22       1.0  0.7139226898206843  0.4984660443227398  0.14096575139843276  1.0000
  H   H23       1.0  0.7197343006877401  0.60317113789727  0.957401867381698  1.0000
  H   H24       1.0  0.6787436180171084  0.5076153508915481  0.2475880237689694  1.0000
  H   H25       1.0  0.6394785591800484  0.5712640360109091  0.011447214814687419  1.0000
  H   H26       1.0  0.569094712533932  0.5957798669654579  0.07995830900875221  1.0000
  H   H27       1.0  0.5908839913324045  0.34534868567289584  0.8503607849427155  1.0000
  H   H28       1.0  0.7752600979807057  0.6581588095090182  0.8137805188217088  1.0000
  H   H29       1.0  0.6871040340595725  0.40422967773773166  0.41123795208622477  1.0000
  H   H30       1.0  0.2732244851590194  0.09733834520689298  0.1968060596027996  1.0000
  H   H31       1.0  0.10361753395033446  0.15367222878703043  0.2609010940139314  1.0000
  H   H32       1.0  0.997589045542014  0.9294154039146104  0.890935685096295  1.0000
  H   H33       1.0  0.1625004619879105  0.9607406620835731  0.10615675266868846  1.0000
  H   H34       1.0  0.8861594099948391  0.855414773309519  0.7687381708467809  1.0000
  H   H35       1.0  0.0618880400950629  0.9418052696674051  0.0032285189749428843  1.0000
  H   H36       1.0  0.8834349037540219  0.734404065360998  0.9375676816891455  1.0000
  H   H37       1.0  0.9939161162328317  0.015184655262416396  0.1737397907422178  1.0000
  H   H38       1.0  0.5318801196210572  0.3747926716549443  0.6086241306557554  1.0000
  H   H39       1.0  0.7151735400952431  0.5832580447881809  0.610386413306486  1.0000
  H   H40       1.0  0.6018285770347235  0.3244805523704102  0.45580429947246165  1.0000
  H   H41       1.0  0.6490686200040159  0.6351025542512261  0.7374500140739146  1.0000
  H   H42       1.0  0.41118074254226394  0.2843233592482619  0.06708026521771869  1.0000
  H   H43       1.0  0.35750510345621933  0.23762865494662577  0.1114170462015167  1.0000
  H   H44       1.0  0.31228707581468734  0.2663473283395063  0.05199807724843443  1.0000
  H   H45       1.0  0.3610649653464789  0.36620808084085604  0.1834742499117681  1.0000
  H   H46       1.0  0.4151089326295646  0.4117828005472716  0.13924342678047447  1.0000
  H   H47       1.0  0.525234507751108  0.3879106582317958  0.19098421624138237  1.0000
  H   H48       1.0  0.47256468916800287  0.3475448507425439  0.2384602944195251  1.0000
  H   H49       1.0  0.17321456026316176  0.6570276865392798  0.7747920911088926  1.0000
  H   H50       1.0  0.21775423842696984  0.7765683397149203  0.8897071272698794  1.0000
  H   H51       1.0  0.12129550168479125  0.8206489692686175  0.9133674037077313  1.0000
  H   H52       1.0  0.9802393262975282  0.744008975295685  0.8203347495940179  1.0000
  H   H53       1.0  0.9360091298095412  0.6249789751555852  0.7047342887655361  1.0000
  H   H54       1.0  0.9889121191250893  0.4884539954040718  0.7665309493024992  1.0000
  H   H55       1.0  0.05147258064909721  0.48431380268925045  0.8791973182802835  1.0000
  H   H56       1.0  0.17896736254959214  0.4816861361242744  0.9045093653838023  1.0000
  H   H57       1.0  0.2429688026915571  0.48284267667771263  0.8154097777362636  1.0000
  H   H58       1.0  0.18019833841895405  0.48672529582826474  0.7023428816178806  1.0000
  H   H59       1.0  0.19461535995999657  0.8063290765579437  0.6513047606504969  1.0000
  H   H60       1.0  0.15845970271161747  0.7575738587362936  0.5542366198940839  1.0000
  H   H61       1.0  0.11338055367838949  0.8076437963844042  0.5970212877756821  1.0000
  H   H62       1.0  0.025632087336915996  0.6594498247642092  0.5470957097612512  1.0000
  H   H63       1.0  0.0623051367255343  0.7080638818741535  0.6434582550371816  1.0000
  H   H64       1.0  0.17133498961297988  0.6736057891549834  0.6525414521290642  1.0000
  H   H65       1.0  0.1344384932165211  0.624098393187296  0.5559670701104054  1.0000
  H   H66       1.0  0.5439724785076692  0.36491334042648294  0.002010196521410966  1.0000
  H   H67       1.0  0.5446000508340845  0.2537082928312131  0.024100664869301652  1.0000
  H   H68       1.0  0.662671539881373  0.2352021571377136  0.03357723964131043  1.0000
  H   H69       1.0  0.778141180873348  0.326675645519657  0.018028396404623784  1.0000
  H   H70       1.0  0.7761731852116043  0.4365189833605925  0.9941220781482726  1.0000
  H   H71       1.0  0.9926469666974138  0.8281605558924665  0.14722302729160913  1.0000
  H   H72       1.0  0.8713653476485276  0.7426446733663569  0.15998273396068197  1.0000
  H   H73       1.0  0.7388991570803612  0.7240907966559221  0.09568980961487489  1.0000
  H   H74       1.0  0.7281990857458424  0.7914460169479725  0.017894157896179763  1.0000
  H   H75       1.0  0.8491105587845098  0.8747033910976468  0.003524293779086864  1.0000
  H   H76       1.0  0.7265609692200384  0.6965166255581394  0.4849675678513776  1.0000
  H   H77       1.0  0.8054247215216392  0.8448448461388904  0.5550280976365727  1.0000
  H   H78       1.0  0.7802878710043898  0.9264687708858971  0.4987110225063347  1.0000
  H   H79       1.0  0.6757945547682739  0.858584597298048  0.371917973208717  1.0000
  H   H80       1.0  0.593341902402102  0.7103399854607985  0.30389154688857906  1.0000
  C   C1        1.0  0.7395861002141757  0.7212248916785383  0.6511826791031013  1.0000
  C   C2        1.0  0.5137768925737518  0.2541481950853067  0.49232375209639667  1.0000
  C   C3        1.0  0.5527531197780461  0.47336729095168545  0.7122096928115553  1.0000
  C   C4        1.0  0.7313536687911579  0.494980473141716  0.5286575686924025  1.0000
  C   C5        1.0  0.6001439029520411  0.60575584875982  0.3533092947706464  1.0000
  C   C6        1.0  0.2599368681576094  0.4058769417501366  0.5242193209107455  1.0000
  C   C7        1.0  0.513431446556538  0.7420875186033625  0.6003874075493343  1.0000
  C   C8        1.0  0.33689988933342346  0.2556930415049763  0.2757471569485261  1.0000
  C   C9        1.0  0.2716969397827497  0.2802873879225132  0.3438546980075898  1.0000
  C   C10       1.0  0.5397051418529273  0.7180894672309037  0.5011297181192234  1.0000
  C   C11       1.0  0.5247923185987914  0.4740246170540344  0.2796473560285903  1.0000
  C   C12       1.0  0.4420503621107698  0.25339473597703227  0.49032919805794256  1.0000
  C   C13       1.0  0.32219817840008597  0.5337103854522736  0.5500090054959941  1.0000
  C   C14       1.0  0.5743909522465102  0.5470468539692772  0.28163666951180477  1.0000
  C   C15       1.0  0.25256567007740216  0.47438839551860906  0.5476066569264617  1.0000
  C   C16       1.0  0.5396802511293117  0.7782935662389718  0.5575581114163626  1.0000
  C   C17       1.0  0.2627050144633785  0.21994939465665905  0.2808882726172186  1.0000
  C   C18       1.0  0.04227936601518679  0.4914597473541278  0.6597661393096246  1.0000
  C   C19       1.0  0.0263583507093087  0.5624965237337988  0.6622797301059293  1.0000
  C   C20       1.0  0.8020726010598123  0.4982826618895331  0.5653264161826783  1.0000
  C   C21       1.0  0.1917233109973253  0.48242011495968035  0.566847410098049  1.0000
  C   C22       1.0  0.9540918471288862  0.4296884306391604  0.5994374700383602  1.0000
  C   C23       1.0  0.5262438601364464  0.5278470115114187  0.7152839848535278  1.0000
  C   C24       1.0  0.9379942644413786  0.4993467297680922  0.6006825546294152  1.0000
  C   C25       1.0  0.9848363445663182  0.43148147162720096  0.5378218264050076  1.0000
  C   C26       1.0  0.07380625541961176  0.4938134453249814  0.597083597671471  1.0000
  C   C27       1.0  0.9717510573631502  0.5016622207050787  0.5397819626959119  1.0000
  C   C28       1.0  0.05845561251027927  0.5646403244994928  0.6000338289386703  1.0000
  C   C29       1.0  0.8644320428393399  0.49889099585911345  0.5893958661626613  1.0000
  C   C30       1.0  0.14011461296797725  0.4893618340744368  0.5860526138377793  1.0000
  C   C31       1.0  0.6340421003383412  0.08466308339434649  0.6367239207450978  1.0000
  C   C32       1.0  0.6590668560442836  0.11241467127987897  0.5806226700474824  1.0000
  C   C33       1.0  0.5448783458525667  0.2127124531668514  0.51791889185656  1.0000
  C   C34       1.0  0.6821240894209596  0.4478574599294801  0.4529246351362346  1.0000
  C   C35       1.0  0.5612415526088981  0.8562954999112051  0.5686386278974708  1.0000
  C   C36       1.0  0.556369238017318  0.08962734953646388  0.6136188841179901  1.0000
  C   C37       1.0  0.5807864353506531  0.1180039229934948  0.5567908137207809  1.0000
  C   C38       1.0  0.5085131387360775  0.0008493757120220014  0.5523858907153922  1.0000
  C   C39       1.0  0.5860152363770154  0.9939362425568489  0.5753732879806536  1.0000
  C   C40       1.0  0.5336982895834056  0.0273193910117229  0.4961086024722405  1.0000
  C   C41       1.0  0.6116668846006306  0.0232848826118044  0.5195119912536796  1.0000
  C   C42       1.0  0.5687985078874715  0.1753872868733524  0.5411379269873251  1.0000
  C   C43       1.0  0.5801433400356045  0.9238562818713374  0.5775177660240657  1.0000
  C   C44       1.0  0.6009724693726214  0.5531369747395942  0.2229175338006114  1.0000
  C   C45       1.0  0.5249853887038897  0.42489281754117764  0.6365890613018408  1.0000
  C   C46       1.0  0.5723720993844238  0.5800023837182949  0.17617261498551065  1.0000
  C   C47       1.0  0.5931731079165132  0.5762507251458046  0.11688376375942507  1.0000
  C   C48       1.0  0.6412393243996775  0.5433770587105898  0.10054661531587779  1.0000
  C   C49       1.0  0.6737582890150763  0.5208946448274574  0.15006166930118067  1.0000
  C   C50       1.0  0.653896635552101  0.5259468254200427  0.20991943993351464  1.0000
  C   C51       1.0  0.6790076557983085  0.5458434164134616  0.9081611086259969  1.0000
  C   C52       1.0  0.6500379019138548  0.5443187286732679  0.8413934896140985  1.0000
  C   C53       1.0  0.580085426486306  0.40030972524878183  0.7807112347066578  1.0000
  C   C54       1.0  0.6086507862766908  0.40163320204994324  0.8479351398812297  1.0000
  C   C55       1.0  0.653206120538421  0.4741826393034073  0.9136270516652374  1.0000
  C   C56       1.0  0.695705812193218  0.5391219514088448  0.5547864134935311  1.0000
  C   C57       1.0  0.6499642295212027  0.5321817444495593  0.03172245440021734  1.0000
  C   C58       1.0  0.6590569055541449  0.4754563140793167  0.9849817006401054  1.0000
  C   C59       1.0  0.5956701701897059  0.47152718672933963  0.7769340865467171  1.0000
  C   C60       1.0  0.8197289193640032  0.7529641649901677  0.7835014661191549  1.0000
  C   C61       1.0  0.8225280217269385  0.7190330412212588  0.8315217996715704  1.0000
  C   C62       1.0  0.8839652980316757  0.7616374842172816  0.9011789371017827  1.0000
  C   C63       1.0  0.9464046488269061  0.8399656805514368  0.9252849249597546  1.0000
  C   C64       1.0  0.9479753745196217  0.8700159412748788  0.8741440733377813  1.0000
  C   C65       1.0  0.8855934935225986  0.8282190709250442  0.8052241523973152  1.0000
  C   C66       1.0  0.14955905856094634  0.003338356068532301  0.1398748565007963  1.0000
  C   C67       1.0  0.5464331063005402  0.3066626713170706  0.4638619079210429  1.0000
  C   C68       1.0  0.2116162568519613  0.080551828486449  0.19025743493582334  1.0000
  C   C69       1.0  0.11737909783789746  0.1114312221165576  0.22786577893892  1.0000
  C   C70       1.0  0.0553589396909047  0.0333329036205114  0.1787046086790767  1.0000
  C   C71       1.0  0.06955583069793637  0.9791698624778674  0.13078648313822325  1.0000
  C   C72       1.0  0.006998168223063084  0.8953799083429528  0.9999221496914429  1.0000
  C   C73       1.0  0.0015700878507230371  0.9060130203542868  0.0653055669379653  1.0000
  C   C74       1.0  0.19654252163599747  0.1375956501380102  0.23300638020219822  1.0000
  C   C75       1.0  0.6702414515293994  0.6579553036060162  0.7019727844835799  1.0000
  C   C76       1.0  0.748828197560094  0.7128624559713258  0.7155349597704657  1.0000
  C   C77       1.0  0.48372195193121564  0.3915040582007876  0.21727197575162194  1.0000
  C   C78       1.0  0.40423296016111726  0.3663453577069831  0.15844361651043928  1.0000
  C   C79       1.0  0.36929518760715746  0.28425838983994817  0.09370080265508557  1.0000
  C   C80       1.0  0.05153172564000383  0.6331015529732155  0.7309916100635833  1.0000
  C   C81       1.0  0.13105943621690835  0.676691401637882  0.7840756092063542  1.0000
  C   C82       1.0  0.15600546855520037  0.7438091487290919  0.8490082621536175  1.0000
  C   C83       1.0  0.1020029293233691  0.7684824265597996  0.8623598170509297  1.0000
  C   C84       1.0  0.02288438373695794  0.7255046836125769  0.8102382006082038  1.0000
  C   C85       1.0  0.9978958958179689  0.6584147962552719  0.7451555069714715  1.0000
  C   C86       1.0  0.07981681136014615  0.48716946875637007  0.7259531611234422  1.0000
  C   C87       1.0  0.04429194481439671  0.4864636060888967  0.7767133444667138  1.0000
  C   C88       1.0  0.07965019424992179  0.48442446225998026  0.8402938920560529  1.0000
  C   C89       1.0  0.1512734772686598  0.48312710993666025  0.8546613890721985  1.0000
  C   C90       1.0  0.1870698681157776  0.4838513381368018  0.8047319852596005  1.0000
  C   C91       1.0  0.15176498874234304  0.485947353939558  0.7409843508365981  1.0000
  C   C92       1.0  0.11604862517823011  0.6399319826011904  0.6017994465122952  1.0000
  C   C93       1.0  0.08082831924797758  0.6933716624115076  0.5977395858882844  1.0000
  C   C94       1.0  0.13994773664701637  0.7704356591769254  0.6001323096791821  1.0000
  C   C95       1.0  0.66026262438195  0.4087175924166218  0.9972671704407858  1.0000
  C   C96       1.0  0.595104127150435  0.35610112664226523  0.005321625030667566  1.0000
  C   C97       1.0  0.5957944212068894  0.2940076755470002  0.018073658660028937  1.0000
  C   C98       1.0  0.6618156080161697  0.2834413828012572  0.02316661746392163  1.0000
  C   C99       1.0  0.7265306865601886  0.33474838801475937  0.014331810375921206  1.0000
  C   C100      1.0  0.7254938814748115  0.3965047547056669  0.0008966553494786532  1.0000
  C   C101      1.0  0.9289374319657782  0.8564377687702063  0.07367496125937122  1.0000
  C   C102      1.0  0.9344592411117107  0.819642649418313  0.11851060737287616  1.0000
  C   C103      1.0  0.8663631652623777  0.7717295901031348  0.1257749769244043  1.0000
  C   C104      1.0  0.7918463067463433  0.7610742043737982  0.08944083340166006  1.0000
  C   C105      1.0  0.7859436796416046  0.798704162100975  0.045860303017853626  1.0000
  C   C106      1.0  0.8538313678232541  0.8458370580857845  0.03794319969008335  1.0000
  C   C107      1.0  0.652732703281643  0.6930668771223482  0.3903546442827873  1.0000
  C   C108      1.0  0.7136022241787072  0.7321775973958465  0.461103422567234  1.0000
  C   C109      1.0  0.7589648560445281  0.8155275351271384  0.499969847401509  1.0000
  C   C110      1.0  0.7452471672786699  0.8613147687850286  0.46823714243371467  1.0000
  C   C111      1.0  0.6865613293945217  0.8231615263332728  0.3971410147607273  1.0000
  C   C112      1.0  0.6405319589779168  0.7398087877195749  0.3585122512870527  1.0000
  N   N1        1.0  0.6616746633606991  0.674720821519301  0.603922417422801  1.0000
  N   N2        1.0  0.3289121762758852  0.4245241559725058  0.5151676319465679  1.0000
  N   N3        1.0  0.5001443327697216  0.6673251680327965  0.5715606507362807  1.0000
  N   N4        1.0  0.38557248629788177  0.32988979184762707  0.3319268445650252  1.0000
  N   N5        1.0  0.34638905557245875  0.34588436576476755  0.37526988832986763  1.0000
  N   N6        1.0  0.5166227509380049  0.6518117077244767  0.5103239297238105  1.0000
  N   N7        1.0  0.5204227858140911  0.4884872277641106  0.34542016797790603  1.0000
  N   N8        1.0  0.36782273272036287  0.5032674126305776  0.5308854570944419  1.0000
  N   N9        1.0  0.4338336189314872  0.3017334557831219  0.46322695736418507  1.0000
  N   N10       1.0  0.4859861623743809  0.512893038522833  0.6472978827994494  1.0000
  N   N11       1.0  0.6233102991420907  0.46377654543694286  0.43600440115874767  1.0000
  N   N12       1.0  0.485251222009495  0.44902585878015333  0.5979778830117795  1.0000
  N   N13       1.0  0.6316385381441163  0.5210911053297379  0.49895889580132985  1.0000
  N   N14       1.0  0.4985805709325958  0.33518780030006917  0.44701835196648426  1.0000
  N   N15       1.0  0.618548131209046  0.6354053573591827  0.6352669486698305  1.0000
  N   N16       1.0  0.567394836470001  0.5687106846891936  0.3905435976629407  1.0000
