data_image0
_chemical_formula_structural       Cu12H32C48I8N20
_chemical_formula_sum              "Cu12 H32 C48 I8 N20"
_cell_length_a       11.535587653368179
_cell_length_b       11.537567485844223
_cell_length_c       13.384
_cell_angle_alpha    68.62748502282807
_cell_angle_beta     68.62363667773344
_cell_angle_gamma    81.5739251973746

_space_group_name_H-M_alt    "P 1"
_space_group_IT_number       1

loop_
  _space_group_symop_operation_xyz
  'x, y, z'

loop_
  _atom_site_type_symbol
  _atom_site_label
  _atom_site_symmetry_multiplicity
  _atom_site_fract_x
  _atom_site_fract_y
  _atom_site_fract_z
  _atom_site_occupancy
  Cu  Cu1       1.0  0.6373979619836874  0.3626020507508656  0.7499994729868361  1.0000
  Cu  Cu2       1.0  0.362602291216227  0.6373982857536973  0.2499992957300421  1.0000
  Cu  Cu3       1.0  0.49554490343567886  0.9868352354515936  0.6155237313186955  1.0000
  Cu  Cu4       1.0  0.013159480571644603  0.504434767800916  0.8845736754561812  1.0000
  Cu  Cu5       1.0  0.5044562953988887  0.0131641701966387  0.38447577991630055  1.0000
  Cu  Cu6       1.0  0.9868389254898843  0.4955646378473162  0.11542746030040257  1.0000
  Cu  Cu7       1.0  0.24725620945095272  0.1917517493747027  0.663080610656543  1.0000
  Cu  Cu8       1.0  0.8082674532247794  0.7527388316966608  0.8368496127605168  1.0000
  Cu  Cu9       1.0  0.7527449746733125  0.8082485871298601  0.33691637128516305  1.0000
  Cu  Cu10      1.0  0.19173093812644026  0.2472615048079021  0.16314974086355957  1.0000
  Cu  Cu11      1.0  2.092677391002451e-07  0.4999992373959543  0.5000002859069282  1.0000
  Cu  Cu12      1.0  0.4999998704055244  0.9999994056482322  5.636529536928887e-07  1.0000
  H   H1        1.0  0.63174989035506  0.9419735455592927  0.7747619705310386  1.0000
  H   H2        1.0  0.05804425926009319  0.3682225612619234  0.725239297262462  1.0000
  H   H3        1.0  0.36824941721021537  0.05802772180160079  0.22523754998930198  1.0000
  H   H4        1.0  0.941956924864165  0.6317777752426394  0.2747584318400341  1.0000
  H   H5        1.0  0.2160704558835391  0.331291767287837  0.8198012958795146  1.0000
  H   H6        1.0  0.6687374126802368  0.7839206569863678  0.6801920301801587  1.0000
  H   H7        1.0  0.783926088329288  0.6687076383604023  0.18020117194505764  1.0000
  H   H8        1.0  0.3312647170786818  0.2160787486618645  0.31980793576203587  1.0000
  H   H9        1.0  0.033235727720210696  0.1500475241484338  0.5520621979761485  1.0000
  H   H10       1.0  0.8498970394140458  0.9668376489479584  0.9479423274155464  1.0000
  H   H11       1.0  0.9667645549003083  0.8499509506434748  0.44793938784495424  1.0000
  H   H12       1.0  0.1501060065589144  0.0331626875566045  0.052058552583695  1.0000
  H   H13       1.0  0.5266880954302522  0.5547996803068855  0.5622890378876234  1.0000
  H   H14       1.0  0.445178644179137  0.473361852701629  0.9376793664686716  1.0000
  H   H15       1.0  0.4733084340722796  0.4452006561976773  0.4377116478044414  1.0000
  H   H16       1.0  0.5548234855797743  0.5266375529466032  0.0623205994735159  1.0000
  H   H17       1.0  0.018327410205984097  0.9244855477170973  0.6664662098802409  1.0000
  H   H18       1.0  0.0755059924015811  0.981726695921175  0.8335161626620362  1.0000
  H   H19       1.0  0.9816719414901911  0.0755129270748043  0.3335364155552512  1.0000
  H   H20       1.0  0.9244970388610767  0.0182745714397186  0.1664836823654881  1.0000
  H   H21       1.0  0.3884751693111639  0.7443946355686251  0.5708460626284901  1.0000
  H   H22       1.0  0.2555456588211626  0.6115586449328418  0.9291550479360922  1.0000
  H   H23       1.0  0.6115232367503651  0.2556047700796142  0.42915432596731057  1.0000
  H   H24       1.0  0.744455540013405  0.3884407607153975  0.07084446329890431  1.0000
  H   H25       1.0  0.8360567551930771  0.2774501063951789  0.5506005566356932  1.0000
  H   H26       1.0  0.7224935637270421  0.163975927390716  0.9494304825369893  1.0000
  H   H27       1.0  0.16394537456583438  0.7225492992530533  0.44939866214571106  1.0000
  H   H28       1.0  0.2775094969562133  0.8360234782575162  0.0505691909516059  1.0000
  H   H29       1.0  0.168634908345652  0.7152150822413645  0.7023641383090434  1.0000
  H   H30       1.0  0.28473647708704414  0.8313561646267759  0.7976700226555806  1.0000
  H   H31       1.0  0.8313625520812309  0.2847852542631983  0.2976377492510026  1.0000
  H   H32       1.0  0.7152647364578257  0.1686423101651258  0.2023305235511329  1.0000
  C   C1        1.0  0.450207033533914  0.3153406132438761  0.6763262133215163  1.0000
  C   C2        1.0  0.6846713200884125  0.5498065669611947  0.823637074150433  1.0000
  C   C3        1.0  0.549790441603264  0.6846587924043561  0.3236752148886665  1.0000
  C   C4        1.0  0.31532986403584573  0.4501937695433682  0.17636140211285314  1.0000
  C   C5        1.0  0.7194152888062746  0.9901444296991571  0.7228117120339589  1.0000
  C   C6        1.0  0.0098584583134738  0.2805815070840154  0.7771985486559314  1.0000
  C   C7        1.0  0.2805849643936398  0.0098559068054058  0.2771878038437094  1.0000
  C   C8        1.0  0.9901417948864406  0.7194188294205475  0.22279947290015675  1.0000
  C   C9        1.0  0.5997750464017031  0.180904480579521  0.6624488923873455  1.0000
  C   C10       1.0  0.8190820676600834  0.40022819440228824  0.8375771785454871  1.0000
  C   C11       1.0  0.4002252067982184  0.8190958559250419  0.33754987632953254  1.0000
  C   C12       1.0  0.1809191164641817  0.5997721421022746  0.16242055055700183  1.0000
  C   C13       1.0  0.3784399338803155  0.4284619976998627  0.6854460761436413  1.0000
  C   C14       1.0  0.5715357417262084  0.62157838245205  0.8145269133485867  1.0000
  C   C15       1.0  0.6215575559671649  0.5715364770920388  0.3145548927166785  1.0000
  C   C16       1.0  0.4284654423980569  0.3784219540525129  0.1854745515578529  1.0000
  C   C17       1.0  0.2559560838995552  0.4211156795559035  0.7604474754721976  1.0000
  C   C18       1.0  0.5788984238754581  0.7440483570144494  0.739541916918661  1.0000
  C   C19       1.0  0.7440404308926742  0.578885587804983  0.23955591105208648  1.0000
  C   C20       1.0  0.4211027602488073  0.2559519794901135  0.2604588008269815  1.0000
  C   C21       1.0  0.9420090541617867  0.107495288806966  0.5995423795496747  1.0000
  C   C22       1.0  0.8924657585101342  0.0580398229338712  0.900469894168708  1.0000
  C   C23       1.0  0.05799121374843  0.8925041168412663  0.40045891846050097  1.0000
  C   C24       1.0  0.10753821838716959  0.9419605135706915  0.09953069337693415  1.0000
  C   C25       1.0  0.42966205125314627  0.5463456431320992  0.6179320035791348  1.0000
  C   C26       1.0  0.4536307782117532  0.5703663906872052  0.8820415134303801  1.0000
  C   C27       1.0  0.5703345076699904  0.4536528316598094  0.3820692577347841  1.0000
  C   C28       1.0  0.5463704353331167  0.4296320841047033  0.11795903277634072  1.0000
  C   C29       1.0  0.7190222928933708  0.1168401554880631  0.6602594009731604  1.0000
  C   C30       1.0  0.8831419340372406  0.2809873604432127  0.8397712862853836  1.0000
  C   C31       1.0  0.28097796030654365  0.8831601810164996  0.33973936774371777  1.0000
  C   C32       1.0  0.11685830445237139  0.7190139069176809  0.16022644745977738  1.0000
  C   C33       1.0  0.934387606683188  0.9810425165197784  0.6634378088065065  1.0000
  C   C34       1.0  0.018941167527536603  0.0656458499934587  0.836556507502358  1.0000
  C   C35       1.0  0.0656117303026846  0.0189568891284537  0.3365637816572686  1.0000
  C   C36       1.0  0.9810600018864263  0.9343554173674278  0.16344317527157426  1.0000
  C   C37       1.0  0.3534257391447113  0.6508566065501213  0.6225379027827811  1.0000
  C   C38       1.0  0.3491029025270009  0.6465914228532625  0.8774526896903864  1.0000
  C   C39       1.0  0.6465726522065083  0.3491437299544415  0.3774614508412951  1.0000
  C   C40       1.0  0.6508982815972643  0.3534089136513003  0.12254728089447302  1.0000
  C   C41       1.0  0.8331980529273366  0.1778847826500964  0.5989064330145126  1.0000
  C   C42       1.0  0.8220713014780117  0.1668317946063382  0.9011283213381062  1.0000
  C   C43       1.0  0.16680221498288006  0.8221146229981359  0.40109337067408996  1.0000
  C   C44       1.0  0.17793082828089976  0.8331676110419011  0.09887239176487841  1.0000
  C   C45       1.0  0.2306758987378643  0.6352470767786969  0.6960623294973869  1.0000
  C   C46       1.0  0.3647186764847418  0.7693276223255908  0.8039522543566232  1.0000
  C   C47       1.0  0.7693206160543652  0.3647541905821967  0.30393881554453367  1.0000
  C   C48       1.0  0.6352825223498185  0.2306717833226415  0.19604875119996013  1.0000
  I   I1        1.0  0.2915472131855239  0.0211862900350397  0.5583173297384361  1.0000
  I   I2        1.0  0.9788059027261724  0.7084635812912694  0.9416776971405694  1.0000
  I   I3        1.0  0.7084549165733875  0.9788131156131925  0.441680394721395  1.0000
  I   I4        1.0  0.021192488625054302  0.2915367552132935  0.05832315080508719  1.0000
  I   I5        1.0  0.20463818849872686  0.4064323518312706  0.4826008813896081  1.0000
  I   I6        1.0  0.5935358697060522  0.7953832218146459  0.01738862804734966  1.0000
  I   I7        1.0  0.7953648868948305  0.5935661229606382  0.5173983327491314  1.0000
  I   I8        1.0  0.4064643982041716  0.2046161838335934  0.982611175641253  1.0000
  N   N1        1.0  0.5687707097930996  0.2931182801152943  0.677904935978674  1.0000
  N   N2        1.0  0.7068688232524423  0.43124898154718494  0.8220874004468539  1.0000
  N   N3        1.0  0.43122675063378313  0.7068820563892686  0.3220954572597917  1.0000
  N   N4        1.0  0.2931332917961669  0.5687513549573779  0.1779100362020429  1.0000
  N   N5        1.0  0.1830775186574698  0.5223928480889626  0.7672327550488944  1.0000
  N   N6        1.0  0.4775951498144693  0.8169232372544855  0.7327839280147611  1.0000
  N   N7        1.0  0.8169208579834545  0.4776084192719239  0.23276780508583525  1.0000
  N   N8        1.0  0.5224060490200984  0.1830761683937467  0.26721633038103215  1.0000
  N   N9        1.0  0.4099336067971251  0.2219571063758892  0.6606835719841867  1.0000
  N   N10       1.0  0.7780725695314884  0.5900567946024609  0.8392859126401576  1.0000
  N   N11       1.0  0.5900657154784454  0.7780432301286665  0.3393162363470807  1.0000
  N   N12       1.0  0.2219276836684259  0.409943541902102  0.16071285607672078  1.0000
  N   N13       1.0  0.8244046130566288  0.9227150589804296  0.7271335911181322  1.0000
  N   N14       1.0  0.07728435132002431  0.17560883892709  0.7728560919933469  1.0000
  N   N15       1.0  0.1755947092189416  0.0772852775241333  0.2728677115347082  1.0000
  N   N16       1.0  0.9227168033836365  0.8243933592901271  0.22714180864807768  1.0000
  N   N17       1.0  0.5058302800076717  0.136227100240248  0.6511500136645624  1.0000
  N   N18       1.0  0.863784678782487  0.49415159794076396  0.8488658762139278  1.0000
  N   N19       1.0  0.4941690422678988  0.8637732362643149  0.3488490475059152  1.0000
  N   N20       1.0  0.1362165053417783  0.5058487385637989  0.15113260004935816  1.0000
