data_image0
_chemical_formula_structural       Li4Y4H40C64O36
_chemical_formula_sum              "Li4 Y4 H40 C64 O36"
_cell_length_a       10.530920526526131
_cell_length_b       12.25693051527725
_cell_length_c       14.337770588270496
_cell_angle_alpha    89.99891483206446
_cell_angle_beta     89.99800251573869
_cell_angle_gamma    109.43862350454772

_space_group_name_H-M_alt    "P 1"
_space_group_IT_number       1

loop_
  _space_group_symop_operation_xyz
  'x, y, z'

loop_
  _atom_site_type_symbol
  _atom_site_label
  _atom_site_symmetry_multiplicity
  _atom_site_fract_x
  _atom_site_fract_y
  _atom_site_fract_z
  _atom_site_occupancy
  Li  Li1       1.0  0.8866805850008672  0.8198709229591897  0.10903008915097702  1.0000
  Li  Li2       1.0  0.613298646589122  0.6801258615929981  0.6090237671127028  1.0000
  Li  Li3       1.0  0.11329432918051908  0.18011699283270133  0.8909822598991539  1.0000
  Li  Li4       1.0  0.386692602083798  0.31986257252836486  0.3909564986393548  1.0000
  Y   Y1        1.0  0.7481963539757287  0.9987968812237397  0.9865559307000353  1.0000
  Y   Y2        1.0  0.7518176720167631  0.501215371884065  0.4865455760064279  1.0000
  Y   Y3        1.0  0.25181286769799976  0.0012049486121198999  0.0134382838920857  1.0000
  Y   Y4        1.0  0.2481911356227826  0.49879072033404986  0.5134458487228315  1.0000
  H   H1        1.0  0.2877487763853708  0.24382209857368045  0.6764413503494565  1.0000
  H   H2        1.0  0.21229010623968492  0.2561554994350104  0.1764439529825026  1.0000
  H   H3        1.0  0.7122560161799711  0.7561479528801912  0.3235361255470082  1.0000
  H   H4        1.0  0.7877200762253551  0.7438463608521247  0.8235502615974398  1.0000
  H   H5        1.0  0.29975337054258944  0.0823166382913882  0.7788035913577077  1.0000
  H   H6        1.0  0.20029086445362046  0.41768022912350483  0.2788018237690082  1.0000
  H   H7        1.0  0.7002780621676123  0.9176807650818475  0.2211843458673926  1.0000
  H   H8        1.0  0.7997011952701669  0.5823296075335308  0.7212000630158855  1.0000
  H   H9        1.0  0.7150208606798074  0.41120443142966673  0.7056407849677344  1.0000
  H   H10       1.0  0.7849999629912858  0.08884161002188762  0.2056065878705979  1.0000
  H   H11       1.0  0.2849704661844044  0.5888387300640617  0.2943841176911022  1.0000
  H   H12       1.0  0.21501502370142575  0.9111604026932125  0.7943792571464527  1.0000
  H   H13       1.0  0.727260218145581  0.2485409508072323  0.8066255517528519  1.0000
  H   H14       1.0  0.7727604879669413  0.2515002979639219  0.30657999747032255  1.0000
  H   H15       1.0  0.2727464811989151  0.7515026977924041  0.1934049303792378  1.0000
  H   H16       1.0  0.22723179783600486  0.7484992852668453  0.693396780887447  1.0000
  H   H17       1.0  0.14921014502458257  0.3877043822066283  0.9578608493099878  1.0000
  H   H18       1.0  0.3508126765410182  0.11230877317355951  0.45787486033267305  1.0000
  H   H19       1.0  0.8508336436231757  0.6122848607876391  0.04218288450694979  1.0000
  H   H20       1.0  0.6491663448734499  0.8876963739825571  0.5421688741616606  1.0000
  H   H21       1.0  0.758929747704471  0.3974124287152208  0.0376369147560212  1.0000
  H   H22       1.0  0.7410720749119689  0.10257114793466118  0.5376202871382105  1.0000
  H   H23       1.0  0.2411080303876999  0.6025732030401867  0.962426348002424  1.0000
  H   H24       1.0  0.25888064662861143  0.897434875433575  0.4624450688892807  1.0000
  H   H25       1.0  0.6307410726577487  0.6145228060558663  0.1324220831377119  1.0000
  H   H26       1.0  0.8692532943393729  0.8854444734515852  0.6324361208972747  1.0000
  H   H27       1.0  0.36924614417196727  0.3854595147587504  0.867552603045141  1.0000
  H   H28       1.0  0.1307575471768629  0.11455655248398242  0.3675657657246703  1.0000
  H   H29       1.0  0.47973008228739633  0.5983721990161683  0.8515247268099061  1.0000
  H   H30       1.0  0.02024370164782846  0.90165340978033  0.35151861850544464  1.0000
  H   H31       1.0  0.5202637475163598  0.40161546197079895  0.1484478668727363  1.0000
  H   H32       1.0  0.9797284272208913  0.09835921590266143  0.6484651345836312  1.0000
  H   H33       1.0  0.007268294950186753  0.7323586774456673  0.2087259631088116  1.0000
  H   H34       1.0  0.4927281706159619  0.7676595316439718  0.7087290489853686  1.0000
  H   H35       1.0  0.9927252924798395  0.2676691647253974  0.7912654616359944  1.0000
  H   H36       1.0  0.5072626441134958  0.23231948278772308  0.2912484270131798  1.0000
  H   H37       1.0  0.9111494661811648  0.7245367189444919  0.29296011704870045  1.0000
  H   H38       1.0  0.5888451861768972  0.7754627948772567  0.792957066783373  1.0000
  H   H39       1.0  0.08885470597679299  0.27546153026109715  0.7070459544292049  1.0000
  H   H40       1.0  0.4111360035767433  0.22454584231330435  0.20703784556103955  1.0000
  C   C1        1.0  0.49960289109753836  0.3375563268594419  0.6874724632717815  1.0000
  C   C2        1.0  0.0004050060370702041  0.16245662858516144  0.1874567135914447  1.0000
  C   C3        1.0  0.5003868696651281  0.6624414658774213  0.312518961760169  1.0000
  C   C4        1.0  0.9995856029291585  0.837546321602133  0.8125333164718427  1.0000
  C   C5        1.0  0.5226869507680334  0.0676518956309948  0.8657998213524963  1.0000
  C   C6        1.0  0.9773460821493315  0.43235152425378953  0.3657811748892357  1.0000
  C   C7        1.0  0.47732780982293116  0.9323603704960773  0.13421182955018912  1.0000
  C   C8        1.0  0.022666134847547387  0.5676452701655492  0.6342032752868079  1.0000
  C   C9        1.0  0.3829238678276781  0.2436117498515316  0.7056197416053892  1.0000
  C   C10       1.0  0.11709579442903362  0.25638034929715303  0.20560657066260293  1.0000
  C   C11       1.0  0.6170685102019107  0.7563690240221278  0.2943723809882783  1.0000
  C   C12       1.0  0.8828991281434638  0.7436158968849041  0.7943834594005708  1.0000
  C   C13       1.0  0.9473956618964436  0.37807169713653366  0.9969679751685874  1.0000
  C   C14       1.0  0.5526005759806054  0.12191604017971261  0.4969724992294928  1.0000
  C   C15       1.0  0.05261964152066404  0.6219012517940925  0.0030569277524179  1.0000
  C   C16       1.0  0.4473691954869422  0.8780871037240487  0.5030663531861563  1.0000
  C   C17       1.0  0.3902495900907397  0.1539685989141617  0.7616590637692084  1.0000
  C   C18       1.0  0.10977774622160297  0.34603182149242434  0.261641157637456  1.0000
  C   C19       1.0  0.6097626829063286  0.8460256318196785  0.2383351508456144  1.0000
  C   C20       1.0  0.8902161030396128  0.6539695212804304  0.7383453851058945  1.0000
  C   C21       1.0  0.5628503014450601  0.6196645217967929  0.9909315303877122  1.0000
  C   C22       1.0  0.9371435256527717  0.8803204125800973  0.49093633270471315  1.0000
  C   C23       1.0  0.4371467288351099  0.38029416763189516  0.0090375761937054  1.0000
  C   C24       1.0  0.0628524339142018  0.11968698262556643  0.5090543947151929  1.0000
  C   C25       1.0  0.624533835529661  0.3392953927817929  0.7221345857092629  1.0000
  C   C26       1.0  0.875472448630191  0.1607358638463197  0.2221011796764145  1.0000
  C   C27       1.0  0.3754567361709178  0.6607238024192411  0.2778819476480336  1.0000
  C   C28       1.0  0.12451454266255978  0.8392567107377931  0.7778818759294951  1.0000
  C   C29       1.0  0.488601125850245  0.43627430863337924  0.6326585489778083  1.0000
  C   C30       1.0  0.011420512924324588  0.06372924630012727  0.1326517724180576  1.0000
  C   C31       1.0  0.511411448773984  0.5637207868317802  0.3673314808753645  1.0000
  C   C32       1.0  0.9886017458387925  0.93627727226437  0.8673382572237787  1.0000
  C   C33       1.0  0.6319659420687032  0.24883730834699241  0.777355096768666  1.0000
  C   C34       1.0  0.8680456572808313  0.25119538596917573  0.2773162478176161  1.0000
  C   C35       1.0  0.36802575925963044  0.7511742267779625  0.2226649239281997  1.0000
  C   C36       1.0  0.131941937266248  0.74879891807759  0.7226584382649861  1.0000
  C   C37       1.0  0.5145753475507392  0.1572994310535734  0.7985125956429613  1.0000
  C   C38       1.0  0.9854406818423624  0.3427163324245939  0.2984889004540676  1.0000
  C   C39       1.0  0.485421628672185  0.8427054308320481  0.2014920809545657  1.0000
  C   C40       1.0  0.014547760592002084  0.6572831288723792  0.7014941550789119  1.0000
  C   C41       1.0  0.8892848418612543  0.24836410313891116  0.9939399713076329  1.0000
  C   C42       1.0  0.6106966735033765  0.25164637298457393  0.4939430759981462  1.0000
  C   C43       1.0  0.11070035993926546  0.7516369653579886  0.0060570334228202995  1.0000
  C   C44       1.0  0.3892649416218816  0.7483633533910706  0.5060825247547456  1.0000
  C   C45       1.0  0.08333328970137188  0.43675992563621696  0.9758459410687905  1.0000
  C   C46       1.0  0.41665754528281707  0.06324039918680309  0.4758577040447491  1.0000
  C   C47       1.0  0.9166894941700648  0.5632372025886667  0.0241950031120766  1.0000
  C   C48       1.0  0.5832993217053255  0.936766611132583  0.5241832408758071  1.0000
  C   C49       1.0  0.8645418626639197  0.44282702096933957  0.021367021657191298  1.0000
  C   C50       1.0  0.635463803216112  0.0571761230715637  0.5213621103959838  1.0000
  C   C51       1.0  0.13549989181345978  0.5571672881215548  0.9786753172276121  1.0000
  C   C52       1.0  0.3645023698998743  0.9428303269290839  0.4786879013740233  1.0000
  C   C53       1.0  0.6293946682870911  0.7474659867576606  0.9827938315634626  1.0000
  C   C54       1.0  0.8706200514777152  0.7525259124524695  0.48279813960081  1.0000
  C   C55       1.0  0.370638646367901  0.2525041134886905  0.0171885261879723  1.0000
  C   C56       1.0  0.1293875501275892  0.2474767211406714  0.5171953775465141  1.0000
  C   C57       1.0  0.5740297139577422  0.5637811733509466  0.0744602056406336  1.0000
  C   C58       1.0  0.9259844797647003  0.9362155004122241  0.5744720253044093  1.0000
  C   C59       1.0  0.42598135390873887  0.43620959932997744  0.9255082030521394  1.0000
  C   C60       1.0  0.07401965639271418  0.06379899460798548  0.4255214917913577  1.0000
  C   C61       1.0  0.4881720028538153  0.555138349829562  0.9164988059125536  1.0000
  C   C62       1.0  0.011830106096304817  0.9448770744619991  0.41649919205994484  1.0000
  C   C63       1.0  0.5118452637717893  0.4448620252915561  0.0834703000851817  1.0000
  C   C64       1.0  0.9881653269165085  0.055139710167978306  0.5834852581650978  1.0000
  O   O1        1.0  0.6351645505056283  0.051321224332177486  0.8735089586872533  1.0000
  O   O2        1.0  0.8648697351219639  0.44868963043244053  0.3735060966803729  1.0000
  O   O3        1.0  0.3648464995074717  0.948699475119767  0.126501297277251  1.0000
  O   O4        1.0  0.13514868000148533  0.5513167660266447  0.6264985796387138  1.0000
  O   O5        1.0  0.41801025662621083  0.0145508763767666  0.9126979568058076  1.0000
  O   O6        1.0  0.0820143582198156  0.48542818189847753  0.41269037359601424  1.0000
  O   O7        1.0  0.5819909773609382  0.9854498452892242  0.08729207314331691  1.0000
  O   O8        1.0  0.9180149644331264  0.5145631691992634  0.5872857069090074  1.0000
  O   O9        1.0  0.7189678131311581  0.7998577267969438  0.043223634229455896  1.0000
  O   O10       1.0  0.7810346518859606  0.7001389372197481  0.5432260794607444  1.0000
  O   O11       1.0  0.2810297825954962  0.20011893676490192  0.956780345126738  1.0000
  O   O12       1.0  0.21896496180685426  0.2998625880605061  0.4567702276286099  1.0000
  O   O13       1.0  0.5972697294765368  0.8051561348948298  0.9185522626830931  1.0000
  O   O14       1.0  0.9027649023917449  0.6948508693669382  0.4185552977089912  1.0000
  O   O15       1.0  0.4028245889288087  0.19485266770086437  0.0814286990852295  1.0000
  O   O16       1.0  0.09725436131931531  0.3051606847857116  0.5814361268468816  1.0000
  O   O17       1.0  0.9551250132293205  0.1884926222049472  0.9552041808876767  1.0000
  O   O18       1.0  0.544815302861508  0.3114812888065046  0.4551821606384365  1.0000
  O   O19       1.0  0.04479332759781579  0.8114883704347805  0.0447865477065506  1.0000
  O   O20       1.0  0.4551423180928466  0.6885060795060838  0.5447988029981801  1.0000
  O   O21       1.0  0.3733134869860563  0.444777430208056  0.6210207252092914  1.0000
  O   O22       1.0  0.1267076996035428  0.05522314332822019  0.1210181958231829  1.0000
  O   O23       1.0  0.6267031764304035  0.5552212154790154  0.3789553553947513  1.0000
  O   O24       1.0  0.8733179316804964  0.9447903227229731  0.8789781108478962  1.0000
  O   O25       1.0  0.7740911186582194  0.19737108462153694  0.0288628987857393  1.0000
  O   O26       1.0  0.725889043827074  0.30264720531729955  0.5288832124796059  1.0000
  O   O27       1.0  0.22590838260498455  0.8026355677579886  0.9711271311376068  1.0000
  O   O28       1.0  0.27408470350609093  0.6973646155930099  0.4711507576079654  1.0000
  O   O29       1.0  0.5972608476120982  0.5111025491276139  0.6012465593988595  1.0000
  O   O30       1.0  0.9027475990060339  0.9889005949431607  0.101249787095675  1.0000
  O   O31       1.0  0.40275070954289305  0.4888950791427293  0.3987546297827862  1.0000
  O   O32       1.0  0.09727466016372689  0.011105923878766098  0.8987276882931069  1.0000
  O   O33       1.0  0.9252365578561025  0.7470834404263587  0.22629737613196002  1.0000
  O   O34       1.0  0.5747396356692889  0.7529052590331702  0.7262929432285503  1.0000
  O   O35       1.0  0.0747300107854443  0.2529050660068251  0.7737121831830719  1.0000
  O   O36       1.0  0.4252446981087559  0.24707696999858095  0.2737026667459048  1.0000
