data_image0
_chemical_formula_structural       Co4P4H32C32N12O16
_chemical_formula_sum              "Co4 P4 H32 C32 N12 O16"
_cell_length_a       7.129937821036307
_cell_length_b       10.958801539354793
_cell_length_c       12.86545711141113
_cell_angle_alpha    107.80743722259872
_cell_angle_beta     90.00026422457206
_cell_angle_gamma    89.99968182801682

_space_group_name_H-M_alt    "P 1"
_space_group_IT_number       1

loop_
  _space_group_symop_operation_xyz
  'x, y, z'

loop_
  _atom_site_type_symbol
  _atom_site_label
  _atom_site_symmetry_multiplicity
  _atom_site_fract_x
  _atom_site_fract_y
  _atom_site_fract_z
  _atom_site_occupancy
  Co  Co1       1.0  0.9512247199347358  0.010426376831858899  0.7961377439673144  1.0000
  Co  Co2       1.0  0.45125649751945945  0.9895940495002977  0.703868604242004  1.0000
  Co  Co3       1.0  0.04875723538572171  0.9896954168467572  0.20390445991850467  1.0000
  Co  Co4       1.0  0.5487380813010603  0.0102891091327422  0.2960903502724648  1.0000
  P   P1        1.0  0.7887534015017579  0.7989730168306294  0.5737912791066152  1.0000
  P   P2        1.0  0.28876004513038117  0.20103352055029686  0.9262079173012483  1.0000
  P   P3        1.0  0.21099853785371178  0.20091215051000696  0.42602362599734533  1.0000
  P   P4        1.0  0.7109876871607738  0.7990843477873639  0.07397861258130689  1.0000
  H   H1        1.0  0.9222760191980726  0.7033100998785784  0.7460443712044622  1.0000
  H   H2        1.0  0.4222748193250823  0.2966960375783074  0.7539566196286388  1.0000
  H   H3        1.0  0.07770874060922492  0.2967437684552933  0.253785791276897  1.0000
  H   H4        1.0  0.5777113448741602  0.7032540865052469  0.24621645766002592  1.0000
  H   H5        1.0  0.9142699578445673  0.48982413668745284  0.7739693904974131  1.0000
  H   H6        1.0  0.41427372846104044  0.5101810667482595  0.7260305587285459  1.0000
  H   H7        1.0  0.0856362603599266  0.5102526528487062  0.22599500273479833  1.0000
  H   H8        1.0  0.5856338932280637  0.4897432615787664  0.2740067603233243  1.0000
  H   H9        1.0  0.68783396273016  0.3259310885656959  0.4502432777646704  1.0000
  H   H10       1.0  0.1878404979214139  0.6740750646641374  0.049759088387034495  1.0000
  H   H11       1.0  0.3123162976250669  0.6739386656304943  0.5496904158534619  1.0000
  H   H12       1.0  0.8123111644088822  0.32605917306260324  0.9503104580624963  1.0000
  H   H13       1.0  0.7036311065139104  0.5416639366913002  0.4223611943291914  1.0000
  H   H14       1.0  0.2036411051469145  0.45834216982499504  0.07764042308966172  1.0000
  H   H15       1.0  0.29632139595122453  0.45819147976354196  0.5775081306636666  1.0000
  H   H16       1.0  0.7963198123870401  0.5418083220936013  0.9224955460614624  1.0000
  H   H17       1.0  0.5131714181487297  0.20308018411954984  0.5590381622661909  1.0000
  H   H18       1.0  0.013156296071805702  0.7969156785328552  0.9409528748193454  1.0000
  H   H19       1.0  0.4866408314696926  0.7970213013400879  0.44128555729013635  1.0000
  H   H20       1.0  0.9866531466533459  0.2029897037355965  0.058728172424999094  1.0000
  H   H21       1.0  0.0192054142342286  0.27795739295295624  0.7416260904865482  1.0000
  H   H22       1.0  0.5192051542996766  0.7220556959548575  0.7583811158546966  1.0000
  H   H23       1.0  0.9812870630600727  0.7221617425886888  0.2580710875820458  1.0000
  H   H24       1.0  0.48127470364094904  0.2778272479817688  0.24191589799944785  1.0000
  H   H25       1.0  0.6266695496743822  0.043710502714432706  0.8921111470772304  1.0000
  H   H26       1.0  0.1266881950469383  0.9562620091742673  0.6078888583722987  1.0000
  H   H27       1.0  0.37292670825524976  0.956275226887861  0.10784503255108287  1.0000
  H   H28       1.0  0.8729150758620462  0.0437428343567134  0.39215858588725894  1.0000
  H   H29       1.0  0.7225588015632952  0.9160393502885569  0.9191372223131253  1.0000
  H   H30       1.0  0.2225649913849921  0.0839156312967546  0.5808460200434311  1.0000
  H   H31       1.0  0.2772871078316754  0.0841207403359974  0.0809787101336497  1.0000
  H   H32       1.0  0.7772851260693231  0.9159071879735945  0.41903189984765987  1.0000
  C   C1        1.0  0.813149847698611  0.6371000055356575  0.582191376145147  1.0000
  C   C2        1.0  0.31315645083100924  0.3629045401298043  0.9178104725950932  1.0000
  C   C3        1.0  0.18670587944199477  0.36283592384548763  0.4176911828296639  1.0000
  C   C4        1.0  0.6867062894340848  0.6371606465271566  0.08231178921602113  1.0000
  C   C5        1.0  0.8746291202173282  0.6206037262738847  0.6804667095222641  1.0000
  C   C6        1.0  0.3746333698024387  0.37940063520940015  0.8195360269323474  1.0000
  C   C7        1.0  0.1253275892637902  0.3794069710791489  0.31941825745392544  1.0000
  C   C8        1.0  0.6253261458044435  0.6205907416071738  0.1805840771211606  1.0000
  C   C9        1.0  0.8689115514435387  0.5011537694807798  0.6966569419189385  1.0000
  C   C10       1.0  0.36891465370659665  0.4988506095796197  0.803345007104774  1.0000
  C   C11       1.0  0.1310633911167827  0.4988837352697714  0.3032801014400945  1.0000
  C   C12       1.0  0.6310616922372533  0.5011139602789357  0.1967222434505161  1.0000
  C   C13       1.0  0.7986894464607489  0.39604056185354597  0.6143224070294764  1.0000
  C   C14       1.0  0.2986909336042274  0.6039659443715307  0.8856791386842959  1.0000
  C   C15       1.0  0.2013191571254396  0.6039729718435962  0.38562470479658373  1.0000
  C   C16       1.0  0.7013162679898954  0.3960254727086436  0.1143772393659503  1.0000
  C   C17       1.0  0.7402621033742562  0.40887885443166283  0.5145656691451421  1.0000
  C   C18       1.0  0.2402659252593295  0.591124951084062  0.9854350212922186  1.0000
  C   C19       1.0  0.2597549156338488  0.5910589694274221  0.48535236171725427  1.0000
  C   C20       1.0  0.7597553015073615  0.40894025894677105  0.014649937610016685  1.0000
  C   C21       1.0  0.7484481359112609  0.5296796809078543  0.4995316018268383  1.0000
  C   C22       1.0  0.248455993462656  0.4703234164221045  0.00046934599507150217  1.0000
  C   C23       1.0  0.25148332834867665  0.4702313208976391  0.5003576669992995  1.0000
  C   C24       1.0  0.7514838861852058  0.5297666985658934  0.9996446518083815  1.0000
  C   C25       1.0  0.6294840417942995  0.19516454216201143  0.611210508548709  1.0000
  C   C26       1.0  0.12947122706461303  0.8048357626319314  0.8887858737896366  1.0000
  C   C27       1.0  0.370701281924255  0.8048383772509881  0.38884653901214966  1.0000
  C   C28       1.0  0.8707084860511856  0.19516722663759364  0.11116081890579471  1.0000
  C   C29       1.0  0.8867109133218349  0.23618799903589863  0.7077776526287779  1.0000
  C   C30       1.0  0.3867088700991488  0.7638239927893551  0.7922286603703413  1.0000
  C   C31       1.0  0.1137563191747759  0.7638486193517339  0.2920441233652014  1.0000
  C   C32       1.0  0.613745741333986  0.23613859162023232  0.20794533675593393  1.0000
  N   N1        1.0  0.8082983858138633  0.13476030554065938  0.7242931949673945  1.0000
  N   N2        1.0  0.30829534553517857  0.8652538359529417  0.7757158085796121  1.0000
  N   N3        1.0  0.19238624016788464  0.8652197491005112  0.27553947318011046  1.0000
  N   N4        1.0  0.6923766588103247  0.1347672279155532  0.22444857406288327  1.0000
  N   N5        1.0  0.644762455723722  0.109516090320632  0.6638995645960791  1.0000
  N   N6        1.0  0.1447568945484434  0.8904899159305372  0.8361037856506854  1.0000
  N   N7        1.0  0.3557159981086143  0.8904245722220524  0.3360759486030461  1.0000
  N   N8        1.0  0.8557159488310475  0.10956958073937528  0.1639198329504694  1.0000
  N   N9        1.0  0.778241058286554  0.27785906728957593  0.6377185781001132  1.0000
  N   N10       1.0  0.2782371417979448  0.7221465421062233  0.8622819036198381  1.0000
  N   N11       1.0  0.2219049939032018  0.7221697936549206  0.36224419210797276  1.0000
  N   N12       1.0  0.7219033007804683  0.2778285908628176  0.1377554576382565  1.0000
  O   O1        1.0  0.5938232976244254  0.8353281734687172  0.6274895267447534  1.0000
  O   O2        1.0  0.093856454740731  0.16467225403953023  0.8724811456517615  1.0000
  O   O3        1.0  0.4053704302419376  0.16435706468916322  0.3716708252274046  1.0000
  O   O4        1.0  0.9053470950986126  0.8356445926035221  0.12835036054249832  1.0000
  O   O5        1.0  0.9475695958259323  0.8808240834172312  0.6440435347890627  1.0000
  O   O6        1.0  0.44758897722696395  0.11918005272641351  0.8559709900650959  1.0000
  O   O7        1.0  0.05163675809204451  0.11919115780410289  0.35623669532240143  1.0000
  O   O8        1.0  0.5516145694393657  0.8808039096508653  0.14374921356627374  1.0000
  O   O9        1.0  0.7442037080750412  0.9933947016713417  0.891192928846401  1.0000
  O   O10       1.0  0.2442388356600276  0.006543938664208301  0.6087596783486973  1.0000
  O   O11       1.0  0.2554570663489173  0.006706013489001402  0.1088336703904105  1.0000
  O   O12       1.0  0.7554345622539318  0.9933334703789146  0.391196998334465  1.0000
  O   O13       1.0  0.7954346126565851  0.794549960367277  0.4543585041632525  1.0000
  O   O14       1.0  0.2954128324436738  0.2054558743564101  0.04563939259977451  1.0000
  O   O15       1.0  0.2053131277955345  0.20536490442357547  0.5454835825525777  1.0000
  O   O16       1.0  0.7053264933765391  0.7946265434922284  0.9545176799155898  1.0000
