data_image0
_chemical_formula_structural       Zn4H28C36S4N8O12F4
_chemical_formula_sum              "Zn4 H28 C36 S4 N8 O12 F4"
_cell_length_a       6.102129958994962
_cell_length_b       8.088367845641095
_cell_length_c       23.226003977048187
_cell_angle_alpha    87.16110617839229
_cell_angle_beta     82.46578785844407
_cell_angle_gamma    67.86843045390768

_space_group_name_H-M_alt    "P 1"
_space_group_IT_number       1

loop_
  _space_group_symop_operation_xyz
  'x, y, z'

loop_
  _atom_site_type_symbol
  _atom_site_label
  _atom_site_symmetry_multiplicity
  _atom_site_fract_x
  _atom_site_fract_y
  _atom_site_fract_z
  _atom_site_occupancy
  Zn  Zn1       1.0  0.4839959818990001  0.6262861039059614  0.7509794552099506  1.0000
  Zn  Zn2       1.0  0.8636758505065458  0.3732082158266579  0.24900789325577208  1.0000
  Zn  Zn3       1.0  0.9845599668136343  0.12615640560027688  0.7492348519270988  1.0000
  Zn  Zn4       1.0  0.8610501952852373  0.8736301773150358  0.25065680661194273  1.0000
  H   H1        1.0  0.704806409008377  0.72371854593883  0.15337703997256819  1.0000
  H   H2        1.0  0.5810962695484962  0.2757737740565673  0.8464113684083542  1.0000
  H   H3        1.0  0.6074754332921801  0.2259242132006918  0.34697991354476426  1.0000
  H   H4        1.0  0.17654492684646783  0.7750895023633433  0.6532300762286383  1.0000
  H   H5        1.0  0.8941115434465418  0.621055113991119  0.9318133331885291  1.0000
  H   H6        1.0  0.4490207236645532  0.3779507231015841  0.06811178808831636  1.0000
  H   H7        1.0  0.5749708325684679  0.12119331080873509  0.5685019341472709  1.0000
  H   H8        1.0  0.26222222305494824  0.8798977550972322  0.43184946488147347  1.0000
  H   H9        1.0  0.8689815055491013  0.5858019080510602  0.8275926773377832  1.0000
  H   H10       1.0  0.28556359961508815  0.41252357331912737  0.17236185258431647  1.0000
  H   H11       1.0  0.44544026255930913  0.0855252114652529  0.6726725248498653  1.0000
  H   H12       1.0  0.20305584249856432  0.9148025797484324  0.32753503467890965  1.0000
  H   H13       1.0  0.13117187645951128  0.7926536530159396  0.8526386502896628  1.0000
  H   H14       1.0  0.7777168714015519  0.20727110244484956  0.14739008031469325  1.0000
  H   H15       1.0  0.7328164566750175  0.2923079746925908  0.6474128883698355  1.0000
  H   H16       1.0  0.6718921419908881  0.7078383522373883  0.3523076104082675  1.0000
  H   H17       1.0  0.12354967679768  0.842615424954019  0.9588566821901097  1.0000
  H   H18       1.0  0.9253217111340392  0.157634561961423  0.04115458351618873  1.0000
  H   H19       1.0  0.8317394489782118  0.3424942592860988  0.541231278385382  1.0000
  H   H20       1.0  0.713236981238275  0.6581030002343766  0.4585727330216684  1.0000
  H   H21       1.0  0.06998747172934852  0.5925128689357706  0.7374978527774728  1.0000
  H   H22       1.0  0.40239796786051585  0.4072788074266354  0.262486496949883  1.0000
  H   H23       1.0  0.5573200493277428  0.0921448139848451  0.7624986395894948  1.0000
  H   H24       1.0  0.4129770391744787  0.9076655121286451  0.23756390307138278  1.0000
  H   H25       1.0  0.24177216772765323  0.40796288714767565  0.765952958958735  1.0000
  H   H26       1.0  0.4182215502968348  0.5917863427143504  0.23399482815929668  1.0000
  H   H27       1.0  0.7575216959113503  0.907346111141706  0.7340870667603736  1.0000
  H   H28       1.0  0.400701574497461  0.09222708600097461  0.2660598190416081  1.0000
  C   C1        1.0  0.1917416410200303  0.8171917978705777  0.1617318966461951  1.0000
  C   C2        1.0  0.1695444729797516  0.1826990531255603  0.8382900672366915  1.0000
  C   C3        1.0  0.10312317441274399  0.31765165747957275  0.3384356120765161  1.0000
  C   C4        1.0  0.7565067159694085  0.6824943428469794  0.6615810147319577  1.0000
  C   C5        1.0  0.3766040405004247  0.7791457864113411  0.11056048292168437  1.0000
  C   C6        1.0  0.2656548107310215  0.2206631344877437  0.8894155409090557  1.0000
  C   C7        1.0  0.23670832969519748  0.27992448317240093  0.3896408077815323  1.0000
  C   C8        1.0  0.9030786505516775  0.7207305937769704  0.6103881305240009  1.0000
  C   C9        1.0  0.6160282747686238  0.738306777950946  0.11468360590764347  1.0000
  C   C10       1.0  0.4685217091459253  0.2613432807049278  0.8851826274351564  1.0000
  C   C11       1.0  0.4800084431992532  0.2397617798285054  0.3856178500720944  1.0000
  C   C12       1.0  0.10188057215626169  0.7612943542907261  0.6145119846211529  1.0000
  C   C13       1.0  0.5100147136179629  0.7486975863035568  0.016790275085064383  1.0000
  C   C14       1.0  0.27567247464937616  0.251342326064524  0.9831480977794483  1.0000
  C   C15       1.0  0.27610935686662696  0.2489046055388471  0.48343916406986404  1.0000
  C   C16       1.0  0.005516382292171474  0.7519584655901711  0.5166286527522246  1.0000
  C   C17       1.0  0.5084663479198924  0.7339436249547333  0.9544751126434646  1.0000
  C   C18       1.0  0.19769289521139657  0.26592709768341644  0.045474970591541784  1.0000
  C   C19       1.0  0.21208582654827543  0.23383955582394123  0.5457223640755089  1.0000
  C   C20       1.0  0.9892968020545541  0.7669228034025294  0.45432175765652244  1.0000
  C   C21       1.0  0.7200357364117951  0.6637841237331087  0.9163080394550533  1.0000
  C   C22       1.0  0.3019073753911527  0.33546843088355877  0.08362237557710017  1.0000
  C   C23       1.0  0.38544004196025144  0.16371418341141458  0.5839280338986511  1.0000
  C   C24       1.0  0.13116008623336503  0.8370324140569708  0.41625178317141825  1.0000
  C   C25       1.0  0.7078956680670813  0.6415161292033745  0.8581279768847025  1.0000
  C   C26       1.0  0.20997693571376183  0.3573161249029512  0.14184240572129167  1.0000
  C   C27       1.0  0.31506030529999424  0.1412888248240236  0.6420894641969496  1.0000
  C   C28       1.0  0.09751100176951887  0.8590708206443979  0.3580280357386271  1.0000
  C   C29       1.0  0.29508127791623934  0.7556859471256485  0.8725002657659146  1.0000
  C   C30       1.0  0.9246515368880993  0.2440451508206962  0.1275284186361317  1.0000
  C   C31       1.0  0.9166754113252439  0.25535165049134895  0.6276321648201487  1.0000
  C   C32       1.0  0.7987025236638274  0.744881342087318  0.3722079248901834  1.0000
  C   C33       1.0  0.2916173034260581  0.7830348145338135  0.9311771397745047  1.0000
  C   C34       1.0  0.006559473708335915  0.21697354741473868  0.06883359449737722  1.0000
  C   C35       1.0  0.9719645660481717  0.2827108143173263  0.5689676179695056  1.0000
  C   C36       1.0  0.8218124192236689  0.7177481843597989  0.4309207172668719  1.0000
  S   S1        1.0  0.7724838238707791  0.7102500971763775  0.047504700875997154  1.0000
  S   S2        1.0  0.5304052491452823  0.2894985503705882  0.9523031542269533  1.0000
  S   S3        1.0  0.569072280610328  0.2115449666746088  0.4528482247854342  1.0000
  S   S4        1.0  0.2301838502315762  0.7896106113169594  0.5473324922970163  1.0000
  N   N1        1.0  0.31922043951856693  0.7847100781999785  0.055167637907828686  1.0000
  N   N2        1.0  0.15869739506414499  0.2154584647810935  0.9448433870933783  1.0000
  N   N3        1.0  0.1238785631295515  0.28475344240575845  0.445003019604897  1.0000
  N   N4        1.0  0.8506401760848378  0.715945648433049  0.5550054580515678  1.0000
  N   N5        1.0  0.4990196281880445  0.6851761981774089  0.8364722923645331  1.0000
  N   N6        1.0  0.02292211354225068  0.3139765386057007  0.16354793040417798  1.0000
  N   N7        1.0  0.08456157545933964  0.18493037213035987  0.6636947352890843  1.0000
  N   N8        1.0  0.9326635649839546  0.8152060809279719  0.33627479974311564  1.0000
  O   O1        1.0  0.973904375363901  0.868753562848468  0.15559921489764145  1.0000
  O   O2        1.0  0.9968475552214074  0.1314169286235227  0.8444364470528356  1.0000
  O   O3        1.0  0.8792689544546448  0.3686754361084681  0.34446328669448417  1.0000
  O   O4        1.0  0.5898026003593775  0.631268765735001  0.6555516002633651  1.0000
  O   O5        1.0  0.26158698056730173  0.7962044516750026  0.21289598841767088  1.0000
  O   O6        1.0  0.2694782128063764  0.20350064890808992  0.7870855626053128  1.0000
  O   O7        1.0  0.22426955044625876  0.2969329381354272  0.2872836709781694  1.0000
  O   O8        1.0  0.806047904244068  0.702953076784972  0.7127500829405518  1.0000
  O   O9        1.0  0.21096640565780678  0.5368640516580855  0.7589678455896944  1.0000
  O   O10       1.0  0.5092148045540982  0.4629409736914667  0.2410331589454557  1.0000
  O   O11       1.0  0.7202896920368644  0.03596632643277079  0.741335310713005  1.0000
  O   O12       1.0  0.4987767063505759  0.9635228325039052  0.25883655672934935  1.0000
  F   F1        1.0  0.7214595000337598  0.3743356462500529  0.7619455939748007  1.0000
  F   F2        1.0  0.8601484718415406  0.6251402338096383  0.23777158378444332  1.0000
  F   F3        1.0  0.23420477568620868  0.8747097557883592  0.7383027518997096  1.0000
  F   F4        1.0  0.8489741790465858  0.1250023717185798  0.26171512284440007  1.0000
