data_image0
_chemical_formula_structural       Al4H31C42N3O23
_chemical_formula_sum              "Al4 H31 C42 N3 O23"
_cell_length_a       6.724315107431094
_cell_length_b       16.464858358116842
_cell_length_c       18.54387992725885
_cell_angle_alpha    106.87480658119765
_cell_angle_beta     89.79273929414666
_cell_angle_gamma    90.44022090094438

_space_group_name_H-M_alt    "P 1"
_space_group_IT_number       1

loop_
  _space_group_symop_operation_xyz
  'x, y, z'

loop_
  _atom_site_type_symbol
  _atom_site_label
  _atom_site_symmetry_multiplicity
  _atom_site_fract_x
  _atom_site_fract_y
  _atom_site_fract_z
  _atom_site_occupancy
  Al  Al1       1.0  0.1035575665896644  0.5030318324280075  0.5024406926470704  1.0000
  Al  Al2       1.0  0.603468977223308  0.5049220429137122  0.5017495183411498  1.0000
  Al  Al3       1.0  0.6620459254801787  0.0026336487376284004  0.00018929953047580006  1.0000
  Al  Al4       1.0  0.1634084740371478  0.0022452150305341  0.9981088896798269  1.0000
  H   H1        1.0  0.9803129699942517  0.797820048187667  0.637704261246185  1.0000
  H   H2        1.0  0.6707402266593904  0.8739232634729107  0.7399634199303478  1.0000
  H   H3        1.0  0.5269630001684221  0.7085235970348692  0.730759047057596  1.0000
  H   H4        1.0  0.2292496854821806  0.8052234092500044  0.7630675711591265  1.0000
  H   H5        1.0  0.2718334002987532  0.37155674806921724  0.23373167462067096  1.0000
  H   H6        1.0  0.1570400783404722  0.20098339096381326  0.3442782535147515  1.0000
  H   H7        1.0  0.0478078566265623  0.08092484006521522  0.17675303438907258  1.0000
  H   H8        1.0  0.8056793654487465  0.1211346937154758  0.17101979087128424  1.0000
  H   H9        1.0  0.9202591944002664  0.1393208103128671  0.2612931939285588  1.0000
  H   H10       1.0  0.6882621001612109  0.755040963059116  0.9116002376485282  1.0000
  H   H11       1.0  0.6982221731160793  0.6232605071382624  0.9327112248352946  1.0000
  H   H12       1.0  0.8661371512331257  0.5845915193033094  0.8561653453294438  1.0000
  H   H13       1.0  0.612638780430494  0.5986052463167937  0.8376264999812973  1.0000
  H   H14       1.0  0.15755721518769417  0.5866829806850404  0.7029528512977875  1.0000
  H   H15       1.0  0.30122705791249166  0.5634665393060205  0.8128127281282999  1.0000
  H   H16       1.0  0.15709664624674247  0.6482040291691715  0.8702490219774502  1.0000
  H   H17       1.0  0.3575706678173631  0.6710948687236565  0.8166341567653673  1.0000
  H   H18       1.0  0.257909145751654  0.039379782195773295  0.2904128683847985  1.0000
  H   H19       1.0  0.4784267724697103  0.9763024645974242  0.28200570971547734  1.0000
  H   H20       1.0  0.39086368784092684  0.006687043685921901  0.20252829498932096  1.0000
  H   H21       1.0  0.7479800785614827  0.1815481576844462  0.38591053732899633  1.0000
  H   H22       1.0  0.6486616712989531  0.2829576938427252  0.43662849550167226  1.0000
  H   H23       1.0  0.9111991864486839  0.2710162733047952  0.4220320052824249  1.0000
  H   H24       1.0  0.8055193216444752  0.27606248702779373  0.17435958166672794  1.0000
  H   H25       1.0  0.7242487526683946  0.32687775948204495  0.07070115941323961  1.0000
  H   H26       1.0  0.4741089464124216  0.3433175719078322  0.10232369586368861  1.0000
  H   H27       1.0  0.5609320478971966  0.2381700931500603  0.0594897318824366  1.0000
  H   H28       1.0  0.3522826009736447  0.6053933316771706  0.4903647944938355  1.0000
  H   H29       1.0  0.8514445643954928  0.40175575090815846  0.447199428952544  1.0000
  H   H30       1.0  0.41009067836329643  0.8953314534542758  0.950068631817416  1.0000
  H   H31       1.0  0.9184633724320576  0.11404324488889019  0.03368197552324401  1.0000
  C   C1        1.0  0.36157107631606084  0.38176409177332005  0.3920864126730805  1.0000
  C   C2        1.0  0.34751119118976703  0.4219568178008899  0.5900969369692389  1.0000
  C   C3        1.0  0.8467890684892865  0.6182083312077753  0.6160934458863494  1.0000
  C   C4        1.0  0.8637826718741904  0.5904770463679155  0.41578435965509897  1.0000
  C   C5        1.0  0.8657862512478544  0.6402613675363398  0.3634159531080953  1.0000
  C   C6        1.0  0.8728250870463798  0.6837903124210313  0.31982521867814734  1.0000
  C   C7        1.0  0.8817713536151643  0.731439292483984  0.2722516421998549  1.0000
  C   C8        1.0  0.8921877578912002  0.7754051314818825  0.22861351176705114  1.0000
  C   C9        1.0  0.9031148916693541  0.8225585791567768  0.18066533659069967  1.0000
  C   C10       1.0  0.9124702264003234  0.8651478448418147  0.13634040883951576  1.0000
  C   C11       1.0  0.7615624349331256  0.8200967010642303  0.7427769819098983  1.0000
  C   C12       1.0  0.9366324873581393  0.780410091610804  0.6881764076956073  1.0000
  C   C13       1.0  0.8550607223126365  0.6896153029703314  0.6859150809743539  1.0000
  C   C14       1.0  0.6817355238683119  0.7296728962350442  0.7399027047132306  1.0000
  C   C15       1.0  0.8222749770851935  0.7310423358540562  0.8099732261896477  1.0000
  C   C16       1.0  0.9950727811557556  0.690020885811947  0.7536057722015811  1.0000
  C   C17       1.0  0.07514751247247628  0.7825793531096963  0.7563614152596471  1.0000
  C   C18       1.0  0.9014146934206693  0.8223447071291475  0.81064066324776  1.0000
  C   C19       1.0  0.5739909098497621  0.2581278598986217  0.29354213152448233  1.0000
  C   C20       1.0  0.4576647454348546  0.17094280112286236  0.2733154712851444  1.0000
  C   C21       1.0  0.4026297727151588  0.17651445986369657  0.19106256328486637  1.0000
  C   C22       1.0  0.5278525349362226  0.268960684661927  0.2141463405780897  1.0000
  C   C23       1.0  0.3256096380030159  0.3133250264602482  0.2439077123618389  1.0000
  C   C24       1.0  0.21184540431741541  0.22698204031601682  0.22578947967706137  1.0000
  C   C25       1.0  0.2605897191698219  0.2192580696556732  0.30618223444528064  1.0000
  C   C26       1.0  0.3747347298600375  0.3059219052898642  0.32552490117294747  1.0000
  C   C27       1.0  0.35548774159978785  0.37420221025617917  0.6439392203909761  1.0000
  C   C28       1.0  0.3693165438970282  0.3316482142606177  0.6881049150687061  1.0000
  C   C29       1.0  0.38416893517442924  0.2842152261859354  0.7356016602337049  1.0000
  C   C30       1.0  0.39756593692964515  0.2394753172293633  0.7784259322238254  1.0000
  C   C31       1.0  0.4078761920726706  0.1905420845354016  0.8248047322005758  1.0000
  C   C32       1.0  0.4141339912417267  0.1453084268686595  0.8669323126392071  1.0000
  C   C33       1.0  0.4101532374600509  0.09259631179037342  0.9169431265571574  1.0000
  C   C34       1.0  0.415003641378064  0.11243702232023622  0.11727579296479719  1.0000
  C   C35       1.0  0.9179309536316683  0.9139954037271351  0.08310660033988884  1.0000
  C   C36       1.0  0.9071172995976229  0.8906320530786972  0.8824711503138545  1.0000
  C   C37       1.0  0.9460911326022343  0.1333696465449776  0.20161809226623004  1.0000
  C   C38       1.0  0.7372168899412228  0.6254298836637774  0.8757577118511648  1.0000
  C   C39       1.0  0.2359325304541358  0.6253644757167436  0.816227593100052  1.0000
  C   C40       1.0  0.4062904638451742  0.026758114598997903  0.2642781785477623  1.0000
  C   C41       1.0  0.7650329679585753  0.2505347234326436  0.39696147429402356  1.0000
  C   C42       1.0  0.6028160136978258  0.30120867796642875  0.09740127770425032  1.0000
  N   N1        1.0  0.7872650034974812  0.7132337006368418  0.8792045834440643  1.0000
  N   N2        1.0  0.09617845028177642  0.6155098240288693  0.7543723474306602  1.0000
  N   N3        1.0  0.6652407722677864  0.2988826849225105  0.17182590693802519  1.0000
  O   O1        1.0  0.5120184279629356  0.43129022968685854  0.5592931416363809  1.0000
  O   O2        1.0  0.19313024329390058  0.4028056543833999  0.4239945321426787  1.0000
  O   O3        1.0  0.03226291612867979  0.5628724268168098  0.4290850120670838  1.0000
  O   O4        1.0  0.17807751086385076  0.4492989402204159  0.5779432256023468  1.0000
  O   O5        1.0  0.013319277880135899  0.596091720880814  0.5828667579445008  1.0000
  O   O6        1.0  0.5254472286988728  0.42177183409027924  0.4112425584945925  1.0000
  O   O7        1.0  0.352894530489138  0.5552696702954592  0.5077871915414391  1.0000
  O   O8        1.0  0.6781011268048686  0.585401044773711  0.5931429649939444  1.0000
  O   O9        1.0  0.6952194394660154  0.580313220543708  0.4437750835050449  1.0000
  O   O10       1.0  0.8525441343700636  0.45215377848064253  0.4904318240388221  1.0000
  O   O11       1.0  0.2554210430505748  0.09388315260573417  0.07824726345393168  1.0000
  O   O12       1.0  0.5756324884053542  0.08107792367310651  0.9456843964970217  1.0000
  O   O13       1.0  0.7383394853256464  0.9216760351183099  0.9081040021356086  1.0000
  O   O14       1.0  0.5848077102008844  0.07979360517686017  0.0940862308404036  1.0000
  O   O15       1.0  0.7509317003401675  0.9254989850206314  0.05571158632026404  1.0000
  O   O16       1.0  0.23964767983740395  0.06398106378919273  0.9273996264869666  1.0000
  O   O17       1.0  0.4120025574710553  0.9499579656186583  0.9882385098732768  1.0000
  O   O18       1.0  0.08845310090308091  0.9400034598151733  0.06916460907584115  1.0000
  O   O19       1.0  0.0742327991257739  0.9115048620551606  0.9151264959938175  1.0000
  O   O20       1.0  0.9134431185405489  0.0534698223993715  0.009045930579731  1.0000
  O   O21       1.0  0.0256725223136627  0.21192619172661148  0.19328722241630197  1.0000
  O   O22       1.0  0.5330990432836771  0.1003057722075411  0.28901352649691586  1.0000
  O   O23       1.0  0.7577075503395891  0.2737652600697942  0.32778395958870016  1.0000
