data_image0
_chemical_formula_structural       Nd2H56C48N6O22
_chemical_formula_sum              "Nd2 H56 C48 N6 O22"
_cell_length_a       9.845831995026296
_cell_length_b       10.868193845422402
_cell_length_c       13.0064
_cell_angle_alpha    101.34401919329876
_cell_angle_beta     92.94439149367442
_cell_angle_gamma    105.017253884217

_space_group_name_H-M_alt    "P 1"
_space_group_IT_number       1

loop_
  _space_group_symop_operation_xyz
  'x, y, z'

loop_
  _atom_site_type_symbol
  _atom_site_label
  _atom_site_symmetry_multiplicity
  _atom_site_fract_x
  _atom_site_fract_y
  _atom_site_fract_z
  _atom_site_occupancy
  Nd  Nd1       1.0  0.7611581161232549  0.9831066576973413  0.5025124668106004  1.0000
  Nd  Nd2       1.0  0.23884596781920914  0.0168898511087505  0.4974806598103783  1.0000
  H   H1        1.0  0.8656913781732953  0.2728710445945239  0.2888806026563202  1.0000
  H   H2        1.0  0.1343089303490927  0.727133272741895  0.7111236556702139  1.0000
  H   H3        1.0  0.8952673768310078  0.4788063911143468  0.21920874849437416  1.0000
  H   H4        1.0  0.10472102026502482  0.5212057347524066  0.7808078628772892  1.0000
  H   H5        1.0  0.1033993596926095  0.6706883351686344  0.3008749600398701  1.0000
  H   H6        1.0  0.8965942669388907  0.3293208624992445  0.6991336848704536  1.0000
  H   H7        1.0  0.2758747353250754  0.28728559158793127  0.15938407554734368  1.0000
  H   H8        1.0  0.7241303673781515  0.7127177496821915  0.8406171333607589  1.0000
  H   H9        1.0  0.26083950840302345  0.1619469669591496  0.0458423624798669  1.0000
  H   H10       1.0  0.7391683544794816  0.8380553982446841  0.9541595621798536  1.0000
  H   H11       1.0  0.6515874127205378  0.1904441984068512  0.975640034440616  1.0000
  H   H12       1.0  0.3484162393872551  0.8095679274599021  0.024364868479189315  1.0000
  H   H13       1.0  0.7304048351674339  0.011113490795438  0.23299981928643385  1.0000
  H   H14       1.0  0.269598959711935  0.9888888744084027  0.7669996406340474  1.0000
  H   H15       1.0  0.14761506596217797  0.8235334839592098  0.1790871842567299  1.0000
  H   H16       1.0  0.8523768139708778  0.17646302484688187  0.8209139251916755  1.0000
  H   H17       1.0  0.12198985888394989  0.6758243959946952  0.9971815332857404  1.0000
  H   H18       1.0  0.878009282826163  0.3241623521484769  0.0028228673574944136  1.0000
  H   H19       1.0  0.878285571828826  0.5484682423413076  0.9157014261344261  1.0000
  H   H20       1.0  0.12171357164126562  0.4515253382659026  0.08429948446644892  1.0000
  H   H21       1.0  0.5286798918409943  0.5280177014010333  0.0988250510077719  1.0000
  H   H22       1.0  0.47130908162125706  0.4719758792061768  0.9011677756143613  1.0000
  H   H23       1.0  0.5406783158644473  0.6667430752182426  0.042582035560570816  1.0000
  H   H24       1.0  0.45931545353862896  0.33325636178672363  0.957420397498183  1.0000
  H   H25       1.0  0.413720801854609  0.6269673977718426  0.2505289171558829  1.0000
  H   H26       1.0  0.5862747089669752  0.3730242307027893  0.749472300185424  1.0000
  H   H27       1.0  0.3198617496739899  0.6188777603475869  0.1279882605607128  1.0000
  H   H28       1.0  0.6801312917914046  0.3811158202596303  0.8720147193232325  1.0000
  H   H29       1.0  0.43477769943577727  0.7703896025839184  0.1999478865689852  1.0000
  H   H30       1.0  0.565215051206529  0.22960300195700256  0.8000549215774697  1.0000
  H   H31       1.0  0.3024839425672425  0.6633414841922374  0.5891684745174786  1.0000
  H   H32       1.0  0.6975163659551384  0.3366628331441817  0.41083424610453523  1.0000
  H   H33       1.0  0.4290611569359299  0.6226902752823236  0.5061396056101444  1.0000
  H   H34       1.0  0.5709401685872422  0.37731404205409547  0.49386315455749513  1.0000
  H   H35       1.0  0.05047968111286139  0.020209452566263098  0.10334397825356233  1.0000
  H   H36       1.0  0.9495251307672916  0.9797929126375776  0.896653214655764  1.0000
  H   H37       1.0  0.02282015252280441  0.17752010464061388  0.11255597594687572  1.0000
  H   H38       1.0  0.9771846593573486  0.8224822605632198  0.8874404481101907  1.0000
  H   H39       1.0  0.07544327757506859  0.12964698123962387  0.22827842097257903  1.0000
  H   H40       1.0  0.9245571754788671  0.8703544078979206  0.7717184420167911  1.0000
  H   H41       1.0  0.37967345791236795  0.5466966820221728  0.720689796140782  1.0000
  H   H42       1.0  0.6203179866660591  0.4533017789165044  0.27930931068021897  1.0000
  H   H43       1.0  0.5264642073650023  0.6659085385389787  0.6915830809879608  1.0000
  H   H44       1.0  0.47353101439348677  0.3340889463334022  0.30842216309606846  1.0000
  H   H45       1.0  0.5010200112230336  0.4978357795341424  0.6355261461572113  1.0000
  H   H46       1.0  0.49897288571080617  0.5021607292719423  0.3644757716890653  1.0000
  H   H47       1.0  0.8030673014456299  0.079688980239915  0.06407739524242123  1.0000
  H   H48       1.0  0.19693911084144125  0.9203221695605492  0.9359259168722289  1.0000
  H   H49       1.0  0.711846097335723  0.2668994710229029  0.5694714823782903  1.0000
  H   H50       1.0  0.2881527570712734  0.7330999659820562  0.4305273041472546  1.0000
  H   H51       1.0  0.5731973350436305  0.155677693168613  0.5847541361616848  1.0000
  H   H52       1.0  0.42680006524797415  0.8443168635048934  0.41523917856287085  1.0000
  H   H53       1.0  0.6791062512145984  0.6995955144587782  0.44841920378373606  1.0000
  H   H54       1.0  0.3208941983193725  0.3003922097506829  0.5515831015858268  1.0000
  H   H55       1.0  0.6500815212105024  0.7414746147634403  0.3429994566861509  1.0000
  H   H56       1.0  0.349920093375772  0.2585238461752297  0.6570085029658445  1.0000
  C   C1        1.0  0.029611226333230403  0.226505943613958  0.43579645225145214  1.0000
  C   C2        1.0  0.9704323761082633  0.7734934933910081  0.564193310349637  1.0000
  C   C3        1.0  0.052169754501996096  0.3517098710945064  0.3981462093054092  1.0000
  C   C4        1.0  0.9478373822027988  0.6482934701756236  0.6018504655803838  1.0000
  C   C5        1.0  0.9546192179889559  0.3585384308700981  0.31934115085987  1.0000
  C   C6        1.0  0.04538341535808143  0.6414668625326172  0.6806633582953909  1.0000
  C   C7        1.0  0.16543927897321  0.4652527345900737  0.43810839220547854  1.0000
  C   C8        1.0  0.8345643713746042  0.5347525588126415  0.5618915433818543  1.0000
  C   C9        1.0  0.970622768107077  0.4720061372612179  0.2807233469495998  1.0000
  C   C10       1.0  0.02937027687826799  0.5280011082740828  0.7192864921902713  1.0000
  C   C11       1.0  0.08517281791512227  0.5776291988672496  0.3249233607700077  1.0000
  C   C12       1.0  0.9148235688956561  0.4223790227343329  0.6750836933351749  1.0000
  C   C13       1.0  0.4563681288575765  0.1237866792252404  0.1635259925965258  1.0000
  C   C14       1.0  0.5436334874886697  0.8762186141774747  0.8364769393085967  1.0000
  C   C15       1.0  0.2409811914199693  0.180855323158795  0.12887751246130824  1.0000
  C   C16       1.0  0.7590226034593995  0.8191470420450385  0.8711227163114261  1.0000
  C   C17       1.0  0.6221644693233584  0.1539832420865039  0.04624099547147152  1.0000
  C   C18       1.0  0.377840053493692  0.8460249795150787  0.9537625307373574  1.0000
  C   C19       1.0  0.5410652741341551  0.0730732029158787  0.2270879132668426  1.0000
  C   C20       1.0  0.4589386652767615  0.9269262340890803  0.77291337754356  1.0000
  C   C21       1.0  0.6663203523412022  0.0554103073042356  0.18864286561854024  1.0000
  C   C22       1.0  0.3336809731819699  0.9445940100321835  0.8113591256968391  1.0000
  C   C23       1.0  0.5052713497253336  0.0409215792726698  0.331342325106057  1.0000
  C   C24       1.0  0.49472430914775595  0.959080785931171  0.6686591250062578  1.0000
  C   C25       1.0  0.9479364203777507  0.8635668429065788  0.2982210689629667  1.0000
  C   C26       1.0  0.0520624357892245  0.13643942656242558  0.7017726898157122  1.0000
  C   C27       1.0  0.9255701409896417  0.7745984004330282  0.19053057886595332  1.0000
  C   C28       1.0  0.07442333759035338  0.22540006050564898  0.809467069341764  1.0000
  C   C29       1.0  0.7919615634970683  0.6975057565285994  0.1364219509578461  1.0000
  C   C30       1.0  0.2080339473245161  0.3024858719460326  0.8635754221221745  1.0000
  C   C31       1.0  0.04455107946321851  0.7650124533838465  0.13859413533197806  1.0000
  C   C32       1.0  0.9554453038276022  0.23498210328965993  0.861406828369539  1.0000
  C   C33       1.0  0.030699021842494293  0.6840819168210999  0.038996524792224804  1.0000
  C   C34       1.0  0.9692963426875635  0.3159058073883685  0.9610048139970004  1.0000
  C   C35       1.0  0.8948864160615883  0.6129598704219957  0.9939078462466641  1.0000
  C   C36       1.0  0.1051098209376988  0.3870307819863399  0.0060924700505111985  1.0000
  C   C37       1.0  0.5380735287469136  0.6330668360276519  0.11696931010408926  1.0000
  C   C38       1.0  0.4619147185376349  0.3669277206458545  0.8830290306757149  1.0000
  C   C39       1.0  0.4205038919749525  0.6647001684700555  0.17813643683943783  1.0000
  C   C40       1.0  0.579492200492794  0.3352934121371547  0.821864355124589  1.0000
  C   C41       1.0  0.3612659349783555  0.5908685620456566  0.5657514322357216  1.0000
  C   C42       1.0  0.6387320487193833  0.4091347792244732  0.4342518064098329  1.0000
  C   C43       1.0  0.08835696382641339  0.1232703401570205  0.14435122295778063  1.0000
  C   C44       1.0  0.9116475572306584  0.876731048980531  0.8556473359185689  1.0000
  C   C45       1.0  0.4463740506028131  0.5732642304115032  0.658929350985872  1.0000
  C   C46       1.0  0.5536197188002631  0.4267352065934631  0.3410738509251345  1.0000
  C   C47       1.0  0.7071774699009054  0.0942606739062626  0.09612967795721522  1.0000
  C   C48       1.0  0.29282574509228  0.9057465716290309  0.9038720992639924  1.0000
  N   N1        1.0  0.1800411234534849  0.5742549376974111  0.4018436514143744  1.0000
  N   N2        1.0  0.8199577327134832  0.4257513317715933  0.5981601024436501  1.0000
  N   N3        1.0  0.4992006544695755  0.1686730397741272  0.07875534809697632  1.0000
  N   N4        1.0  0.5008002356989678  0.8313332296948771  0.9212484848522777  1.0000
  N   N5        1.0  0.778304258140217  0.6185361371455471  0.04129755987661812  1.0000
  N   N6        1.0  0.2216902356805832  0.3814554913290849  0.9586997736577844  1.0000
  O   O1        1.0  0.07321811220499087  0.9007852266691571  0.34442503277290376  1.0000
  O   O2        1.0  0.9267643326978287  0.0992444683908502  0.6555627119292212  1.0000
  O   O3        1.0  0.4107297584020698  0.082518596419078  0.37779795859592014  1.0000
  O   O4        1.0  0.589275777895807  0.9174759602544283  0.6221979790503482  1.0000
  O   O5        1.0  0.6198479307562081  0.7435526598981212  0.41413073055797167  1.0000
  O   O6        1.0  0.38015542700855315  0.2564448249742597  0.5858771364477704  1.0000
  O   O7        1.0  0.9021384015394958  0.1669903014875231  0.44133666618989054  1.0000
  O   O8        1.0  0.09789240996649798  0.8329866859927363  0.5586581354023467  1.0000
  O   O9        1.0  0.6722784520684257  0.1724465120572063  0.5703180063479678  1.0000
  O   O10       1.0  0.32771952986933434  0.8275499967488784  0.42966719447673546  1.0000
  O   O11       1.0  0.1371848778087994  0.18798841561734747  0.45612441543082843  1.0000
  O   O12       1.0  0.8628558234418335  0.8120285905808657  0.5438535138872354  1.0000
  O   O13       1.0  0.5756213018604085  0.9724460616611807  0.36844579549441653  1.0000
  O   O14       1.0  0.4243814724982115  0.027542638614576696  0.6315521475903267  1.0000
  O   O15       1.0  0.2589774359655053  0.46560607058761144  0.518224495524713  1.0000
  O   O16       1.0  0.741024180380748  0.5343992228151038  0.4817768986758964  1.0000
  O   O17       1.0  0.3252823667012805  0.122552931432736  0.18889167190902612  1.0000
  O   O18       1.0  0.6747244791804405  0.8774494337710974  0.8111132886141094  1.0000
  O   O19       1.0  0.8425408063453119  0.895539846418437  0.3353318177301787  1.0000
  O   O20       1.0  0.1574240481612179  0.10444787779103139  0.6646583396111937  1.0000
  O   O21       1.0  0.6721949598563697  0.701678439924919  0.18205014236982464  1.0000
  O   O22       1.0  0.32779735367132895  0.2983092842845494  0.8179480023735195  1.0000
