data_image0
_chemical_formula_structural       Zn2H36C52N4O8
_chemical_formula_sum              "Zn2 H36 C52 N4 O8"
_cell_length_a       7.5008439152182635
_cell_length_b       16.802124700814897
_cell_length_c       18.291646111034744
_cell_angle_alpha    62.60384746643906
_cell_angle_beta     89.67893139556266
_cell_angle_gamma    89.43319737147954

_space_group_name_H-M_alt    "P 1"
_space_group_IT_number       1

loop_
  _space_group_symop_operation_xyz
  'x, y, z'

loop_
  _atom_site_type_symbol
  _atom_site_label
  _atom_site_symmetry_multiplicity
  _atom_site_fract_x
  _atom_site_fract_y
  _atom_site_fract_z
  _atom_site_occupancy
  Zn  Zn1       1.0  0.2495578757137551  0.08692838013154612  0.8258448949304269  1.0000
  Zn  Zn2       1.0  0.750443846128732  0.9130774462062023  0.17415319780043587  1.0000
  H   H1        1.0  0.1320220867483428  0.8970472438518873  0.8575141795654845  1.0000
  H   H2        1.0  0.36682543268368323  0.24576508498920918  0.8564903706375164  1.0000
  H   H3        1.0  0.8679750464830747  0.10296658190843999  0.14247173707552463  1.0000
  H   H4        1.0  0.6331801899552685  0.7542365429108318  0.14351134280722275  1.0000
  H   H5        1.0  0.07424648054598748  0.7487263180987044  0.9828506473432554  1.0000
  H   H6        1.0  0.42562675070897876  0.26913830195086064  0.9813653549414953  1.0000
  H   H7        1.0  0.9257380513072634  0.2512824103884626  0.01713144759287392  1.0000
  H   H8        1.0  0.5743629348123563  0.7308608876202028  0.018637210697640655  1.0000
  H   H9        1.0  0.21583155613339505  0.8744562693614883  0.13317396751803295  1.0000
  H   H10       1.0  0.2848208671323107  0.9928610111201123  0.13284627627240297  1.0000
  H   H11       1.0  0.7841554435751448  0.1255385245043004  0.8668188428154268  1.0000
  H   H12       1.0  0.7151557935115492  0.007140256294668866  0.8671519642184081  1.0000
  H   H13       1.0  0.6955211015132933  0.19221427169127747  0.739951789783234  1.0000
  H   H14       1.0  0.8043471742684929  0.06817648495975709  0.7397061271784866  1.0000
  H   H15       1.0  0.3044890998053448  0.8077860252232868  0.260045278475232  1.0000
  H   H16       1.0  0.19565158010733089  0.9318252158481499  0.2602974217401836  1.0000
  H   H17       1.0  0.459122851473957  0.29499009357564904  0.6573053047071654  1.0000
  H   H18       1.0  0.04079615276322101  0.04827094015477949  0.6568375039193982  1.0000
  H   H19       1.0  0.5408870184854919  0.7050125471960911  0.3426934366217936  1.0000
  H   H20       1.0  0.9592093534142665  0.9517259388514037  0.34316831987261065  1.0000
  H   H21       1.0  0.35921657500546184  0.43132979033644164  0.5533388176105589  1.0000
  H   H22       1.0  0.1407110650426873  0.015577217043713171  0.553049066163034  1.0000
  H   H23       1.0  0.6407932428755245  0.5686697358855639  0.44666238811854  1.0000
  H   H24       1.0  0.8592958560507639  0.9844128076073703  0.44696032091685106  1.0000
  H   H25       1.0  0.8494027790692372  0.502256437294797  0.5333423505059756  1.0000
  H   H26       1.0  0.6504114576665643  0.9648740688142043  0.5333872131776758  1.0000
  H   H27       1.0  0.15060757611162495  0.49774801503750155  0.46666332737520133  1.0000
  H   H28       1.0  0.3496011348198351  0.03511213934046961  0.4666213979722472  1.0000
  H   H29       1.0  0.08470111653296904  0.40033935154037453  0.6236230441958597  1.0000
  H   H30       1.0  0.4150447866534179  0.9765380168296008  0.6237654426892405  1.0000
  H   H31       1.0  0.9153097909131986  0.5996611943632998  0.37637984523449575  1.0000
  H   H32       1.0  0.5849636749739348  0.023451927347238777  0.3762420302291858  1.0000
  H   H33       1.0  0.12108812246516723  0.7391923346819382  0.12346984644015893  1.0000
  H   H34       1.0  0.37978112699931893  0.13819455101265993  0.12233099440690151  1.0000
  H   H35       1.0  0.8788965261372823  0.2608086021343042  0.8765160619159219  1.0000
  H   H36       1.0  0.620193861196583  0.861807033380714  0.8776702665845733  1.0000
  C   C1        1.0  0.055031728482177314  0.22809866699002887  0.7361470437248059  1.0000
  C   C2        1.0  0.44494842320295186  0.03590515329809573  0.736331078215059  1.0000
  C   C3        1.0  0.9449674247838901  0.7718988191122309  0.2638553717312961  1.0000
  C   C4        1.0  0.5550522797534825  0.9640942773169102  0.2636680559775399  1.0000
  C   C5        1.0  0.908117292605624  0.28921464719377366  0.6870029038816697  1.0000
  C   C6        1.0  0.5917696382308507  0.0241161343898782  0.6869887972770458  1.0000
  C   C7        1.0  0.09188952089510853  0.710785194115232  0.3130013026762128  1.0000
  C   C8        1.0  0.4082335108321402  0.9758813573871664  0.3130136771947035  1.0000
  C   C9        1.0  0.146615088882264  0.8882132311631781  0.9201597293053326  1.0000
  C   C10       1.0  0.35261809935595056  0.19199299158562877  0.9192733452638252  1.0000
  C   C11       1.0  0.8533834592651317  0.11179374024205661  0.0798297506235457  1.0000
  C   C12       1.0  0.6473810936840536  0.8080090892719838  0.08072578733912654  1.0000
  C   C13       1.0  0.11712100157179614  0.806613365168488  0.9898410306037065  1.0000
  C   C14       1.0  0.382739642019324  0.2041478944314861  0.9887008180682673  1.0000
  C   C15       1.0  0.8828695426772201  0.19339507509278775  0.010147512840873691  1.0000
  C   C16       1.0  0.6172513293642511  0.7958537126610211  0.011300678985783442  1.0000
  C   C17       1.0  0.1975432620621121  0.8775182395534316  0.07304415677371168  1.0000
  C   C18       1.0  0.3025958135316245  0.04990206960067672  0.0725764699516134  1.0000
  C   C19       1.0  0.8024550714752934  0.12248328403804744  0.9269508096456037  1.0000
  C   C20       1.0  0.6973887190965442  0.9500979654624048  0.9274238133626941  1.0000
  C   C21       1.0  0.7308152241828766  0.2604554146036407  0.6960959863176727  1.0000
  C   C22       1.0  0.7691317239302293  0.04383733228401353  0.6959030333104296  1.0000
  C   C23       1.0  0.26919310524267814  0.7395473066423435  0.30390466917273773  1.0000
  C   C24       1.0  0.23087120422663795  0.9561617220644792  0.3041005565416412  1.0000
  C   C25       1.0  0.5967894048516695  0.3180585822992939  0.6478085457139786  1.0000
  C   C26       1.0  0.9031061767826928  0.03462089642366818  0.6474921504179464  1.0000
  C   C27       1.0  0.4032189583394157  0.6819432035224509  0.3521923795803944  1.0000
  C   C28       1.0  0.09689798830601866  0.9653739557039246  0.3525150208042405  1.0000
  C   C29       1.0  0.6362352451815738  0.40533128438996624  0.5865644272918261  1.0000
  C   C30       1.0  0.8636687010085212  0.008529281526392842  0.586388568458901  1.0000
  C   C31       1.0  0.3637728204158606  0.5946719098647151  0.41343844087700193  1.0000
  C   C32       1.0  0.13634348028309523  0.9914626215395402  0.41362035770058003  1.0000
  C   C33       1.0  0.4918758411391408  0.46017644098406424  0.5342107675038505  1.0000
  C   C34       1.0  0.008103498431268006  0.005794424956469864  0.5340937274455442  1.0000
  C   C35       1.0  0.5081377178671148  0.5398255889084072  0.4657913428172549  1.0000
  C   C36       1.0  0.9919059883782708  0.9941949045579151  0.4659170751212685  1.0000
  C   C37       1.0  0.8147398317340517  0.43441504097853595  0.578760435333365  1.0000
  C   C38       1.0  0.6850794506789343  0.9872982700313673  0.5787226517970511  1.0000
  C   C39       1.0  0.18527322422502823  0.5655849745201138  0.4212477372505959  1.0000
  C   C40       1.0  0.31492464087031646  0.012692922765118905  0.42128753247431666  1.0000
  C   C41       1.0  0.9473584288484603  0.37773019417565495  0.6287636429603864  1.0000
  C   C42       1.0  0.5524527515996667  0.9939637546797969  0.6287812711387347  1.0000
  C   C43       1.0  0.05264711395488321  0.6222747847784833  0.37123671242342476  1.0000
  C   C44       1.0  0.4475559277857358  0.0060281321181889945  0.37122290084430903  1.0000
  C   C45       1.0  0.22230135158394398  0.9573890433610971  0.0007457127243524988  1.0000
  C   C46       1.0  0.27715086609334355  0.04211146714045811  0.0005001030566801947  1.0000
  C   C47       1.0  0.7776903775184535  0.04261208012954419  0.9992488764904763  1.0000
  C   C48       1.0  0.722837926159862  0.9578881005887112  0.9994980265948641  1.0000
  C   C49       1.0  0.14300489224638113  0.8015001325222145  0.06732392732745747  1.0000
  C   C50       1.0  0.35733856098755723  0.13183174280221271  0.0663783514519167  1.0000
  C   C51       1.0  0.8569799558011938  0.19849869694119365  0.9326614142973357  1.0000
  C   C52       1.0  0.6426420187656915  0.8681693761488349  0.9336207755486614  1.0000
  N   N1        1.0  0.19687169742638128  0.961399429028589  0.9259478961565151  1.0000
  N   N2        1.0  0.30214369957460024  0.11285104259365414  0.925495647673877  1.0000
  N   N3        1.0  0.8031263353693063  0.03860700818842842  0.074046827582201  1.0000
  N   N4        1.0  0.6978555486919332  0.8871506476210911  0.07450320608398896  1.0000
  O   O1        1.0  0.018131568314295507  0.14274425441629301  0.7767065487336923  1.0000
  O   O2        1.0  0.48198014950748547  0.08040220727985317  0.7770660003849985  1.0000
  O   O3        1.0  0.9818689228924811  0.8572587637571516  0.22329233373717727  1.0000
  O   O4        1.0  0.5180112728448022  0.919598299656741  0.22293189880633696  1.0000
  O   O5        1.0  0.2078171676906422  0.2573568589244746  0.7381385513921401  1.0000
  O   O6        1.0  0.29198891785552666  0.004811575811636695  0.7383506624764068  1.0000
  O   O7        1.0  0.7921966153697967  0.7426401032039466  0.2618646291036981  1.0000
  O   O8        1.0  0.7080095936659986  0.9951872956456358  0.26164428586066907  1.0000
