data_image0
_chemical_formula_structural       NiH12C16O12
_chemical_formula_sum              "Ni1 H12 C16 O12"
_cell_length_a       4.93173919638574
_cell_length_b       6.401301683337829
_cell_length_c       12.310021865979333
_cell_angle_alpha    78.02158545726768
_cell_angle_beta     85.4088865964907
_cell_angle_gamma    86.52492586149756

_space_group_name_H-M_alt    "P 1"
_space_group_IT_number       1

loop_
  _space_group_symop_operation_xyz
  'x, y, z'

loop_
  _atom_site_type_symbol
  _atom_site_label
  _atom_site_symmetry_multiplicity
  _atom_site_fract_x
  _atom_site_fract_y
  _atom_site_fract_z
  _atom_site_occupancy
  Ni  Ni1       1.0  0.9999984000360697  4.9909781836012506e-06  0.5000000890729126  1.0000
  H   H1        1.0  0.3987184859432134  0.013356319981063802  0.6240906630311615  1.0000
  H   H2        1.0  0.6012889016305961  0.9866534718840896  0.3759104358347046  1.0000
  H   H3        1.0  0.12018330489880209  0.0804208947439093  0.6873487283454339  1.0000
  H   H4        1.0  0.879824511644742  0.9195793471822001  0.3126550734788864  1.0000
  H   H5        1.0  0.9271967493622026  0.37871454685632244  0.43484702447626944  1.0000
  H   H6        1.0  0.07280050495189269  0.621293655564905  0.5651513472560625  1.0000
  H   H7        1.0  0.7508736498030472  0.34245372022498805  0.5484157592003811  1.0000
  H   H8        1.0  0.2491295155817638  0.6575592638786179  0.4515834915846143  1.0000
  H   H9        1.0  0.5768389647147955  0.8855905742975311  0.8433330507020714  1.0000
  H   H10       1.0  0.4231652325526484  0.11439841435237949  0.15666809814020877  1.0000
  H   H11       1.0  0.6635617014411038  0.6524280615556748  0.28199031287327603  1.0000
  H   H12       1.0  0.33642332203267955  0.34758018774288496  0.7180060274646963  1.0000
  C   C1        1.0  0.9032916729093543  0.4774243645630706  0.04629909972153712  1.0000
  C   C2        1.0  0.09671048926318798  0.5225646419502326  0.9537021154999226  1.0000
  C   C3        1.0  0.4487738829907287  0.749071653118264  0.8521123134102169  1.0000
  C   C4        1.0  0.5512301825483874  0.2509205523463507  0.1478892842622557  1.0000
  C   C5        1.0  0.685678339759093  0.556866318486584  0.2180243795228165  1.0000
  C   C6        1.0  0.3143086360530559  0.44314347110339714  0.7819700941265568  1.0000
  C   C7        1.0  0.32355234163209445  0.3245872422336689  0.326606855904089  1.0000
  C   C8        1.0  0.6764451136529672  0.6754161450160084  0.6733912475278531  1.0000
  C   C9        1.0  0.0558077365670044  0.7842633235649429  0.11512617876504551  1.0000
  C   C10       1.0  0.9441967528580262  0.21571751249262414  0.8848693936077937  1.0000
  C   C11       1.0  0.877392414103326  0.6050428394124339  0.12757953792500135  1.0000
  C   C12       1.0  0.122586975270309  0.3949542347763637  0.8724166454795395  1.0000
  C   C13       1.0  0.26301200378424733  0.6960863815781693  0.9432288892118592  1.0000
  C   C14       1.0  0.7369881503211814  0.3039027232025902  0.05677563194802101  1.0000
  C   C15       1.0  0.5270721889746639  0.37900544709579254  0.22838107544826164  1.0000
  C   C16       1.0  0.4729274263766854  0.6209946853747681  0.7716157028844963  1.0000
  O   O1        1.0  0.05768812374971329  0.9098298672317783  0.1778951394022954  1.0000
  O   O2        1.0  0.9423219069157297  0.09016728072333541  0.8221138164413164  1.0000
  O   O3        1.0  0.22239285547398419  0.0981162752639122  0.6139422289911849  1.0000
  O   O4        1.0  0.7776106003952847  0.9018903556143414  0.3860593636926525  1.0000
  O   O5        1.0  0.78172569220645  0.2859947790106858  0.47940396718477984  1.0000
  O   O6        1.0  0.21826931928482193  0.7140182363444721  0.5205939293373163  1.0000
  O   O7        1.0  0.19250634223546106  0.47813394493435607  0.35986555713433444  1.0000
  O   O8        1.0  0.807487049616732  0.5218694981431257  0.6401334889457786  1.0000
  O   O9        1.0  0.2917409196034768  0.1255336888625536  0.3659976946241557  1.0000
  O   O10       1.0  0.7082669391549032  0.8744648743026459  0.6340030481707332  1.0000
  O   O11       1.0  0.2423224757575184  0.8195126695053787  0.02328118811755079  1.0000
  O   O12       1.0  0.7576773540787016  0.1804826879956636  0.9767169416944343  1.0000
