data_image0
_chemical_formula_structural       ZnSiH2C8S4N4F8
_chemical_formula_sum              "Zn1 Si1 H2 C8 S4 N4 F8"
_cell_length_a       7.655114730164284
_cell_length_b       8.883322981304648
_cell_length_c       8.883336797228507
_cell_angle_alpha    90.13070447641977
_cell_angle_beta     90.88094678598506
_cell_angle_gamma    90.87898655320042

_space_group_name_H-M_alt    "P 1"
_space_group_IT_number       1

loop_
  _space_group_symop_operation_xyz
  'x, y, z'

loop_
  _atom_site_type_symbol
  _atom_site_label
  _atom_site_symmetry_multiplicity
  _atom_site_fract_x
  _atom_site_fract_y
  _atom_site_fract_z
  _atom_site_occupancy
  Zn  Zn1       1.0  0.4880695279559433  0.49891837056895844  0.4989136758493942  1.0000
  Si  Si1       1.0  0.9837466100685858  0.5152859010606362  0.5152976167877057  1.0000
  H   H1        1.0  0.7559303645364679  0.43069721440567577  0.7808572334040205  1.0000
  H   H2        1.0  0.755923661093334  0.7808625828362139  0.4306703029395462  1.0000
  C   C1        1.0  0.37733497330484767  0.533655646923343  0.15580972108341473  1.0000
  C   C2        1.0  0.631251878014048  0.4609755207094254  0.8306567489607628  1.0000
  C   C3        1.0  0.5899850912600187  0.4737110201878921  0.9854840076087679  1.0000
  C   C4        1.0  0.4167394910268314  0.5201069703357036  0.0018504306920093042  1.0000
  C   C5        1.0  0.3773391967051225  0.15581635704266722  0.5336513069165036  1.0000
  C   C6        1.0  0.6312381796683085  0.8306295117477022  0.4609403146340297  1.0000
  C   C7        1.0  0.5899643019285037  0.9854446760150211  0.47368188036345055  1.0000
  C   C8        1.0  0.4167114017532469  0.0018437837922177995  0.520074647784696  1.0000
  S   S1        1.0  0.6864415828109074  0.4512535584855543  0.16110460272896174  1.0000
  S   S2        1.0  0.3151778068874195  0.540640737487081  0.8312167003646491  1.0000
  S   S3        1.0  0.6864420764568918  0.1610900935324153  0.4512551340349446  1.0000
  S   S4        1.0  0.3151573065403284  0.8312244449146107  0.5406132554984848  1.0000
  N   N1        1.0  0.5032561951880653  0.4988155507890681  0.25154673980502906  1.0000
  N   N2        1.0  0.49660880796707124  0.49318312247787355  0.7402618731450727  1.0000
  N   N3        1.0  0.5032764267530467  0.25154256177498274  0.4988466756685098  1.0000
  N   N4        1.0  0.4965959772297808  0.7402609290987242  0.4931500600484781  1.0000
  F   F1        1.0  0.21807214471169795  0.5353316828009228  0.5353546680142498  1.0000
  F   F2        1.0  0.7539387961705445  0.4888199093160067  0.4888208871553273  1.0000
  F   F3        1.0  0.9771948873385767  0.38394050383606526  0.6531255420815325  1.0000
  F   F4        1.0  0.9772225121124409  0.6531199907775759  0.3839457089539947  1.0000
  F   F5        1.0  0.955821047996821  0.6488461203718003  0.6488432468399807  1.0000
  F   F6        1.0  0.015660031890668287  0.38301595103310865  0.3830649896134303  1.0000
  F   F7        1.0  0.22526717029649754  0.5812834984854334  0.20500199508691705  1.0000
  F   F8        1.0  0.22526192573187132  0.20501102248112354  0.5812839208638252  1.0000
