data_image0
_chemical_formula_structural       Zn4H32C40N32
_chemical_formula_sum              "Zn4 H32 C40 N32"
_cell_length_a       6.469304134611722
_cell_length_b       10.761097014669792
_cell_length_c       16.885
_cell_angle_alpha    96.36533131478838
_cell_angle_beta     95.43528005408803
_cell_angle_gamma    90.47874005841814

_space_group_name_H-M_alt    "P 1"
_space_group_IT_number       1

loop_
  _space_group_symop_operation_xyz
  'x, y, z'

loop_
  _atom_site_type_symbol
  _atom_site_label
  _atom_site_symmetry_multiplicity
  _atom_site_fract_x
  _atom_site_fract_y
  _atom_site_fract_z
  _atom_site_occupancy
  Zn  Zn1       1.0  0.551248462094101  0.1481060067697442  0.24387879727386527  1.0000
  Zn  Zn2       1.0  0.4487502012872044  0.8518926729978276  0.7561203502436342  1.0000
  Zn  Zn3       1.0  0.056081624744322815  0.2685841134593403  0.24573952684298916  1.0000
  Zn  Zn4       1.0  0.9439155154944461  0.7314155015157269  0.7542596314771758  1.0000
  H   H1        1.0  0.7254768261055206  0.1561441152657395  0.4191493778326532  1.0000
  H   H2        1.0  0.2745265547042237  0.8438564349168304  0.5808506652881749  1.0000
  H   H3        1.0  0.22656033541488804  0.3000790965681048  0.4223928537524486  1.0000
  H   H4        1.0  0.7734429861945317  0.6999195831994669  0.577607055060497  1.0000
  H   H5        1.0  0.7919674658043192  0.0027588621364956  0.5217212967395357  1.0000
  H   H6        1.0  0.20803591500542506  0.997241688046074  0.47827874638129236  1.0000
  H   H7        1.0  0.7190992422150446  0.7740198145632818  0.47554871842743307  1.0000
  H   H8        1.0  0.2809010035091363  0.2259798004117854  0.5244505525952761  1.0000
  H   H9        1.0  0.5832713737673245  0.7092089993356794  0.33511781917731304  1.0000
  H   H10       1.0  0.4167258552719347  0.2907934212619026  0.6648815406046682  1.0000
  H   H11       1.0  0.34384877923545804  0.0395938800925109  0.07289083533255791  1.0000
  H   H12       1.0  0.6561498841458544  0.9604047996750538  0.9271077199433081  1.0000
  H   H13       1.0  0.3055011084548199  0.8283188974470762  0.9943989892550534  1.0000
  H   H14       1.0  0.6944975253263268  0.171678847112986  0.005600683350138511  1.0000
  H   H15       1.0  0.3915640617786452  0.6384829966459264  0.0663647986893778  1.0000
  H   H16       1.0  0.6084330192597989  0.3615147479141356  0.9336365942894461  1.0000
  H   H17       1.0  0.5097939624762874  0.6684881942009753  0.21131635022972972  1.0000
  H   H18       1.0  0.4902016250197789  0.331511420774099  0.7886827517391595  1.0000
  H   H19       1.0  0.0295593018809015  0.7446982536935849  0.23976256103185287  1.0000
  H   H20       1.0  0.9704409438432722  0.2553013612814894  0.7602384867157639  1.0000
  H   H21       1.0  0.8916620829506883  0.74278014310309  0.09740258407123291  1.0000
  H   H22       1.0  0.10833669883128043  0.2572222774944919  0.9025992010285651  1.0000
  H   H23       1.0  0.7927038659967921  0.5373608796644902  0.016153155269130106  1.0000
  H   H24       1.0  0.20730112675597925  0.46264154093309173  0.9838464862692149  1.0000
  H   H25       1.0  0.8522285542553903  0.339517732214965  0.08190426252581062  1.0000
  H   H26       1.0  0.1477764088972151  0.6604837531751144  0.9180953118585934  1.0000
  H   H27       1.0  0.10722870534457483  0.7315398841137437  0.3613193066515166  1.0000
  H   H28       1.0  0.8927730635221423  0.2684587956538209  0.638681138051794  1.0000
  H   H29       1.0  0.24463215305749492  0.6966987285560435  0.5000294480531622  1.0000
  H   H30       1.0  0.755368033466354  0.3032990160040185  0.4999696886616648  1.0000
  H   H31       1.0  0.3055667624260466  0.4782520245881514  0.5336373960287376  1.0000
  H   H32       1.0  0.694436588783532  0.5217475903869229  0.4663625799381492  1.0000
  C   C1        1.0  0.6954091675799958  0.05600490137090469  0.4046615673517167  1.0000
  C   C2        1.0  0.3045942132297483  0.9439956488116721  0.595338475769111  1.0000
  C   C3        1.0  0.2020323614209261  0.3978746804581732  0.41342308351242  1.0000
  C   C4        1.0  0.7979725129311959  0.6021239993093985  0.5865762894101607  1.0000
  C   C5        1.0  0.7325489042960316  0.9706397105977089  0.4602179775735849  1.0000
  C   C6        1.0  0.267454446913554  0.029359904377358203  0.5397825906349355  1.0000
  C   C7        1.0  0.6915540403294217  0.844383891949029  0.4343316132285509  1.0000
  C   C8        1.0  0.30844778773762027  0.1556166582335408  0.5656683735410013  1.0000
  C   C9        1.0  0.6150212016031348  0.8076975719861395  0.3553528308605679  1.0000
  C   C10       1.0  0.38498062646390724  0.1923029781964374  0.6446471559089916  1.0000
  C   C11       1.0  0.5799805154086215  0.8994386224959784  0.303249782934664  1.0000
  C   C12       1.0  0.4200182367731742  0.10056286289410112  0.6967507505279188  1.0000
  C   C13       1.0  0.4983192233373829  0.8709531371347623  0.21811177310787852  1.0000
  C   C14       1.0  0.5016763641586836  0.129046477840312  0.7818873288610177  1.0000
  C   C15       1.0  0.3820567233817869  0.955158285578193  0.10103970267856968  1.0000
  C   C16       1.0  0.6179434927422278  0.0448403941893787  0.8989595011901983  1.0000
  C   C17       1.0  0.3588413396973565  0.8369171952379163  0.05791241179627352  1.0000
  C   C18       1.0  0.6411557413410878  0.163080549322153  0.9420866122160092  1.0000
  C   C19       1.0  0.40543884102860533  0.7326583922884069  0.09784770162705311  1.0000
  C   C20       1.0  0.5945567464674612  0.2673412226866674  0.9021519925834769  1.0000
  C   C21       1.0  0.4734152845866291  0.749304150650282  0.17927997948277155  1.0000
  C   C22       1.0  0.5265803029094442  0.2506954643247923  0.8207197147277512  1.0000
  C   C23       1.0  0.0134324461389426  0.5423792031304018  0.23578326637409933  1.0000
  C   C24       1.0  0.9865662468425358  0.45762041184466545  0.7642165405389749  1.0000
  C   C25       1.0  0.9890482249155995  0.6560836018692768  0.20349808078811554  1.0000
  C   C26       1.0  0.010952050408739901  0.3439169483133  0.7965030341134353  1.0000
  C   C27       1.0  0.9114439900803646  0.6548173309089975  0.12349185431138208  1.0000
  C   C28       1.0  0.0885563148441335  0.3451841544810819  0.8765087355024692  1.0000
  C   C29       1.0  0.858624865432539  0.5409202794243271  0.07813430438103103  1.0000
  C   C30       1.0  0.14137543949196643  0.45908120596575236  0.9218656931911867  1.0000
  C   C31       1.0  0.8895585058669085  0.4315168999958773  0.11431381752692003  1.0000
  C   C32       1.0  0.110443381400458  0.5684855206017048  0.8856863035505145  1.0000
  C   C33       1.0  0.09346942089354122  0.5329869141687595  0.31987207900870374  1.0000
  C   C34       1.0  0.9065292128876052  0.46701083039130253  0.6801275935964812  1.0000
  C   C35       1.0  0.1341211942173999  0.6371194641052398  0.377022016938156  1.0000
  C   C36       1.0  0.8658805450491516  0.3628782804548223  0.6229777683695801  1.0000
  C   C37       1.0  0.21138173871670327  0.6176662128166654  0.45430510583932465  1.0000
  C   C38       1.0  0.788620000549848  0.3823315317433966  0.5456940872267779  1.0000
  C   C39       1.0  0.2462198173064039  0.49622110156803956  0.4734817225136113  1.0000
  C   C40       1.0  0.7537835043030088  0.5037775781995322  0.5265181862993346  1.0000
  N   N1        1.0  0.3249727665537065  0.24723052052284802  0.18075909031595933  1.0000
  N   N2        1.0  0.6750258968276059  0.7527681592447166  0.8192406494431737  1.0000
  N   N3        1.0  0.3668629368902643  0.3182267981812359  0.1334574679590332  1.0000
  N   N4        1.0  0.633134321749161  0.6817765576238557  0.8665455124266972  1.0000
  N   N5        1.0  0.620892800255831  0.0212638130161196  0.3286396358897933  1.0000
  N   N6        1.0  0.379105951925972  0.9787376723739599  0.6713597130895226  1.0000
  N   N7        1.0  0.45218994855839173  0.971510388783841  0.17869473963747853  1.0000
  N   N8        1.0  0.5478056389376819  0.0284892261912333  0.8213043623314108  1.0000
  N   N9        1.0  0.8240212672288865  0.1530906627655142  0.17950076772287824  1.0000
  N   N10       1.0  0.17597742575258482  0.846908952209553  0.8204984469485554  1.0000
  N   N11       1.0  0.18515503506293382  0.1396133874268486  0.3175579636780697  1.0000
  N   N12       1.0  0.8148405524331395  0.8603862275482186  0.6824417305324604  1.0000
  N   N13       1.0  0.1364022937140348  0.0320860342512219  0.318655919556413  1.0000
  N   N14       1.0  0.8635979520101388  0.9679135807238524  0.6813463126744708  1.0000
  N   N15       1.0  0.09696836025391783  0.9266017244466768  0.3221539261076671  1.0000
  N   N16       1.0  0.9030365140982044  0.073396955320888  0.6778507769896295  1.0000
  N   N17       1.0  0.9656704941085081  0.4321434890234883  0.19079220288031715  1.0000
  N   N18       1.0  0.0343281988729629  0.5678561259515789  0.8092070117911165  1.0000
  N   N19       1.0  0.12711308067110144  0.4159456950559814  0.3390132901269283  1.0000
  N   N20       1.0  0.87288865859545  0.5840520495040806  0.6609864951808078  1.0000
  N   N21       1.0  0.675914264933738  0.2981993294852643  0.3214602438032585  1.0000
  N   N22       1.0  0.32408756313330406  0.7018012206973054  0.678537966241386  1.0000
  N   N23       1.0  0.6262496044702248  0.4040124473062505  0.3144698689501197  1.0000
  N   N24       1.0  0.37375219399665144  0.5959871676688167  0.6855288661822315  1.0000
  N   N25       1.0  0.5831506125802548  0.5083750582886921  0.3094198423123657  1.0000
  N   N26       1.0  0.4168496923442505  0.4916264271013873  0.6905795630182254  1.0000
  N   N27       1.0  0.40418671439542914  0.3858451063355375  0.08740853681156582  1.0000
  N   N28       1.0  0.5958091987024403  0.6141647959220791  0.9125966340253768  1.0000
  N   N29       1.0  0.8627472740622937  0.06122335924265341  0.1350061056947069  1.0000
  N   N30       1.0  0.13724992537679984  0.938778126147426  0.8649925946916994  1.0000
  N   N31       1.0  0.8929227239268018  0.9735940311025217  0.09131413998552773  1.0000
  N   N32       1.0  0.10706978768402563  0.026406519080048  0.9086831397098578  1.0000
