data_image0
_chemical_formula_structural       Sm2P2H38C48N2O16
_chemical_formula_sum              "Sm2 P2 H38 C48 N2 O16"
_cell_length_a       10.66840471165422
_cell_length_b       11.949046037597556
_cell_length_c       14.516683575039172
_cell_angle_alpha    74.08866763712028
_cell_angle_beta     74.59782167866943
_cell_angle_gamma    63.841753054566816

_space_group_name_H-M_alt    "P 1"
_space_group_IT_number       1

loop_
  _space_group_symop_operation_xyz
  'x, y, z'

loop_
  _atom_site_type_symbol
  _atom_site_label
  _atom_site_symmetry_multiplicity
  _atom_site_fract_x
  _atom_site_fract_y
  _atom_site_fract_z
  _atom_site_occupancy
  Sm  Sm1       1.0  0.9953631962194293  0.5475184563137532  0.627099140707557  1.0000
  Sm  Sm2       1.0  0.00463746431846352  0.45247726849444075  0.37290387808165804  1.0000
  P   P1        1.0  0.146161269186777  0.7141888224810558  0.7322189512149464  1.0000
  P   P2        1.0  0.8538349979850749  0.2858033122256245  0.26778513393548314  1.0000
  H   H1        1.0  0.49532332881936003  0.6345709906138592  0.4369156605715078  1.0000
  H   H2        1.0  0.5046729015429962  0.36542583030613657  0.5630852892004088  1.0000
  H   H3        1.0  0.9500919784504446  0.8927765255020288  0.6106678017470629  1.0000
  H   H4        1.0  0.04991553189221071  0.1072134236031488  0.3893240664665855  1.0000
  H   H5        1.0  0.2558313212542984  0.6754367596270823  0.5400610892028013  1.0000
  H   H6        1.0  0.7441676049685456  0.32456088835599667  0.45994254463590784  1.0000
  H   H7        1.0  0.9620128927942134  0.8351879215608021  0.8928997155108436  1.0000
  H   H8        1.0  0.03794490104237979  0.16481587175211843  0.10709055282563183  1.0000
  H   H9        1.0  0.6659084414060389  0.6030095537240425  0.6846130614803985  1.0000
  H   H10       1.0  0.3340942901807295  0.3969833094309364  0.31538810824960717  1.0000
  H   H11       1.0  0.42879552057483755  0.6495449723503695  0.7865705717583256  1.0000
  H   H12       1.0  0.5712074220974159  0.35044039451540937  0.21343434163019745  1.0000
  H   H13       1.0  0.19435708622403078  0.9056044485736902  0.7985063825364664  1.0000
  H   H14       1.0  0.8056608424904397  0.09437205810535688  0.20148843133143407  1.0000
  H   H15       1.0  0.2762370329134427  0.40042521655878716  0.03155982253210252  1.0000
  H   H16       1.0  0.7237426054216062  0.5996038609338112  0.9684510185740369  1.0000
  H   H17       1.0  0.9233883190825056  0.7516801810282412  0.07160560437745297  1.0000
  H   H18       1.0  0.0765518908267566  0.24832329235896816  0.9283822625034832  1.0000
  H   H19       1.0  0.8769831615938912  0.1277506852065642  0.5509873815523534  1.0000
  H   H20       1.0  0.1230325238140324  0.8722436303051067  0.44900864214559283  1.0000
  H   H21       1.0  0.1097321587077928  0.14172317238219986  0.743766284252196  1.0000
  H   H22       1.0  0.8902878167275363  0.8582532554801073  0.25623018112921175  1.0000
  H   H23       1.0  0.30869316292395865  0.47648826684812917  0.851600479760748  1.0000
  H   H24       1.0  0.6913046676319113  0.523522448456248  0.148410721874022  1.0000
  H   H25       1.0  0.6657193273569889  0.801585000179571  0.7381907171093403  1.0000
  H   H26       1.0  0.33429149385789714  0.19842628348194313  0.26180588677821254  1.0000
  H   H27       1.0  0.7029427933047644  0.08006259587295969  0.5235648335954082  1.0000
  H   H28       1.0  0.2970730559159876  0.919942950043186  0.47642513148215226  1.0000
  H   H29       1.0  0.5568355439060895  0.0707495741161281  0.4944233252050482  1.0000
  H   H30       1.0  0.44317364229574696  0.9292608362640918  0.5055724475856496  1.0000
  H   H31       1.0  0.727981736790568  0.940538215075392  0.48566797017267765  1.0000
  H   H32       1.0  0.272023891970683  0.059468599844180396  0.5143245586700831  1.0000
  H   H33       1.0  0.3983740484167556  0.06541095485719949  0.6588702291106828  1.0000
  H   H34       1.0  0.6016468334814391  0.93461210360347  0.34112980773373647  1.0000
  H   H35       1.0  0.5085809795691318  0.11978155595110002  0.6917229603388861  1.0000
  H   H36       1.0  0.4914544009978031  0.8802270275302105  0.308272503854063  1.0000
  H   H37       1.0  0.48574862383668477  0.9793015637736313  0.7614351334144019  1.0000
  H   H38       1.0  0.51427359182361  0.020713063640172894  0.23856173315209625  1.0000
  C   C1        1.0  0.13957774683137805  0.6618696261157595  0.8611347444886521  1.0000
  C   C2        1.0  0.8604076645778349  0.3381303271446327  0.13887329149425645  1.0000
  C   C3        1.0  0.477894867506599  0.6400695942371896  0.5132708929086292  1.0000
  C   C4        1.0  0.5221056680746515  0.3599261532704998  0.4867287018366469  1.0000
  C   C5        1.0  0.07678315248107029  0.8853571335379725  0.7075466262801698  1.0000
  C   C6        1.0  0.9232252944156798  0.11463557034507227  0.2924478562409761  1.0000
  C   C7        1.0  0.32666010842388726  0.6680104696414016  0.6691713248809708  1.0000
  C   C8        1.0  0.6733398898012196  0.33197967215345153  0.3308324271158939  1.0000
  C   C9        1.0  0.9846003757864497  0.9479386885308255  0.6394149927442002  1.0000
  C   C10       1.0  0.015408233568123798  0.05205588694976631  0.3605776474872258  1.0000
  C   C11       1.0  0.3451515617681125  0.6630954667686381  0.5706148909597175  1.0000
  C   C12       1.0  0.6548504331951933  0.33689460528928084  0.4293891429330827  1.0000
  C   C13       1.0  0.5935917952363428  0.6205327229138148  0.5531849319528916  1.0000
  C   C14       1.0  0.40640645550054433  0.379454664922406  0.4468212008544087  1.0000
  C   C15       1.0  0.030707420167502223  0.7397349719746058  0.9230878270434532  1.0000
  C   C16       1.0  0.9692569998501457  0.260264840873802  0.07690608529504321  1.0000
  C   C17       1.0  0.5755823294404011  0.6228978479409617  0.6520096998414645  1.0000
  C   C18       1.0  0.4244173570422235  0.3770932277923364  0.34799597097389784  1.0000
  C   C19       1.0  0.44206070471199166  0.6478173771069391  0.7097315719977433  1.0000
  C   C20       1.0  0.5579397545402642  0.3521690252135059  0.29027018465184545  1.0000
  C   C21       1.0  0.12257685840582885  0.9544656103565781  0.7454968185407368  1.0000
  C   C22       1.0  0.8774367789262385  0.045519425164883394  0.254501769974361  1.0000
  C   C23       1.0  0.09846967308320137  0.5723350112240763  0.06157306500761453  1.0000
  C   C24       1.0  0.9014891967639327  0.4276817478939207  0.9384298466823612  1.0000
  C   C25       1.0  0.06972397892337771  0.5270208294300358  0.16914046938008204  1.0000
  C   C26       1.0  0.9302475086744124  0.4730010988195799  0.8308627156690491  1.0000
  C   C27       1.0  0.20818867940133165  0.49527588919857357  3.502133980502133e-05  1.0000
  C   C28       1.0  0.7917855089138329  0.5047406111790591  0.9999765908120397  1.0000
  C   C29       1.0  0.009383885492873403  0.6943108084470068  0.022420284829799266  1.0000
  C   C30       1.0  0.9905679819482601  0.30570064042704087  0.9775729270570112  1.0000
  C   C31       1.0  0.989503686686504  0.14731221870972888  0.6439370083686528  1.0000
  C   C32       1.0  0.010513308818822559  0.8526792268881562  0.35606353100558863  1.0000
  C   C33       1.0  0.9430925205125505  0.07811758843961056  0.6071793223366982  1.0000
  C   C34       1.0  0.05691890965914585  0.9218777914045757  0.3928194260054597  1.0000
  C   C35       1.0  0.07684972415462  0.08530998129666047  0.7151023090675965  1.0000
  C   C36       1.0  0.9231706018510054  0.9146729635174253  0.28489534192466  1.0000
  C   C37       1.0  0.9556360030522982  0.28559720308764003  0.6017420514478361  1.0000
  C   C38       1.0  0.04438494842825242  0.7143922087393405  0.398264318051929  1.0000
  C   C39       1.0  0.735329409080471  0.5911151417834901  0.48908360204966794  1.0000
  C   C40       1.0  0.26467319887628094  0.40888330066415063  0.510922514399411  1.0000
  C   C41       1.0  0.22734858606985148  0.538588854892687  0.8999204463409499  1.0000
  C   C42       1.0  0.7726410319195623  0.4614155997081679  0.10009186614318115  1.0000
  C   C43       1.0  0.7006388282527427  0.8372036343129917  0.6613264730189102  1.0000
  C   C44       1.0  0.29939586302012333  0.1627910358051139  0.3386564834284017  1.0000
  C   C45       1.0  0.6534418715870487  0.015293331184160798  0.526707824524337  1.0000
  C   C46       1.0  0.34656931068966673  0.9847142311625346  0.47328404478078334  1.0000
  C   C47       1.0  0.49609708480549125  0.03464787932146151  0.6878894939221782  1.0000
  C   C48       1.0  0.5039247191470013  0.9653677001903769  0.3121065522276681  1.0000
  N   N1        1.0  0.6177334474187788  0.9571133104011408  0.6266591884151326  1.0000
  N   N2        1.0  0.3822727443532585  0.0429018839879518  0.37333405336632824  1.0000
  O   O1        1.0  0.9441164624315306  0.5779956870649909  0.21325857074736387  1.0000
  O   O2        1.0  0.05586031556690332  0.42201855466344534  0.7867514595308693  1.0000
  O   O3        1.0  0.7483045790825998  0.5731014423851235  0.40421909524373945  1.0000
  O   O4        1.0  0.25170303119700327  0.42688468634670323  0.5957880992987229  1.0000
  O   O5        1.0  0.9221718960402684  0.32334637873280764  0.5173248684305422  1.0000
  O   O6        1.0  0.07783988334671932  0.676646159256215  0.48267928185313025  1.0000
  O   O7        1.0  0.16993478706768173  0.439897351932565  0.21287405447893804  1.0000
  O   O8        1.0  0.8300475833023883  0.5601288903269648  0.7871258335973367  1.0000
  O   O9        1.0  0.9677958697020869  0.3505763786666307  0.6521351501383281  1.0000
  O   O10       1.0  0.03221973934848426  0.649404789444034  0.347875622557588  1.0000
  O   O11       1.0  0.8410740776923902  0.580737063618514  0.5213966905233391  1.0000
  O   O12       1.0  0.15891766000192584  0.41925896365614773  0.47860677175614824  1.0000
  O   O13       1.0  0.06343919281543013  0.6700214099796895  0.6916505053499408  1.0000
  O   O14       1.0  0.9365629771155569  0.32997243251270447  0.3083457351106986  1.0000
  O   O15       1.0  0.808362255382079  0.7702824660614168  0.6116214577229115  1.0000
  O   O16       1.0  0.19161980122719058  0.22973257303302563  0.3883803801210349  1.0000
