data_image0
_chemical_formula_structural       Ag4H12C8N24O8
_chemical_formula_sum              "Ag4 H12 C8 N24 O8"
_cell_length_a       6.601654601043732
_cell_length_b       8.435374608002716
_cell_length_c       10.748584425697699
_cell_angle_alpha    89.99997594785891
_cell_angle_beta     104.51721376436087
_cell_angle_gamma    90.0000961096467

_space_group_name_H-M_alt    "P 1"
_space_group_IT_number       1

loop_
  _space_group_symop_operation_xyz
  'x, y, z'

loop_
  _atom_site_type_symbol
  _atom_site_label
  _atom_site_symmetry_multiplicity
  _atom_site_fract_x
  _atom_site_fract_y
  _atom_site_fract_z
  _atom_site_occupancy
  Ag  Ag1       1.0  0.21655905537706843  0.06061023283980661  0.5341557929667287  1.0000
  Ag  Ag2       1.0  0.28344123375784147  0.5606106169175294  0.46584355437887115  1.0000
  Ag  Ag3       1.0  0.7834398166355501  0.9393908177354363  0.46584325190731585  1.0000
  Ag  Ag4       1.0  0.7165592336416822  0.43938924817442176  0.5341575876033103  1.0000
  H   H1        1.0  0.2559322386544665  0.0383209385356977  0.0027692306489087107  1.0000
  H   H2        1.0  0.24406800483247076  0.5383221636437555  0.9972301168492377  1.0000
  H   H3        1.0  0.7440697626645587  0.9616777410739418  0.9972302777371237  1.0000
  H   H4        1.0  0.7559293486262819  0.4616788869297395  0.0027714942970292335  1.0000
  H   H5        1.0  0.11420036610043383  0.8572693900461845  0.9603686279701048  1.0000
  H   H6        1.0  0.3857989659425486  0.35726950811749003  0.039630485589178505  1.0000
  H   H7        1.0  0.8858016198529485  0.14273047504750744  0.0396299477398543  1.0000
  H   H8        1.0  0.6141968074925046  0.6427291714876303  0.9603699611250391  1.0000
  H   H9        1.0  0.39371001627535673  0.8554939874332138  0.006582080262113326  1.0000
  H   H10       1.0  0.10628929676501289  0.3554943867300794  0.993416100633247  1.0000
  H   H11       1.0  0.6062919850436685  0.144504692176433  0.9934174281239265  1.0000
  H   H12       1.0  0.8937064459363386  0.6445042928755312  0.006582480728823732  1.0000
  C   C1        1.0  0.24142142429311528  0.007557557698064001  0.24464240364452644  1.0000
  C   C2        1.0  0.2585803054764214  0.5075577494386395  0.7553562431440921  1.0000
  C   C3        1.0  0.7585789970058486  0.9924423073946189  0.7553559403094494  1.0000
  C   C4        1.0  0.7414201465574594  0.49244330113735674  0.24464396616201606  1.0000
  C   C5        1.0  0.2537135398307271  0.9116146904247842  0.0232265274081769  1.0000
  C   C6        1.0  0.2462858881447403  0.41161410505930013  0.9767716531030999  1.0000
  C   C7        1.0  0.746288446122655  0.0883851746689075  0.9767720483017894  1.0000
  C   C8        1.0  0.7537114192110225  0.5883845745473195  0.023227160014961605  1.0000
  N   N1        1.0  0.2555227709581871  0.9327470345777016  0.3576476440998632  1.0000
  N   N2        1.0  0.24447826495126182  0.43274662957868054  0.6423507680227728  1.0000
  N   N3        1.0  0.7444776657076276  0.0672528305147395  0.6423516325301788  1.0000
  N   N4        1.0  0.755522187081404  0.5672532355135118  0.3576494412833426  1.0000
  N   N5        1.0  0.25207259407558524  0.8931969762715684  0.15714993614746928  1.0000
  N   N6        1.0  0.24792836083459954  0.3931964663762598  0.842848476245848  1.0000
  N   N7        1.0  0.7479278425902366  0.106802888820873  0.8428493404825729  1.0000
  N   N8        1.0  0.7520720758312152  0.6068033987161813  0.15715080038419413  1.0000
  N   N9        1.0  0.1985331744760828  0.15868775716111122  0.20354307364976876  1.0000
  N   N10       1.0  0.3014704601987148  0.6586879851657699  0.7964576692126425  1.0000
  N   N11       1.0  0.8014704068654199  0.8413121079330994  0.7964575991683275  1.0000
  N   N12       1.0  0.6985315718552272  0.34131187992719003  0.20354370452552217  1.0000
  N   N13       1.0  0.27076482488401155  0.7754760279207674  0.33343543725072766  1.0000
  N   N14       1.0  0.2292343550111227  0.2754755888085684  0.6665646095444158  1.0000
  N   N15       1.0  0.7292340624954577  0.2245250226542268  0.66656454029939  1.0000
  N   N16       1.0  0.7707645477351975  0.7245254617661843  0.3334363006817681  1.0000
  N   N17       1.0  0.2642450113636627  0.2741835391336522  0.2872244538777338  1.0000
  N   N18       1.0  0.2357572951939062  0.7741837228994086  0.7127760564382368  1.0000
  N   N19       1.0  0.7357570053234214  0.7258163259595491  0.712775987184372  1.0000
  N   N20       1.0  0.7642463015156695  0.2258173276783708  0.2872255490559183  1.0000
  N   N21       1.0  0.26990068467547706  0.7504339000723094  0.21391759471467245  1.0000
  N   N22       1.0  0.23009686391163342  0.2504333967969359  0.7860812878198046  1.0000
  N   N23       1.0  0.7300966226815009  0.24956596501811396  0.7860812184033887  1.0000
  N   N24       1.0  0.7699004588134175  0.7495676537770493  0.213918457974323  1.0000
  O   O1        1.0  0.19987652396079625  0.4122224245292898  0.25228283623184916  1.0000
  O   O2        1.0  0.3001276606896326  0.9122214918585599  0.7477197702475207  1.0000
  O   O3        1.0  0.8001270881144223  0.5877774405644304  0.7477197019383863  1.0000
  O   O4        1.0  0.6998775006731462  0.08777837323641792  0.2522820670026319  1.0000
  O   O5        1.0  0.3887689192892837  0.25033521666656366  0.39695228791824627  1.0000
  O   O6        1.0  0.11123333842763831  0.7503364753773808  0.6030482225609359  1.0000
  O   O7        1.0  0.6112330973965926  0.7496634629428343  0.6030481531438524  1.0000
  O   O8        1.0  0.8887702582831453  0.24966576068420215  0.39695338293321913  1.0000
