data_image0
_chemical_formula_structural       ZnSiH20C24N4F6
_chemical_formula_sum              "Zn1 Si1 H20 C24 N4 F6"
_cell_length_a       7.81692376022697
_cell_length_b       13.73696399282596
_cell_length_c       13.737013110065547
_cell_angle_alpha    89.68555673263083
_cell_angle_beta     85.96586494588718
_cell_angle_gamma    85.9666536604868

_space_group_name_H-M_alt    "P 1"
_space_group_IT_number       1

loop_
  _space_group_symop_operation_xyz
  'x, y, z'

loop_
  _atom_site_type_symbol
  _atom_site_label
  _atom_site_symmetry_multiplicity
  _atom_site_fract_x
  _atom_site_fract_y
  _atom_site_fract_z
  _atom_site_occupancy
  Zn  Zn1       1.0  0.5000057830154817  0.49999964035191624  0.49999992573948754  1.0000
  Si  Si1       1.0  1.5742424466059116e-06  0.500000746545858  0.4999968131308137  1.0000
  H   H1        1.0  0.25489983657449494  0.4999412104802802  0.3347911401656063  1.0000
  H   H2        1.0  0.26447025693924786  0.49996305069780067  0.15512781975839124  1.0000
  H   H3        1.0  0.8182306041334684  0.5000367830818746  0.1532892787668558  1.0000
  H   H4        1.0  0.7864157900961217  0.5000413799285184  0.3345486233589341  1.0000
  H   H5        1.0  0.18173589082419284  0.4999647203327413  0.8466991689078328  1.0000
  H   H6        1.0  0.7354965693666815  0.5000347977988469  0.8448781043619036  1.0000
  H   H7        1.0  0.745100583340239  0.5000544262639579  0.6652164317570879  1.0000
  H   H8        1.0  0.2135891578537822  0.4999600974934992  0.6654420049942402  1.0000
  H   H9        1.0  0.6970233812060229  0.5000137272608853  0.999480294060689  1.0000
  H   H10       1.0  0.30293024154993026  0.4999877818680361  0.0005159217329619973  1.0000
  H   H11       1.0  0.2549003164847434  0.33479101115433707  0.49994259724446277  1.0000
  H   H12       1.0  0.26447218024824076  0.15512825515557438  0.4999627284252739  1.0000
  H   H13       1.0  0.8182294618607527  0.15329020208709918  0.5000380000493507  1.0000
  H   H14       1.0  0.7864196816597869  0.33454955277299797  0.5000430355412036  1.0000
  H   H15       1.0  0.1817335695576503  0.8466967034106788  0.499967393577549  1.0000
  H   H16       1.0  0.7354948921552165  0.8448783512729461  0.5000387757810998  1.0000
  H   H17       1.0  0.7450972802364574  0.665217765306956  0.5000562820458256  1.0000
  H   H18       1.0  0.21358668550756485  0.6654395137562261  0.49996143092092643  1.0000
  H   H19       1.0  0.6970225888664814  0.9994798783826155  0.5000148485772584  1.0000
  H   H20       1.0  0.3029290289838825  0.0005165207183779  0.4999909318126258  1.0000
  C   C1        1.0  0.377512186931682  0.4999728665208778  0.2919947049247327  1.0000
  C   C2        1.0  0.3844975633765628  0.49998850507159176  0.190859762174  1.0000
  C   C3        1.0  0.5441141626305068  0.500036349735204  0.1367426100145011  1.0000
  C   C4        1.0  0.6904062946630419  0.5000644660012625  0.19061964625739597  1.0000
  C   C5        1.0  0.673944128704342  0.5000272117648378  0.2920495458153383  1.0000
  C   C6        1.0  0.5641776401780803  0.5000167592206138  0.030459833176713903  1.0000
  C   C7        1.0  0.4357782768702734  0.4999869373166704  0.969537012829079  1.0000
  C   C8        1.0  0.30957506459535017  0.4999304581413497  0.8093748211508043  1.0000
  C   C9        1.0  0.4558531012129023  0.4999687979120182  0.8632567101573869  1.0000
  C   C10       1.0  0.6154802735910608  0.5000137146260855  0.8091457227426915  1.0000
  C   C11       1.0  0.6224766481119488  0.5000235099402772  0.708006023372988  1.0000
  C   C12       1.0  0.3260461290139887  0.49996843688344944  0.707943124430372  1.0000
  C   C13       1.0  0.37751339154228003  0.29199543189653093  0.4999726176902897  1.0000
  C   C14       1.0  0.3844991474954397  0.1908593749568155  0.49998900355454623  1.0000
  C   C15       1.0  0.5441160227790647  0.13674357765223988  0.5000364365302374  1.0000
  C   C16       1.0  0.6904080971684651  0.1906214489221867  0.5000641657292206  1.0000
  C   C17       1.0  0.6739476322820012  0.2920519648017006  0.5000273606491632  1.0000
  C   C18       1.0  0.5641797330099935  0.0304603235644336  0.5000191712061834  1.0000
  C   C19       1.0  0.4357741651088174  0.9695382621863756  0.4999894238274365  1.0000
  C   C20       1.0  0.30957332742465127  0.8093727441862625  0.4999339425968756  1.0000
  C   C21       1.0  0.4558491474507633  0.8632571897369842  0.49997244803932267  1.0000
  C   C22       1.0  0.6154770474200505  0.809145764391978  0.5000172573798167  1.0000
  C   C23       1.0  0.6224745938186516  0.7080082442866314  0.5000222834709193  1.0000
  C   C24       1.0  0.3260440386512968  0.7079422209539744  0.4999725427643043  1.0000
  N   N1        1.0  0.51974707994993  0.4999968138415482  0.3424681659376603  1.0000
  N   N2        1.0  0.48025339138600043  0.4999988256840241  0.6575313964024971  1.0000
  N   N3        1.0  0.5197486086066548  0.34246821206744466  0.4999976813259295  1.0000
  N   N4        1.0  0.4802540823376447  0.6575303453949602  0.5000003265962079  1.0000
  F   F1        1.0  0.22565304364769634  0.49997823011800335  0.49997840203020155  1.0000
  F   F2        1.0  0.7743482153830213  0.5000217892256061  0.5000152852996393  1.0000
  F   F3        1.0  6.686599256534103e-06  0.5877816103970301  0.4122170702039157  1.0000
  F   F4        1.0  0.9999918392737472  0.4122198706406834  0.5877752577771318  1.0000
  F   F5        1.0  0.0215717810401941  0.4122615800404788  0.4122553862605329  1.0000
  F   F6        1.0  0.9784305924693586  0.58773989852439  0.587736795716431  1.0000
