data_image0
_chemical_formula_structural       Zr6H25C52Cl5O32
_chemical_formula_sum              "Zr6 H25 C52 Cl5 O32"
_cell_length_a       14.796783829468621
_cell_length_b       14.787250599906637
_cell_length_c       14.786482459247239
_cell_angle_alpha    59.9938632664689
_cell_angle_beta     59.97251972813444
_cell_angle_gamma    60.05976769779101

_space_group_name_H-M_alt    "P 1"
_space_group_IT_number       1

loop_
  _space_group_symop_operation_xyz
  'x, y, z'

loop_
  _atom_site_type_symbol
  _atom_site_label
  _atom_site_symmetry_multiplicity
  _atom_site_fract_x
  _atom_site_fract_y
  _atom_site_fract_z
  _atom_site_occupancy
  Zr  Zr1       1.0  0.8783406277724948  0.8827676447753138  0.621368586251215  1.0000
  Zr  Zr2       1.0  0.12005871278091716  0.11920681036787775  0.38448642048012266  1.0000
  Zr  Zr3       1.0  0.11607270314424757  0.8799326377932176  0.6246836838772651  1.0000
  Zr  Zr4       1.0  0.8800478358302043  0.12162336492833249  0.3821058424778557  1.0000
  Zr  Zr5       1.0  0.11866921896507408  0.883023649471234  0.3820014452101361  1.0000
  Zr  Zr6       1.0  0.8792467780374978  0.12249705716815386  0.6207545321331337  1.0000
  H   H1        1.0  0.09181496565488333  0.7190351434749545  0.5956197284243175  1.0000
  H   H2        1.0  0.09639407659874878  0.09382289803900079  0.22012109187194542  1.0000
  H   H3        1.0  0.09213897743877898  0.0940752012728154  0.5990845476868644  1.0000
  H   H4        1.0  0.7165968479506332  0.0970606712789531  0.5948333812239285  1.0000
  H   H5        1.0  0.8318212703631855  0.6065418465762704  0.6201157861354502  1.0000
  H   H6        1.0  0.14358213641751413  0.5937736771553758  0.35483559085599126  1.0000
  H   H7        1.0  0.8415288245296679  0.4348316547230977  0.6145542089719811  1.0000
  H   H8        1.0  0.5872501626385752  0.8491521012071388  0.9289488326378147  1.0000
  H   H9        1.0  0.5931224277338316  0.14340807760985544  0.915081321748559  1.0000
  H   H10       1.0  0.41887549290348836  0.8554795597567022  0.09980422067056345  1.0000
  H   H11       1.0  0.1447460371005959  0.8595621337569525  0.0799657909926382  1.0000
  H   H12       1.0  0.8276399862193029  0.11615823260093788  0.12157839113712036  1.0000
  H   H13       1.0  0.13481517414334773  0.8657616603229104  0.9121909312470747  1.0000
  H   H14       1.0  0.58666514875528  0.42963873107175493  0.6388076139911902  1.0000
  H   H15       1.0  0.5921699163011027  0.41490816283285886  0.353030793335826  1.0000
  H   H16       1.0  0.416530171515362  0.5980954837099405  0.6319875290036022  1.0000
  H   H17       1.0  0.9664253335630731  0.5792804133839554  0.7455838855450027  1.0000
  H   H18       1.0  0.9536366181160569  0.417302917552604  0.750915644392272  1.0000
  H   H19       1.0  0.9718200717591472  0.2408770557564779  0.07995629235213647  1.0000
  H   H20       1.0  0.9560393409264166  0.24734831309897481  0.9190857050976929  1.0000
  H   H21       1.0  0.04439531325746761  0.47912128968440026  0.14987943563249223  1.0000
  H   H22       1.0  0.04127833985344128  0.6495293018065454  0.9815916501238675  1.0000
  H   H23       1.0  0.5856462305583036  0.1367605660867924  0.3489162116055128  1.0000
  H   H24       1.0  0.5966761653163314  0.8498966182097689  0.6425518535236135  1.0000
  H   H25       1.0  0.4165242994259016  0.12605840165429066  0.35943783000973173  1.0000
  C   C1        1.0  0.9909165148537868  0.7058325124109641  0.4947895666928447  1.0000
  C   C2        1.0  0.3082027125945853  0.9998565944452622  0.20343247318564275  1.0000
  C   C3        1.0  0.9980518827844592  0.31088154150451425  0.4925935318072804  1.0000
  C   C4        1.0  0.6983167072427106  0.9979759048495397  0.8084130536840349  1.0000
  C   C5        1.0  0.9956389905290093  0.6977726609263897  0.807932364369833  1.0000
  C   C6        1.0  0.6995277057466465  0.9987559687599159  0.49584647907347107  1.0000
  C   C7        1.0  0.9994748753984836  0.3047774822407022  0.19922125022358037  1.0000
  C   C8        1.0  0.30647998027477974  0.9890971218637788  0.5063014527881152  1.0000
  C   C9        1.0  0.30480927380460776  0.7004964416634535  0.4960346532315826  1.0000
  C   C10       1.0  0.9853558389174922  0.9974259359941372  0.8148271187557157  1.0000
  C   C11       1.0  0.6997520398514397  0.31035998065437537  0.4979669348437596  1.0000
  C   C12       1.0  0.9947471780789807  0.9947689140202414  0.20369922970294163  1.0000
  C   C13       1.0  0.9971504876617203  0.41688965871021105  0.4834808384778526  1.0000
  C   C14       1.0  0.9885330615075884  0.6090507193436848  0.48879122535122105  1.0000
  C   C15       1.0  0.08185236758635735  0.46431847835516754  0.4076364174888099  1.0000
  C   C16       1.0  0.9014904139327128  0.5660981267724523  0.5612018712702564  1.0000
  C   C17       1.0  0.07703095060371365  0.5590227019591296  0.4115563315550049  1.0000
  C   C18       1.0  0.9069122836837378  0.47131425183302156  0.55789386701435  1.0000
  C   C19       1.0  0.4105699085262699  0.0022186463523041705  0.10351338382187691  1.0000
  C   C20       1.0  0.5995293487835337  0.9968051015854442  0.9116254708956288  1.0000
  C   C21       1.0  0.4612864606228584  0.0837915645873295  0.05085927585918173  1.0000
  C   C22       1.0  0.5512932036595473  0.9144913903195263  0.9634733851414055  1.0000
  C   C23       1.0  0.5546064355913102  0.08035766916203374  0.9557497945327214  1.0000
  C   C24       1.0  0.4582697363213412  0.9181703426694767  0.057857480423642464  1.0000
  C   C25       1.0  0.9775504675366798  0.9941547652113767  0.9214483213415434  1.0000
  C   C26       1.0  0.9877148834783468  0.9896441535542734  0.10903642285843794  1.0000
  C   C27       1.0  0.8888063497005804  0.06324532926830527  0.9834233780685508  1.0000
  C   C28       1.0  0.0737918797227976  0.9165304256439768  0.05203746690360586  1.0000
  C   C29       1.0  0.895036208432856  0.06099489463414179  0.07567899412306638  1.0000
  C   C30       1.0  0.06793953016165907  0.9198332622426194  0.959614212935101  1.0000
  C   C31       1.0  0.40761369230700223  0.6010770957260548  0.490596918486581  1.0000
  C   C32       1.0  0.599560571792402  0.41220160363103303  0.495952439446576  1.0000
  C   C33       1.0  0.4583831772785274  0.5482925345626272  0.41109976266611187  1.0000
  C   C34       1.0  0.5505254407362938  0.4635541406435165  0.5752069692043521  1.0000
  C   C35       1.0  0.5534939089026523  0.4551480219050958  0.41434665019122724  1.0000
  C   C36       1.0  0.4563057958926179  0.5565483917852915  0.5714749302656442  1.0000
  C   C37       1.0  4.788462271671175e-05  0.5923805289194986  0.9041434518021917  1.0000
  C   C38       1.0  0.9825046892316676  0.5032230051090424  0.90846557004906  1.0000
  C   C39       1.0  0.0244666588379656  0.5819632802175362  0.9886960829744069  1.0000
  C   C40       1.0  0.9699368617292307  0.5049835611123044  0.8182627210637748  1.0000
  C   C41       1.0  0.9614286940957368  0.4145355868888816  0.8218448312278142  1.0000
  C   C42       1.0  0.0031596630899173137  0.400893957069627  0.09362301027422151  1.0000
  C   C43       1.0  0.026066165978306802  0.4864503499572095  0.0831973391852472  1.0000
  C   C44       1.0  0.984129133367361  0.4053007398488686  0.0053198641161741975  1.0000
  C   C45       1.0  0.9730183415339224  0.31448778720325526  0.00654192996949367  1.0000
  C   C46       1.0  0.9629506085290414  0.31860396164590543  0.9166977834474112  1.0000
  C   C47       1.0  0.4103012557460629  0.9839432043353753  0.5062628270941474  1.0000
  C   C48       1.0  0.6008542524654669  0.9939614834251815  0.49593342346921077  1.0000
  C   C49       1.0  0.46288659905420093  0.9046593953469042  0.5861990795313333  1.0000
  C   C50       1.0  0.5509431735796042  0.07209957177769154  0.4149437684011374  1.0000
  C   C51       1.0  0.5570200543333355  0.910459924172848  0.5803376851719759  1.0000
  C   C52       1.0  0.45732539705088027  0.06615853209882519  0.42093996942205786  1.0000
  Cl  Cl1       1.0  0.19630517175279746  0.4126220363982398  0.3067771195920841  1.0000
  Cl  Cl2       1.0  0.41567958784815306  0.19251129998414027  0.09512026056043514  1.0000
  Cl  Cl3       1.0  0.7679642271365027  0.15364572024714826  0.9536218232754123  1.0000
  Cl  Cl4       1.0  0.410241000314464  0.5897662871868903  0.3063332563232634  1.0000
  Cl  Cl5       1.0  0.41834224994826735  0.79670903357092  0.6958131319708516  1.0000
  O   O1        1.0  0.9163291001944458  0.7408775137423049  0.5752347976292499  1.0000
  O   O2        1.0  0.26575351968967437  0.07466580326389047  0.24616175793483563  1.0000
  O   O3        1.0  0.07700137034307623  0.26441556817766804  0.4218877532529248  1.0000
  O   O4        1.0  0.735600779344786  0.9222152655160298  0.7682548748562752  1.0000
  O   O5        1.0  0.07134034013120759  0.7381972484286551  0.7707649646335993  1.0000
  O   O6        1.0  0.7362661366645965  0.07777247775327102  0.42025614496406394  1.0000
  O   O7        1.0  0.921197102884754  0.266111135302573  0.24096250130454408  1.0000
  O   O8        1.0  0.26171624945136746  0.9162190632757263  0.5838397384196057  1.0000
  O   O9        1.0  0.2621822414406195  0.7427076209647083  0.42110934756476576  1.0000
  O   O10       1.0  0.9161365736959437  0.07875909722800861  0.7677270616679335  1.0000
  O   O11       1.0  0.7375550427785668  0.2707875826972811  0.5761018782699026  1.0000
  O   O12       1.0  0.07581935537492508  0.9220974715179437  0.2379763184063109  1.0000
  O   O13       1.0  0.06354108843759573  0.920388343499397  0.7765794490887714  1.0000
  O   O14       1.0  0.7389323260838195  0.26936822923887865  0.42241069106658796  1.0000
  O   O15       1.0  0.9200739361045149  0.07340187709576179  0.24142855751392736  1.0000
  O   O16       1.0  0.2657599051398308  0.7357230532342098  0.5758280268868956  1.0000
  O   O17       1.0  0.9176476188144845  0.7403261554540704  0.7691702641658082  1.0000
  O   O18       1.0  0.2685692419949532  0.06787474660023209  0.4293404449633726  1.0000
  O   O19       1.0  0.0737914618109556  0.26833135130332414  0.24057162428014317  1.0000
  O   O20       1.0  0.7384277065231752  0.9236146435315793  0.573555380086148  1.0000
  O   O21       1.0  0.7369959791267033  0.07579755448706726  0.7671992344447601  1.0000
  O   O22       1.0  0.06925887136511472  0.7439925005655539  0.42059104663257335  1.0000
  O   O23       1.0  0.2686936973541664  0.9241414781185142  0.23849587995502472  1.0000
  O   O24       1.0  0.9209643611965034  0.2729579686588295  0.5717375356460792  1.0000
  O   O25       1.0  0.7968126566640377  0.07014618430054745  0.5682718189910149  1.0000
  O   O26       1.0  0.06564242626650697  0.06753503450049449  0.5718302935496168  1.0000
  O   O27       1.0  0.06761961216027859  0.06836263076486658  0.30042067695062963  1.0000
  O   O28       1.0  0.06434104691855644  0.7992788124987202  0.5700523345364915  1.0000
  O   O29       1.0  0.14719078629575225  0.9504317315383233  0.4548582943509701  1.0000
  O   O30       1.0  0.9491703509141229  0.9524400330348899  0.45190525558258804  1.0000
  O   O31       1.0  0.9503381185192054  0.15003921017355273  0.45254779106913645  1.0000
  O   O32       1.0  0.9476641396005757  0.9525553273922966  0.6512788154614598  1.0000
