data_image0
_chemical_formula_structural       Zr6H35C50N5O32
_chemical_formula_sum              "Zr6 H35 C50 N5 O32"
_cell_length_a       14.790138495485063
_cell_length_b       14.791509647665587
_cell_length_c       14.802669921199147
_cell_angle_alpha    60.11523403803357
_cell_angle_beta     60.01077673023492
_cell_angle_gamma    60.03056641648762

_space_group_name_H-M_alt    "P 1"
_space_group_IT_number       1

loop_
  _space_group_symop_operation_xyz
  'x, y, z'

loop_
  _atom_site_type_symbol
  _atom_site_label
  _atom_site_symmetry_multiplicity
  _atom_site_fract_x
  _atom_site_fract_y
  _atom_site_fract_z
  _atom_site_occupancy
  Zr  Zr1       1.0  0.8782016216261327  0.8813028989222218  0.6190754221395667  1.0000
  Zr  Zr2       1.0  0.11794423174107745  0.1176738279430012  0.3819213153391133  1.0000
  Zr  Zr3       1.0  0.11692919023290217  0.8807006656385495  0.6194689169458415  1.0000
  Zr  Zr4       1.0  0.8785066870881622  0.12004100204526229  0.3799578635657568  1.0000
  Zr  Zr5       1.0  0.11682592181055884  0.8816653695392347  0.3797899614029632  1.0000
  Zr  Zr6       1.0  0.8791081276912679  0.12072438513958146  0.6178277078738575  1.0000
  H   H1        1.0  0.09189825157117303  0.7186602994250041  0.5932963459127267  1.0000
  H   H2        1.0  0.09309655265412423  0.09333488226690184  0.21791609433954315  1.0000
  H   H3        1.0  0.09265069880756722  0.09397032152202917  0.5936551864195536  1.0000
  H   H4        1.0  0.7157947318565545  0.09525914526517426  0.5935952657608894  1.0000
  H   H5        1.0  0.8526462604001067  0.5827278427389404  0.6458239482328522  1.0000
  H   H6        1.0  0.1409174463674674  0.591885608024306  0.35417035057451324  1.0000
  H   H7        1.0  0.8593042681636264  0.4120716920966315  0.6406531026056898  1.0000
  H   H8        1.0  0.5836040804461785  0.8532530824371353  0.9179817296565675  1.0000
  H   H9        1.0  0.5910671917448838  0.1416190508467138  0.9139520321322439  1.0000
  H   H10       1.0  0.41327869627885866  0.8586454584795151  0.08739276293936644  1.0000
  H   H11       1.0  0.14393168618371288  0.8553313363799193  0.08159394020061227  1.0000
  H   H12       1.0  0.8512987483783049  0.14266198236632743  0.09177155943611127  1.0000
  H   H13       1.0  0.13892622979928146  0.8613745331837848  0.9112907891798373  1.0000
  H   H14       1.0  0.5823593627370939  0.4204722077874337  0.6430447265494479  1.0000
  H   H15       1.0  0.591532358444617  0.4135289725204174  0.35203956903992406  1.0000
  H   H16       1.0  0.41179612013604583  0.5895037810839128  0.6378919586058631  1.0000
  H   H17       1.0  0.1421752220975065  0.4183574105910992  0.08529780774554753  1.0000
  H   H18       1.0  0.14127770880347132  0.587068618951328  0.9178434293836233  1.0000
  H   H19       1.0  0.7431717653931075  0.6288181365835543  0.9583164750396738  1.0000
  H   H20       1.0  0.8301019546142853  0.5434697427969299  0.8729450687109619  1.0000
  H   H21       1.0  0.8303756946320319  0.3727904406576741  0.043207030079159416  1.0000
  H   H22       1.0  0.7435267673134337  0.4579191211684731  0.12884677159505037  1.0000
  H   H23       1.0  0.5807077782424274  0.14602920369749472  0.3542246880038747  1.0000
  H   H24       1.0  0.5914094812767628  0.8533785517115505  0.6404351147688275  1.0000
  H   H25       1.0  0.4105432768439812  0.14047038395005274  0.3602584636322065  1.0000
  H   H26       1.0  0.1661577953611797  0.35251263423198514  0.3220529595428873  1.0000
  H   H27       1.0  0.21582106084266425  0.4616396305074631  0.2674065262348578  1.0000
  H   H28       1.0  0.3525560100901328  0.16470476827461777  0.16098837567457744  1.0000
  H   H29       1.0  0.46101177033995094  0.21529340929858162  0.056931459514380764  1.0000
  H   H30       1.0  0.8212917366627224  0.16972643912621516  0.8502116494995776  1.0000
  H   H31       1.0  0.767044520394151  0.22066521202789607  0.9587298332848987  1.0000
  H   H32       1.0  0.35241491618101145  0.6601084318114728  0.3195400086265182  1.0000
  H   H33       1.0  0.46149874849451333  0.5559688076546081  0.26489021408348634  1.0000
  H   H34       1.0  0.35121755444811936  0.8214431146737128  0.6666418449413598  1.0000
  H   H35       1.0  0.45989843521159207  0.7675672185985078  0.7167659127848084  1.0000
  C   C1        1.0  0.9947721432233008  0.699293539674585  0.49780470098745894  1.0000
  C   C2        1.0  0.306804820017483  0.9979098751680411  0.19737488944848275  1.0000
  C   C3        1.0  0.9982675968797493  0.307366791250999  0.49644407158652387  1.0000
  C   C4        1.0  0.697775821825388  0.9975429091941592  0.8064416125091043  1.0000
  C   C5        1.0  0.9958413964630352  0.7006129976644215  0.8058494010524129  1.0000
  C   C6        1.0  0.6970644265176206  0.99855219622723  0.4961115511997534  1.0000
  C   C7        1.0  0.9973411608879701  0.30562345108399575  0.19959084591478424  1.0000
  C   C8        1.0  0.3063650560084949  0.9960449361923269  0.49844774045318735  1.0000
  C   C9        1.0  0.3059311379788595  0.6979675236750041  0.49524097278253976  1.0000
  C   C10       1.0  0.9948789763272856  6.233005579056865e-05  0.8066457843337034  1.0000
  C   C11       1.0  0.6979270544658718  0.3080653970175078  0.49653079406517975  1.0000
  C   C12       1.0  0.9958125453506456  0.9974632751794985  0.198182966736738  1.0000
  C   C13       1.0  0.002249174023141511  0.4058950172612654  0.49513170537518664  1.0000
  C   C14       1.0  0.9965778221612072  0.5970324610067836  0.49864636032177856  1.0000
  C   C15       1.0  0.08508838594584486  0.45563601430470874  0.41247775969538475  1.0000
  C   C16       1.0  0.9163086039919223  0.546717961945269  0.5815817044835256  1.0000
  C   C17       1.0  0.07919424278339443  0.5517723272567281  0.4166431774352475  1.0000
  C   C18       1.0  0.9203707564450311  0.45283824303779596  0.5783876139448055  1.0000
  C   C19       1.0  0.4061684241973609  0.0016110556903897297  0.09699442118640181  1.0000
  C   C20       1.0  0.5969670674437778  0.9974374157246476  0.907578166726765  1.0000
  C   C21       1.0  0.45564329206931836  0.08455493535596048  0.04777895131624631  1.0000
  C   C22       1.0  0.5475488002167453  0.9164154193593534  0.9552285284593295  1.0000
  C   C23       1.0  0.55152523000784  0.0794307480505622  0.9531172709565114  1.0000
  C   C24       1.0  0.45381219898188613  0.9198413705062338  0.04833649951955727  1.0000
  C   C25       1.0  0.9931243199471923  0.004016437400259962  0.9053907344099345  1.0000
  C   C26       1.0  0.9964041434582641  0.9988702981298161  0.09628086697528455  1.0000
  C   C27       1.0  0.9102624881039318  0.08693962533618572  0.9551662961032933  1.0000
  C   C28       1.0  0.0794790196804058  0.9185700657590559  0.04591683279292616  1.0000
  C   C29       1.0  0.9142441445905192  0.08122407254460742  0.05126585429110977  1.0000
  C   C30       1.0  0.07635801911219192  0.9223482363875631  0.9522045820025581  1.0000
  C   C31       1.0  0.4054760716822229  0.5976743506129908  0.49279830642964123  1.0000
  C   C32       1.0  0.5965448811602699  0.40862596585490957  0.4963942524903474  1.0000
  C   C33       1.0  0.4555263427049  0.5478169109242826  0.40993780760530296  1.0000
  C   C34       1.0  0.546467632592474  0.45686656284097893  0.5788791622592984  1.0000
  C   C35       1.0  0.5515277809700264  0.45327568993364764  0.41427721603076145  1.0000
  C   C36       1.0  0.45262682391771125  0.5498194642656529  0.5756485767638467  1.0000
  C   C37       1.0  0.9959475132625143  0.6000382143306027  0.9055867556797282  1.0000
  C   C38       1.0  0.9966381416606395  0.40567081964466933  0.09926769703854892  1.0000
  C   C39       1.0  0.9169125119820051  0.5492331860274431  0.9549571513235621  1.0000
  C   C40       1.0  0.07793279112104294  0.45576566091199316  0.04889586774077515  1.0000
  C   C41       1.0  0.9171812590880891  0.4549061044984198  0.049011263386525186  1.0000
  C   C42       1.0  0.07759211534941095  0.5499442188797232  0.9551184118137642  1.0000
  C   C43       1.0  0.8155943005673761  0.554491985336284  0.947807807576865  1.0000
  C   C44       1.0  0.8158125333748315  0.4476354580453689  0.05438204080577696  1.0000
  C   C45       1.0  0.40512488243729866  0.9943639260331242  0.5021731014408388  1.0000
  C   C46       1.0  0.5956084420239303  0.9984368720013566  0.49719838023614243  1.0000
  C   C47       1.0  0.45506883053666775  0.9115068269852671  0.5847014347199675  1.0000
  C   C48       1.0  0.5452438508598975  0.08134325708097379  0.4170951809720407  1.0000
  C   C49       1.0  0.5510214381480195  0.9159458876160401  0.5790536841441354  1.0000
  C   C50       1.0  0.451684823231389  0.07787947138982797  0.42084801652795534  1.0000
  N   N1        1.0  0.1702895715719919  0.41379801150166884  0.3312469425652084  1.0000
  N   N2        1.0  0.41347973362674406  0.1694462505719372  0.08623195350358513  1.0000
  N   N3        1.0  0.8290359328850768  0.17171580957090526  0.9135085244260281  1.0000
  N   N4        1.0  0.41386450714131223  0.5856989490609479  0.32867848324992377  1.0000
  N   N5        1.0  0.4137471324716981  0.8300815722598146  0.6690864608661472  1.0000
  O   O1        1.0  0.9180124596001703  0.7385305838036516  0.5748694150153283  1.0000
  O   O2        1.0  0.2649670882482766  0.0732381949816983  0.2410176135431001  1.0000
  O   O3        1.0  0.07412404982702006  0.26518237465053573  0.4197316129260927  1.0000
  O   O4        1.0  0.7366508986818587  0.9211730137621004  0.7664870293928772  1.0000
  O   O5        1.0  0.07296132273192794  0.7400454735008921  0.7659654154391832  1.0000
  O   O6        1.0  0.7359695514762451  0.07581792758745111  0.4197120294946401  1.0000
  O   O7        1.0  0.9203755073098988  0.2663409030070128  0.23849913087915564  1.0000
  O   O8        1.0  0.26431464926834275  0.9192965635805023  0.5738125417004485  1.0000
  O   O9        1.0  0.2639186996102083  0.740880697818156  0.41854526991662067  1.0000
  O   O10       1.0  0.9180745297278889  0.07586663608890376  0.7647342317354174  1.0000
  O   O11       1.0  0.7368492228878198  0.26837463268930856  0.5738000490245484  1.0000
  O   O12       1.0  0.07270041087937781  0.9205854735226922  0.23748315666199463  1.0000
  O   O13       1.0  0.071832431774105  0.9232061656478123  0.7669280969565976  1.0000
  O   O14       1.0  0.7378491317155279  0.2677226159249316  0.42016198150432177  1.0000
  O   O15       1.0  0.91928910786163  0.07418485845048658  0.23822769167832558  1.0000
  O   O16       1.0  0.26560484540856044  0.7368053786970635  0.5729086559243086  1.0000
  O   O17       1.0  0.9190864214557377  0.7394533846577148  0.766508162465918  1.0000
  O   O18       1.0  0.2663608165683654  0.07326024244358104  0.4220017588986452  1.0000
  O   O19       1.0  0.07472124068952707  0.2655505827171681  0.23862388975769735  1.0000
  O   O20       1.0  0.7370062874745075  0.922262490249537  0.5726723174090226  1.0000
  O   O21       1.0  0.7369463364873425  0.07493309111681858  0.7659791283609323  1.0000
  O   O22       1.0  0.07103868552164258  0.7396930747663151  0.4208108308132595  1.0000
  O   O23       1.0  0.2663758750359617  0.9219893562893091  0.23569066898072333  1.0000
  O   O24       1.0  0.9211669268662845  0.26797732525935897  0.5730751090373262  1.0000
  O   O25       1.0  0.7960870801195481  0.06840320657583736  0.5667080728127162  1.0000
  O   O26       1.0  0.06572884561951751  0.06718299907728917  0.5670760309851417  1.0000
  O   O27       1.0  0.06580976414951321  0.06704762578088012  0.2980577709545074  1.0000
  O   O28       1.0  0.0648990696980576  0.798857086675085  0.5668926362933961  1.0000
  O   O29       1.0  0.146873626639227  0.94986041782073  0.45058513174946313  1.0000
  O   O30       1.0  0.9481852194138157  0.9511835128948717  0.45007407359099016  1.0000
  O   O31       1.0  0.9489195561008401  0.14902760420370237  0.44983337840312754  1.0000
  O   O32       1.0  0.9483843939178269  0.9514343865977328  0.6478747590519236  1.0000
