data_image0
_chemical_formula_structural       Cu4H40C20N12O12
_chemical_formula_sum              "Cu4 H40 C20 N12 O12"
_cell_length_a       7.850985311774099
_cell_length_b       8.84337416386026
_cell_length_c       12.210454768696305
_cell_angle_alpha    90.00194558831542
_cell_angle_beta     102.25926908064291
_cell_angle_gamma    90.00087749799009

_space_group_name_H-M_alt    "P 1"
_space_group_IT_number       1

loop_
  _space_group_symop_operation_xyz
  'x, y, z'

loop_
  _atom_site_type_symbol
  _atom_site_label
  _atom_site_symmetry_multiplicity
  _atom_site_fract_x
  _atom_site_fract_y
  _atom_site_fract_z
  _atom_site_occupancy
  Cu  Cu1       1.0  0.21292324333114013  0.5528310276050447  0.573414546257226  1.0000
  Cu  Cu2       1.0  0.21290418769910957  0.9471631449397931  0.07341376241613061  1.0000
  Cu  Cu3       1.0  0.7870937573102454  0.44716144358040577  0.4265847169356577  1.0000
  Cu  Cu4       1.0  0.7870815917872562  0.05283498002009421  0.9265871020603174  1.0000
  H   H1        1.0  0.343520507834576  0.8740866987883821  0.4584887428287346  1.0000
  H   H2        1.0  0.3435298970537489  0.6259024180590486  0.9585023395147091  1.0000
  H   H3        1.0  0.6564677047680902  0.12591821055276137  0.5414960639518966  1.0000
  H   H4        1.0  0.6564702808496607  0.37409344559799246  0.04150616329304313  1.0000
  H   H5        1.0  0.5284381266143613  0.8761950345078588  0.5725222920063473  1.0000
  H   H6        1.0  0.5284315502309057  0.6238226370011688  0.07253236135193931  1.0000
  H   H7        1.0  0.4715631550189273  0.12381552899043412  0.4274675203112397  1.0000
  H   H8        1.0  0.47155687969682  0.37618679598200794  0.9274729489577214  1.0000
  H   H9        1.0  0.16102206517198434  0.05477966634854431  0.5183662307928786  1.0000
  H   H10       1.0  0.161027731587275  0.44521168887384016  0.01836948934764851  1.0000
  H   H11       1.0  0.8389767310816509  0.9452150663320537  0.4816347182611765  1.0000
  H   H12       1.0  0.8389711429716158  0.5547898287207714  0.9816388410496446  1.0000
  H   H13       1.0  0.3338689324409643  0.10951253343200308  0.6283010168386411  1.0000
  H   H14       1.0  0.3338770521667059  0.3905032971679816  0.12830242773647174  1.0000
  H   H15       1.0  0.6661259710106934  0.8904878531987847  0.3717010551016316  1.0000
  H   H16       1.0  0.6661229607647883  0.6095038740240922  0.871690492597381  1.0000
  H   H17       1.0  0.1295957416079077  0.0632682091560781  0.6596696674515387  1.0000
  H   H18       1.0  0.12960767442405802  0.4367259414103088  0.15967108841472571  1.0000
  H   H19       1.0  0.8703939131795054  0.936715215494246  0.3403284337337667  1.0000
  H   H20       1.0  0.8704041820648458  0.5632665298774385  0.8403340459259354  1.0000
  H   H21       1.0  0.4109224164705624  0.719509467218053  0.7560836539985092  1.0000
  H   H22       1.0  0.4108912338478987  0.7805310239129284  0.2560869715128861  1.0000
  H   H23       1.0  0.5891049509157256  0.2804999657877829  0.243911248385743  1.0000
  H   H24       1.0  0.5890906963643587  0.21947840904399382  0.7439191166226353  1.0000
  H   H25       1.0  0.2855313057504816  0.8647415780179486  0.8018731352130217  1.0000
  H   H26       1.0  0.2855275784814212  0.6352744647852544  0.30187813192424784  1.0000
  H   H27       1.0  0.7144739554112932  0.13524976224152854  0.1981237554128513  1.0000
  H   H28       1.0  0.7144790903121746  0.3647112217678199  0.6981287727753627  1.0000
  H   H29       1.0  0.4888473920931916  0.9085918971492647  0.7655531335331959  1.0000
  H   H30       1.0  0.48883732576835115  0.5914557578298129  0.2655594832086053  1.0000
  H   H31       1.0  0.5111643081892225  0.091417535643302  0.23443723855198334  1.0000
  H   H32       1.0  0.5111627741889322  0.4085604598757584  0.7344416386390267  1.0000
  H   H33       1.0  0.044496083087487606  0.7883858148679438  0.5217880934193247  1.0000
  H   H34       1.0  0.044489049537205005  0.7115934582566723  0.021783893686745204  1.0000
  H   H35       1.0  0.9555105509586357  0.21160100239818294  0.478215530741821  1.0000
  H   H36       1.0  0.955499380136132  0.2883967512947052  0.9782214163515378  1.0000
  H   H37       1.0  0.0524011476347965  0.7747517316061733  0.6580728106459831  1.0000
  H   H38       1.0  0.0523854120637637  0.7252453402918349  0.1580735296494424  1.0000
  H   H39       1.0  0.947617147735322  0.22524073957296756  0.3419258048985655  1.0000
  H   H40       1.0  0.9476082748147833  0.2747505233582146  0.841936571122773  1.0000
  C   C1        1.0  0.47756095179747865  0.4166149418678344  0.49700339538663496  1.0000
  C   C2        1.0  0.47755346161215334  0.08338732924625698  0.9970030598254029  1.0000
  C   C3        1.0  0.5224561010623745  0.583383183383731  0.5030007887177065  1.0000
  C   C4        1.0  0.5224335431977921  0.916619841874052  0.002990596021561506  1.0000
  C   C5        1.0  0.39801059876069905  0.8274077637646823  0.5425883060273975  1.0000
  C   C6        1.0  0.3980039926821277  0.6726010673243933  0.0425979399466598  1.0000
  C   C7        1.0  0.6019958529771898  0.17259375336826113  0.4573980954305271  1.0000
  C   C8        1.0  0.6019883301672806  0.3274117580294416  0.9574062476044888  1.0000
  C   C9        1.0  0.2783136388546268  0.8684429447941112  0.6232384590309865  1.0000
  C   C10       1.0  0.2783085187531142  0.6315623716341463  0.12324399873426733  1.0000
  C   C11       1.0  0.7216929083901603  0.13155178781011045  0.37675696385584  1.0000
  C   C12       1.0  0.7216916331233634  0.36843688433542343  0.8767620437055544  1.0000
  C   C13       1.0  0.2214157429365926  0.03341699957356779  0.6066928532101983  1.0000
  C   C14       1.0  0.22142067149541592  0.4665872341343372  0.10669654261273823  1.0000
  C   C15       1.0  0.7785830446413939  0.9665788638778706  0.393307275721206  1.0000
  C   C16       1.0  0.778582069913334  0.533417675773137  0.8933082046102289  1.0000
  C   C17       1.0  0.3713021377792316  0.8385777226908714  0.7441605993629069  1.0000
  C   C18       1.0  0.3712873549917433  0.6614514909298634  0.24416314228400895  1.0000
  C   C19       1.0  0.628708337239459  0.1614271871016939  0.25583698141561223  1.0000
  C   C20       1.0  0.6287062537760804  0.33855228807755117  0.7558395773524893  1.0000
  N   N1        1.0  0.0746341280748979  0.3921371164882643  0.7278692663549153  1.0000
  N   N2        1.0  0.0746243579271066  0.10789000708756193  0.22786295810912097  1.0000
  N   N3        1.0  0.925386922263293  0.6078847555870296  0.27214363694154303  1.0000
  N   N4        1.0  0.925361395696932  0.8921239488760121  0.7721354461749926  1.0000
  N   N5        1.0  0.40389690646527754  0.6644325219960621  0.5358363040334597  1.0000
  N   N6        1.0  0.40388800111468026  0.8355805964342053  0.03584065550073491  1.0000
  N   N7        1.0  0.5961082332225232  0.33557351826509313  0.4641491048594376  1.0000
  N   N8        1.0  0.5960938161645546  0.16443222864260318  0.9641547708807893  1.0000
  N   N9        1.0  0.12474186754484863  0.7631036668900392  0.597366959038034  1.0000
  N   N10       1.0  0.1247264314061098  0.7368813746248152  0.09736718660597891  1.0000
  N   N11       1.0  0.8752751417272935  0.2368842811542463  0.4026331242296025  1.0000
  N   N12       1.0  0.8752659170811726  0.26309865787374787  0.9026394608980512  1.0000
  O   O1        1.0  0.038634805043003  0.4198884738200945  0.6207344683008886  1.0000
  O   O2        1.0  0.038612630060392006  0.0801071315520545  0.12073156463264213  1.0000
  O   O3        1.0  0.9613874961668502  0.5801028668197148  0.3792736862231863  1.0000
  O   O4        1.0  0.9613588291645597  0.9198887317236313  0.8792690426961162  1.0000
  O   O5        1.0  0.2067221369970156  0.4556456011225335  0.7824413197558047  1.0000
  O   O6        1.0  0.2067406561710854  0.044397193638772606  0.2824363657623081  1.0000
  O   O7        1.0  0.7932688739519449  0.5443830552605604  0.21756187538995422  1.0000
  O   O8        1.0  0.7932672036176103  0.9556303319107325  0.717560050216335  1.0000
  O   O9        1.0  0.3362536157516303  0.37205242402770017  0.5237082341592159  1.0000
  O   O10       1.0  0.33624180471824877  0.1279461018535599  0.02370542815733501  1.0000
  O   O11       1.0  0.6637555557729088  0.6279468318013812  0.4762891740492138  1.0000
  O   O12       1.0  0.6637452608361657  0.8720542846609617  0.9762939685641004  1.0000
