data_image0
_chemical_formula_structural       Ag4H40W10C56N8O32
_chemical_formula_sum              "Ag4 H40 W10 C56 N8 O32"
_cell_length_a       11.08075497078715
_cell_length_b       13.323383945269628
_cell_length_c       13.977669062615215
_cell_angle_alpha    105.06597528497758
_cell_angle_beta     113.3954186903145
_cell_angle_gamma    94.33098618455125

_space_group_name_H-M_alt    "P 1"
_space_group_IT_number       1

loop_
  _space_group_symop_operation_xyz
  'x, y, z'

loop_
  _atom_site_type_symbol
  _atom_site_label
  _atom_site_symmetry_multiplicity
  _atom_site_fract_x
  _atom_site_fract_y
  _atom_site_fract_z
  _atom_site_occupancy
  Ag  Ag1       1.0  0.060372379146038206  0.5185785603558841  0.21717592897638843  1.0000
  Ag  Ag2       1.0  0.9396300817611233  0.4814215121497653  0.782826232774191  1.0000
  Ag  Ag3       1.0  0.5350032734236619  0.11414723010770436  0.986649908604157  1.0000
  Ag  Ag4       1.0  0.4649979975350362  0.8858520454611138  0.013350252996367851  1.0000
  H   H1        1.0  0.21749247938648614  0.6191362802908104  0.9836704924116262  1.0000
  H   H2        1.0  0.7825070306200528  0.380863792736278  0.01633002759262326  1.0000
  H   H3        1.0  0.9303685382700522  0.637746114714332  0.5394566318729658  1.0000
  H   H4        1.0  0.06962958155054369  0.36225237203333893  0.4605430621384627  1.0000
  H   H5        1.0  0.3481014411122274  0.6592593812710562  0.8848792085556525  1.0000
  H   H6        1.0  0.6518982724467505  0.3407414853357337  0.11512157023236101  1.0000
  H   H7        1.0  0.6160561097889283  0.4777461143299887  0.5859807091919436  1.0000
  H   H8        1.0  0.38394319666516447  0.5222531651173838  0.4140195520285346  1.0000
  H   H9        1.0  0.5958168341091151  0.662292727427939  0.9630831982146192  1.0000
  H   H10       1.0  0.4041826742399336  0.3377073434805808  0.03691660531912791  1.0000
  H   H11       1.0  0.7096075328845827  0.6260474674813494  0.13882492764674476  1.0000
  H   H12       1.0  0.2903921790169121  0.373953397006879  0.8611751346707736  1.0000
  H   H13       1.0  0.8118911070175441  0.6246126730969478  0.6550839667454297  1.0000
  H   H14       1.0  0.18810721469801445  0.37538660511186334  0.34491526957926766  1.0000
  H   H15       1.0  0.6457441788855576  0.3626677161319449  0.28016013262929107  1.0000
  H   H16       1.0  0.35425512425355515  0.6373315590783121  0.7198386956501821  1.0000
  H   H17       1.0  0.5777179909742216  0.5840874429557985  0.2379299456910502  1.0000
  H   H18       1.0  0.42228151903231037  0.41591263007128265  0.762070574313199  1.0000
  H   H19       1.0  0.5313026785772051  0.34825326612440216  0.39585786086554003  1.0000
  H   H20       1.0  0.46869662456190747  0.6517460090858549  0.604140967413933  1.0000
  H   H21       1.0  0.0508583726963536  0.07974783765716612  0.41017336244470926  1.0000
  H   H22       1.0  0.9491431018147907  0.9202522314913607  0.5898270579395871  1.0000
  H   H23       1.0  0.5364524033571667  0.22703553740026183  0.656423448899389  1.0000
  H   H24       1.0  0.4635461235683208  0.7729645365068193  0.34357676267958237  1.0000
  H   H25       1.0  0.19420948935620427  0.16921211355435162  0.3455923571182993  1.0000
  H   H26       1.0  0.8057914091787878  0.8307895436335783  0.6544082724082613  1.0000
  H   H27       1.0  0.1505143447536668  0.06571165854580839  0.6004121197010406  1.0000
  H   H28       1.0  0.8494857395715412  0.934286824323301  0.39958747469044176  1.0000
  H   H29       1.0  0.4358270132296838  0.24367459723497825  0.4678795564133297  1.0000
  H   H30       1.0  0.5641738886202816  0.7563270641900814  0.5321225060542432  1.0000
  H   H31       1.0  0.5268239701430417  0.07815983022052109  0.35407121082852916  1.0000
  H   H32       1.0  0.4731755382060071  0.9218402406879987  0.6459285927052179  1.0000
  H   H33       1.0  0.9033457743292743  0.22355583672678847  0.3777870917049454  1.0000
  H   H34       1.0  0.09665451354837976  0.7764434397220298  0.6222127614703084  1.0000
  H   H35       1.0  0.008195978349718306  0.25634663373980254  0.5821728207956839  1.0000
  H   H36       1.0  0.9918035283418476  0.743653435050156  0.4178262662675607  1.0000
  H   H37       1.0  0.6325815113500539  0.10894245303939695  0.5566063561030958  1.0000
  H   H38       1.0  0.36741721747038975  0.8910584123288315  0.4433933977891442  1.0000
  H   H39       1.0  0.8707767113092474  0.19954784903996628  0.6695587396595358  1.0000
  H   H40       1.0  0.12922279538231854  0.8004522197499921  0.3304403474037088  1.0000
  W   W1        1.0  0.10490854599947849  0.06859873685058197  0.8519277304879721  1.0000
  W   W2        1.0  0.8950919454306216  0.931401333177945  0.14807238147104573  1.0000
  W   W3        1.0  0.9465006282235962  0.20337298581441127  0.11311526375570234  1.0000
  W   W4        1.0  0.05349769183447255  0.796626290275839  0.8868832560984927  1.0000
  W   W5        1.0  0.24527649366827828  0.17751480101895106  0.1219208374947698  1.0000
  W   W6        1.0  0.7547220315997263  0.8224852707695687  0.8780786576137061  1.0000
  W   W7        1.0  0.05728921495809659  0.3047290403815239  0.9624192936405009  1.0000
  W   W8        1.0  0.9427102933909522  0.6952710305269959  0.03758050989324591  1.0000
  W   W9        1.0  0.8063368595077518  0.09500348992245476  0.8427338265906171  1.0000
  W   W10       1.0  0.19366264552633075  0.9049965767489424  0.1572645440021248  1.0000
  C   C1        1.0  0.7954714357078386  0.5013988846221195  0.40266095668911095  1.0000
  C   C2        1.0  0.20452807429869313  0.4986011884049616  0.5973395633151384  1.0000
  C   C3        1.0  0.8643268374348521  0.5102271303645194  0.3376986155840596  1.0000
  C   C4        1.0  0.13567324523286567  0.4897713503860288  0.6623002623369203  1.0000
  C   C5        1.0  0.3901573866838745  0.5992863569481413  0.1161955924383875  1.0000
  C   C6        1.0  0.6098431047462184  0.4007137130803784  0.8838045195206375  1.0000
  C   C7        1.0  0.31239990745087437  0.5757449479087312  0.17018843429071498  1.0000
  C   C8        1.0  0.6876005839792255  0.42425512211978866  0.8298116776683101  1.0000
  C   C9        1.0  0.32477352240359636  0.6207068737507342  0.01664209349778639  1.0000
  C   C10       1.0  0.6752255788405604  0.3792916099983686  0.983357192468418  1.0000
  C   C11       1.0  0.842701383568496  0.5751487462903169  0.508747255641559  1.0000
  C   C12       1.0  0.15729870407167817  0.4248497408159153  0.4912537716909283  1.0000
  C   C13       1.0  0.39948029062670526  0.6432574864514248  0.9622716063170103  1.0000
  C   C14       1.0  0.6005194212747894  0.35674337803680345  0.037728456000508004  1.0000
  C   C15       1.0  0.665745369052388  0.4846914447560379  0.5338903764886567  1.0000
  C   C16       1.0  0.33425295266317084  0.5153078334527734  0.4661088598360479  1.0000
  C   C17       1.0  0.5374161688812221  0.6446464998739571  0.005843717191694931  1.0000
  C   C18       1.0  0.4625835430202726  0.35535436461427133  0.9941563451258232  1.0000
  C   C19       1.0  0.6020054310985188  0.6239627711601229  0.10514839162799199  1.0000
  C   C20       1.0  0.3979940772505302  0.3760372997483968  0.8948514119057549  1.0000
  C   C21       1.0  0.77702247125692  0.5665352997606873  0.5737394103774277  1.0000
  C   C22       1.0  0.22297662998723664  0.4334631839884153  0.4262598755887765  1.0000
  C   C23       1.0  0.682411074319127  0.4196845962676575  0.36207497489812823  1.0000
  C   C24       1.0  0.3175894171109732  0.5803154737608692  0.6379251370608969  1.0000
  C   C25       1.0  0.5290961943045003  0.6008724295816349  0.16070257917181854  1.0000
  C   C26       1.0  0.47090450233552866  0.39912843614515475  0.8392985080414732  1.0000
  C   C27       1.0  0.6183823583156849  0.4119613495622332  0.4284348277491929  1.0000
  C   C28       1.0  0.38161694648091776  0.5880379277665779  0.5715647170007827  1.0000
  C   C29       1.0  0.15631453235090473  0.11374582728139872  0.4648616354177264  1.0000
  C   C30       1.0  0.8436859607366783  0.8862542448656823  0.535139193011801  1.0000
  C   C31       1.0  0.34798481759396077  0.14653162199288516  0.6384839657218963  1.0000
  C   C32       1.0  0.6520154719411763  0.8534676565744945  0.3615166039238531  1.0000
  C   C33       1.0  0.43002613710067544  0.1972558131387956  0.6025136976003509  1.0000
  C   C34       1.0  0.5699735781157854  0.8027450555865555  0.3974877976581723  1.0000
  C   C35       1.0  0.23712555895334475  0.16370556983747517  0.4284626210782747  1.0000
  C   C36       1.0  0.7628751393441674  0.8362952980078827  0.5715391826055266  1.0000
  C   C37       1.0  0.2105003798102557  0.10506983061465291  0.5699807903334246  1.0000
  C   C38       1.0  0.7895010963583715  0.8949302406524283  0.4300203465213812  1.0000
  C   C39       1.0  0.4050959586707562  0.13373263868287918  0.743793792931477  1.0000
  C   C40       1.0  0.5949045344168267  0.8662674334642017  0.25620703549805046  1.0000
  C   C41       1.0  0.37326223203612585  0.2057475321319728  0.4973261581417034  1.0000
  C   C42       1.0  0.6267396545523666  0.794254130531648  0.5026769292216497  1.0000
  C   C43       1.0  0.7099379163291387  0.15104330004280797  0.35601509203102205  1.0000
  C   C44       1.0  0.2900623698910252  0.8489559742874491  0.6439840446737293  1.0000
  C   C45       1.0  0.6546196495261754  0.13300099801632828  0.24140227087634258  1.0000
  C   C46       1.0  0.34537985882287353  0.8669990728921918  0.7585975326574045  1.0000
  C   C47       1.0  0.6313394993074225  0.11838611873332638  0.40476957231089017  1.0000
  C   C48       1.0  0.36866000904162627  0.8816139521751934  0.5952302312228569  1.0000
  C   C49       1.0  0.8459953444442616  0.20095248447258734  0.41934521775237227  1.0000
  C   C50       1.0  0.15400494343338517  0.7990467919762237  0.5806546354228814  1.0000
  C   C51       1.0  0.9027506021538796  0.21869161469108178  0.5321054578858337  1.0000
  C   C52       1.0  0.09724968572377427  0.7813076617577293  0.4678943952894201  1.0000
  C   C53       1.0  0.6907025353177828  0.1360757345846295  0.5176831859886234  1.0000
  C   C54       1.0  0.30929795611231004  0.8639243354438972  0.48231692597040166  1.0000
  C   C55       1.0  0.8254714362419121  0.18658551571096635  0.5813436298654935  1.0000
  C   C56       1.0  0.1745290551881808  0.8134145543175534  0.4186564820935246  1.0000
  N   N1        1.0  0.9237155858908748  0.519583329337962  0.2868903051059347  1.0000
  N   N2        1.0  0.0762858886202693  0.4804167398105577  0.7131101152783615  1.0000
  N   N3        1.0  0.24531206380545703  0.5571814546449189  0.21250175374959918  1.0000
  N   N4        1.0  0.7546884276246432  0.4428186153836008  0.787498358209426  1.0000
  N   N5        1.0  0.4513418154937483  0.12110736122795629  0.8292844920665843  1.0000
  N   N6        1.0  0.5486586792513178  0.8788927130376932  0.17071705283344568  1.0000
  N   N7        1.0  0.612662073297379  0.11931822850788615  0.14740562133503937  1.0000
  N   N8        1.0  0.3873386216851671  0.8806826351003421  0.852594749407757  1.0000
  O   O1        1.0  0.651065643277917  0.07862113313650101  0.7345200038060113  1.0000
  O   O2        1.0  0.34893386009868266  0.9213789314163278  0.26547765031622833  1.0000
  O   O3        1.0  0.9891342361602042  0.32984049831098616  0.07286830586512877  1.0000
  O   O4        1.0  0.010866255269895849  0.6701595717175335  0.9271318060938968  1.0000
  O   O5        1.0  0.9133469301793012  0.04697662577006408  0.767114591579997  1.0000
  O   O6        1.0  0.08665376314576174  0.9530242357196027  0.2328850626922971  1.0000
  O   O7        1.0  0.08082913990764949  0.42842425983963045  0.9441228077767577  1.0000
  O   O8        1.0  0.9191723362609776  0.5715758114274507  0.05587832907804814  1.0000
  O   O9        1.0  0.026522998934417782  0.13970141559916976  0.9839164086244239  1.0000
  O   O10       1.0  0.9734765077571478  0.8602986531907888  0.01608267843882049  1.0000
  O   O11       1.0  0.7850207799120951  0.15798789656928844  0.9761192507694716  1.0000
  O   O12       1.0  0.21497754014597342  0.8420113795209615  0.023879269084723355  1.0000
  O   O13       1.0  0.4084324543930292  0.22446914982580773  0.2235661355471024  1.0000
  O   O14       1.0  0.5915668520610565  0.7755301296215646  0.7764341256733758  1.0000
  O   O15       1.0  0.26646768497008105  0.11282611302821267  0.989285315905107  1.0000
  O   O16       1.0  0.733532806460019  0.8871739570003071  0.01071479605391796  1.0000
  O   O17       1.0  0.11390705290452267  0.21704400898574505  0.860135855636308  1.0000
  O   O18       1.0  0.8860934385255701  0.7829560610427819  0.13986425632271685  1.0000
  O   O19       1.0  0.13879803267111868  0.224297330294263  0.2000685266959223  1.0000
  O   O20       1.0  0.8612002907019228  0.7757019500331095  0.7999314260992775  1.0000
  O   O21       1.0  0.07547711028944795  0.9342339880692092  0.8745960922193916  1.0000
  O   O22       1.0  0.9245223964021175  0.06576608072074919  0.1254029948438527  1.0000
  O   O23       1.0  0.22739140554763537  0.30544119143456777  0.07714323805637238  1.0000
  O   O24       1.0  0.7726081044589036  0.6945588815925133  0.922857281947877  1.0000
  O   O25       1.0  0.7868752328886541  0.9603273245110768  0.8654860177263827  1.0000
  O   O26       1.0  0.21312288361696824  0.039671157999464406  0.1345122433440409  1.0000
  O   O27       1.0  0.89406051720713  0.2703653113799972  0.2093659395532298  1.0000
  O   O28       1.0  0.10593878593198976  0.7296339638302526  0.7906328887262432  1.0000
  O   O29       1.0  0.15828384805002568  0.028350733517036996  0.7497298714856768  1.0000
  O   O30       1.0  0.8417176264611183  0.9716493356314827  0.2502705488986265  1.0000
  O   O31       1.0  0.8755638794649697  0.23974924926065458  0.8550637757367454  1.0000
  O   O32       1.0  0.12443661030764731  0.760250818649304  0.14493561975177732  1.0000
