data_image0
_chemical_formula_structural       Al4H44C64N16O28
_chemical_formula_sum              "Al4 H44 C64 N16 O28"
_cell_length_a       6.775167492486624
_cell_length_b       19.85707630357337
_cell_length_c       23.904777320606758
_cell_angle_alpha    90.00004443198087
_cell_angle_beta     90.0011458125665
_cell_angle_gamma    89.99686739301234

_space_group_name_H-M_alt    "P 1"
_space_group_IT_number       1

loop_
  _space_group_symop_operation_xyz
  'x, y, z'

loop_
  _atom_site_type_symbol
  _atom_site_label
  _atom_site_symmetry_multiplicity
  _atom_site_fract_x
  _atom_site_fract_y
  _atom_site_fract_z
  _atom_site_occupancy
  Al  Al1       1.0  0.8614828611946808  0.7504178693493201  0.7504085617607572  1.0000
  Al  Al2       1.0  0.13851018411085653  0.2495881264832747  0.2504089637116635  1.0000
  Al  Al3       1.0  0.3614861558227105  0.7495757469027353  0.7495916514877052  1.0000
  Al  Al4       1.0  0.6385097221159839  0.2504251838533307  0.24958854442097334  1.0000
  H   H1        1.0  0.27544438533249155  0.5996570381908911  0.4251047026501596  1.0000
  H   H2        1.0  0.28064843612646934  0.6302355004920841  0.4902620352946627  1.0000
  H   H3        1.0  0.7946062123013533  0.3873057860580147  0.5903380737686206  1.0000
  H   H4        1.0  0.666841101696818  0.37826710453719403  0.5306250279039305  1.0000
  H   H5        1.0  0.7245370332801855  0.4003501056408538  0.9251019800757944  1.0000
  H   H6        1.0  0.7193453585954901  0.3697623663245223  0.9902545834635603  1.0000
  H   H7        1.0  0.20541238043324483  0.612683967290195  0.090337586527987  1.0000
  H   H8        1.0  0.333174757820764  0.621729600118762  0.030626804906937397  1.0000
  H   H9        1.0  0.7754034132039821  0.9003281279678461  0.07490671771574851  1.0000
  H   H10       1.0  0.7806979985816582  0.8697663774690693  0.0097456184389912  1.0000
  H   H11       1.0  0.2945713004886771  0.1126918661194765  0.9096620122744526  1.0000
  H   H12       1.0  0.16677962699627363  0.12172845330794499  0.9693704931132248  1.0000
  H   H13       1.0  0.22471775021011814  0.09970790997032  0.5749131850270217  1.0000
  H   H14       1.0  0.21928384597099893  0.13023915774175518  0.5097417591229103  1.0000
  H   H15       1.0  0.7054403545103511  0.8873051617082407  0.4096688338920488  1.0000
  H   H16       1.0  0.833206720513914  0.87827975379156  0.46937999706906913  1.0000
  H   H17       1.0  0.8029975896389063  0.6058385153500225  0.4127430099012699  1.0000
  H   H18       1.0  0.7918798985328834  0.531243824944056  0.3811916038175199  1.0000
  H   H19       1.0  0.37069686593009266  0.44543392274693633  0.5781599798307298  1.0000
  H   H20       1.0  0.18600240835802848  0.4472362604801034  0.6230079246116631  1.0000
  H   H21       1.0  0.19701893801961032  0.3941545924775767  0.9127456012650798  1.0000
  H   H22       1.0  0.208111400357204  0.4687476633873401  0.8811895380880442  1.0000
  H   H23       1.0  0.62928307119698  0.5546057601644206  0.0781159545853001  1.0000
  H   H24       1.0  0.8138718282898765  0.552706812933252  0.1230027937342513  1.0000
  H   H25       1.0  0.30301637566494577  0.89416413407168  0.08726129082533161  1.0000
  H   H26       1.0  0.2919205935997411  0.9687576786532046  0.11881479173062101  1.0000
  H   H27       1.0  0.8706407199029942  0.054547204248876796  0.9218266982014782  1.0000
  H   H28       1.0  0.6859051971124899  0.05275981478803258  0.8769888459043786  1.0000
  H   H29       1.0  0.6970002980470794  0.10583910753857136  0.5872566043603271  1.0000
  H   H30       1.0  0.7080755535008338  0.031245673497650707  0.6188135010247819  1.0000
  H   H31       1.0  0.1293904141141695  0.9455252882041377  0.42175327488543257  1.0000
  H   H32       1.0  0.3143245864844886  0.9471438891763952  0.3769818442362549  1.0000
  H   H33       1.0  0.3286400602884428  0.41939860062552015  0.413036389440343  1.0000
  H   H34       1.0  0.5284179276007495  0.5717098434737764  0.5299091452942264  1.0000
  H   H35       1.0  0.6713647058976092  0.5806151656670692  0.9130428983988353  1.0000
  H   H36       1.0  0.47159782849166737  0.428285828727546  0.029915357771322707  1.0000
  H   H37       1.0  0.8286420295238487  0.08058674815779199  0.08696357460286211  1.0000
  H   H38       1.0  0.028424381203414797  0.9282856454881739  0.9701074779085346  1.0000
  H   H39       1.0  0.17131852382874507  0.9194663416676434  0.5869745195911449  1.0000
  H   H40       1.0  0.9715664973972197  0.07170345073999579  0.4701155215051926  1.0000
  H   H41       1.0  0.6132660441187808  0.6670160966286928  0.7274250349300858  1.0000
  H   H42       1.0  0.386739911217596  0.33298858143803745  0.2274179982770548  1.0000
  H   H43       1.0  0.11323701478671919  0.8329788015943008  0.7725752492902274  1.0000
  H   H44       1.0  0.8867651403591666  0.16702243890575363  0.2725752556284178  1.0000
  C   C1        1.0  0.6120525053753453  0.830149995621724  0.6743044772173761  1.0000
  C   C2        1.0  0.3892223141544022  0.1730412286471648  0.3274211978943172  1.0000
  C   C3        1.0  0.3879457638883252  0.16984121997111856  0.1743125090786108  1.0000
  C   C4        1.0  0.6107597333880009  0.826969004362965  0.8274211884105753  1.0000
  C   C5        1.0  0.11208898676149201  0.6698369373265578  0.8256941341270335  1.0000
  C   C6        1.0  0.8892316920577771  0.3269675837631353  0.17256996369695798  1.0000
  C   C7        1.0  0.8878972380390665  0.33017323418888367  0.3256828360849724  1.0000
  C   C8        1.0  0.11078551365557841  0.6730205481502621  0.672580769886146  1.0000
  C   C9        1.0  0.882144075841005  0.5273151654754997  0.4619763253180622  1.0000
  C   C10       1.0  0.10650819078395561  0.4661249260826282  0.5432035856679107  1.0000
  C   C11       1.0  0.11785891035382431  0.4726781746984158  0.9619754494729875  1.0000
  C   C12       1.0  0.8935139161342819  0.5338717199082906  0.0432022149930518  1.0000
  C   C13       1.0  0.3821537994684264  0.9726833095184733  0.0380271161719108  1.0000
  C   C14       1.0  0.6064719774522658  0.033870312831083986  0.9567965541932608  1.0000
  C   C15       1.0  0.6178321356772332  0.027316679846897802  0.5380255237981899  1.0000
  C   C16       1.0  0.39350221684730974  0.9661293918883372  0.4567945299952997  1.0000
  C   C17       1.0  0.09708097601515679  0.5498852611239824  0.4807213835455144  1.0000
  C   C18       1.0  0.8921499805399832  0.44368022456768597  0.52562565662911  1.0000
  C   C19       1.0  0.9029261983782321  0.4501117639298187  0.9807174586728281  1.0000
  C   C20       1.0  0.10786515533415302  0.5563157994904485  0.0256235730753431  1.0000
  C   C21       1.0  0.5970833887883485  0.9501118366195697  0.019282557806768404  1.0000
  C   C22       1.0  0.3921193896626534  0.056318360834460186  0.9743756564874317  1.0000
  C   C23       1.0  0.4029131198731194  0.04989856792219171  0.5192754846952142  1.0000
  C   C24       1.0  0.6078514441333811  0.9436824698723499  0.4743749269382604  1.0000
  C   C25       1.0  0.10250729739549061  0.6283241316235433  0.6254053622993752  1.0000
  C   C26       1.0  0.8917856007317155  0.3723755326419819  0.374846996966248  1.0000
  C   C27       1.0  0.8975016088956097  0.3716708919803864  0.1253956113028778  1.0000
  C   C28       1.0  0.10821511524973458  0.6276323495606135  0.8748479776266366  1.0000
  C   C29       1.0  0.6024907580295816  0.8716695931038742  0.8745986899471916  1.0000
  C   C30       1.0  0.39180628771086395  0.12764063299556477  0.1251516936809622  1.0000
  C   C31       1.0  0.39750992116699285  0.128335762214391  0.3745938746401976  1.0000
  C   C32       1.0  0.6081450181680169  0.8723498515498846  0.6251451966416113  1.0000
  C   C33       1.0  0.8197344565001076  0.521887909673616  0.5248981293689496  1.0000
  C   C34       1.0  0.1644069575166114  0.47012414904450134  0.48011321323114936  1.0000
  C   C35       1.0  0.18027024213404994  0.47810708185269135  0.024896579374122  1.0000
  C   C36       1.0  0.8356148885413717  0.5298728538763838  0.9801074624398682  1.0000
  C   C37       1.0  0.3197178065217087  0.978108972145648  0.9751083706796564  1.0000
  C   C38       1.0  0.6643946919903669  0.029871525181974296  0.019889307618612403  1.0000
  C   C39       1.0  0.6802708445151636  0.021888862213835094  0.47510802856639595  1.0000
  C   C40       1.0  0.33557090844020376  0.9701363840446434  0.5198818815450608  1.0000
  C   C41       1.0  0.03446604240537  0.5436744097647476  0.5434265036020705  1.0000
  C   C42       1.0  0.9490264519392967  0.45122228933698244  0.461642534771052  1.0000
  C   C43       1.0  0.9655442890000643  0.45632325174683064  0.04342355971068201  1.0000
  C   C44       1.0  0.050972058318464505  0.5487730535762411  0.9616407543725812  1.0000
  C   C45       1.0  0.5344527200248308  0.9563221176040739  0.9565784047220802  1.0000
  C   C46       1.0  0.4490231219073736  0.0487793291551171  0.0383594862901901  1.0000
  C   C47       1.0  0.46554358253154504  0.04367908929580009  0.4565746916804515  1.0000
  C   C48       1.0  0.5509421981009909  0.9512226872054582  0.5383595476521847  1.0000
  C   C49       1.0  0.07542095278509461  0.590272065948767  0.5861375049327222  1.0000
  C   C50       1.0  0.9104776531803226  0.4071530653945388  0.4164842942723865  1.0000
  C   C51       1.0  0.9245911290837158  0.40972207134955585  0.0861364874227846  1.0000
  C   C52       1.0  0.08951875190250291  0.5928391684576865  0.916487339972079  1.0000
  C   C53       1.0  0.5754072230459713  0.9097182371726831  0.9138648817931525  1.0000
  C   C54       1.0  0.4104786237657834  0.09285257458312655  0.0835169011126027  1.0000
  C   C55       1.0  0.4245932321897215  0.0902829684809419  0.4138621939744453  1.0000
  C   C56       1.0  0.5894828965920952  0.9071470114972083  0.5835146244467069  1.0000
  C   C57       1.0  0.3426468130605612  0.44238607343020653  0.4553644807156161  1.0000
  C   C58       1.0  0.6397889163029048  0.5424689857245681  0.5541698902041361  1.0000
  C   C59       1.0  0.6573640743643808  0.5576171044130402  0.9553656690166151  1.0000
  C   C60       1.0  0.36021558950564975  0.4575285527163329  0.0541683465112826  1.0000
  C   C61       1.0  0.842643441380403  0.05760422341379718  0.04463422428636931  1.0000
  C   C62       1.0  0.13977408634887922  0.9575243416844189  0.9458416812610579  1.0000
  C   C63       1.0  0.15731688650495101  0.9424206771962529  0.5446346020996415  1.0000
  C   C64       1.0  0.8602339449333414  0.042463391279809984  0.4458454131956842  1.0000
  N   N1        1.0  0.19646714053114783  0.6067453864952128  0.4608297085271289  1.0000
  N   N2        1.0  0.8026013018937094  0.3864078106196587  0.5477712777800647  1.0000
  N   N3        1.0  0.8035238733304483  0.39325697828709844  0.960825872422177  1.0000
  N   N4        1.0  0.1974170373587967  0.613584968444769  0.04777202699659  1.0000
  N   N5        1.0  0.6964701704228987  0.8932479680886445  0.0391716944885658  1.0000
  N   N6        1.0  0.3025507238047567  0.11358972056254397  0.9522288059803047  1.0000
  N   N7        1.0  0.3035749723729353  0.10677169970197299  0.5391629158861235  1.0000
  N   N8        1.0  0.6974316656718571  0.8864073043034039  0.4522348140018266  1.0000
  N   N9        1.0  0.7692040983747149  0.5561231448239212  0.41803165410405546  1.0000
  N   N10       1.0  0.22483608117253343  0.4338886700358914  0.583253676762304  1.0000
  N   N11       1.0  0.23079843462679864  0.44387166148051443  0.9180305757272437  1.0000
  N   N12       1.0  0.7751637747793653  0.5661018404088124  0.083249084297087  1.0000
  N   N13       1.0  0.26923072599419845  0.9438821469396217  0.0819747478868322  1.0000
  N   N14       1.0  0.7247773519689176  0.06610335974526999  0.9167409910577221  1.0000
  N   N15       1.0  0.7307645189894671  0.05611889402444349  0.5819720386032899  1.0000
  N   N16       1.0  0.27523089705236004  0.9338863645933553  0.41673598153377617  1.0000
  O   O1        1.0  0.4437969694263942  0.8093084333996569  0.8076893774865752  1.0000
  O   O2        1.0  0.5569052908370651  0.18648040071013128  0.1932666627099238  1.0000
  O   O3        1.0  0.5561733637199994  0.1906844826454801  0.3076763810791974  1.0000
  O   O4        1.0  0.4431031047530283  0.8135296152166944  0.6932737052974716  1.0000
  O   O5        1.0  0.943807092773504  0.6906842853054941  0.692310812232094  1.0000
  O   O6        1.0  0.0568345223506697  0.31357152348446954  0.3066957289029233  1.0000
  O   O7        1.0  0.05620263130690261  0.30928641546503843  0.1922860116658782  1.0000
  O   O8        1.0  0.9431519125862025  0.6864621489044254  0.8067189547495133  1.0000
  O   O9        1.0  0.7807776611716905  0.8146525430509328  0.6939400380194555  1.0000
  O   O10       1.0  0.21978910465566062  0.1902973021370471  0.30926523741199935  1.0000
  O   O11       1.0  0.21922639917647763  0.18532375605336424  0.1939636561930271  1.0000
  O   O12       1.0  0.7801844150547554  0.8097349502027951  0.8092484270358186  1.0000
  O   O13       1.0  0.2808270780099064  0.685338821277476  0.806060616653987  1.0000
  O   O14       1.0  0.7198216248860163  0.30975044294892473  0.19075776498629443  1.0000
  O   O15       1.0  0.7191518776102868  0.31466008025321907  0.306063948711369  1.0000
  O   O16       1.0  0.2801923097125467  0.6902519298249954  0.6907564111293142  1.0000
  O   O17       1.0  0.6118860425364758  0.7092191008419205  0.7479179401366594  1.0000
  O   O18       1.0  0.38810516471895806  0.29078177070513783  0.2479064412033551  1.0000
  O   O19       1.0  0.11188350430052908  0.7907713719889528  0.752089037748462  1.0000
  O   O20       1.0  0.888117163626255  0.2092321650468207  0.2520901588912565  1.0000
  O   O21       1.0  0.504615322330551  0.444163404914498  0.4791504774437669  1.0000
  O   O22       1.0  0.6094525240749106  0.5271208477261451  0.6033970522934524  1.0000
  O   O23       1.0  0.4954004827231487  0.5558426290905131  0.9791530081243495  1.0000
  O   O24       1.0  0.3905354868005518  0.4728703763031702  0.10339932820573948  1.0000
  O   O25       1.0  0.0046030816247793005  0.05583368551516087  0.0208441408828435  1.0000
  O   O26       1.0  0.10940201560365641  0.9728703209736904  0.8966153645299001  1.0000
  O   O27       1.0  0.9953508528187385  0.9441918840714507  0.5208450747303673  1.0000
  O   O28       1.0  0.8906121765085899  0.027107611784899194  0.39662153453299714  1.0000
