data_image0
_chemical_formula_structural       Zn2H34C44N10O10
_chemical_formula_sum              "Zn2 H34 C44 N10 O10"
_cell_length_a       8.477514777670569
_cell_length_b       10.250252354219198
_cell_length_c       12.952467783898161
_cell_angle_alpha    75.09994662048626
_cell_angle_beta     87.44739464754193
_cell_angle_gamma    77.42581653535258

_space_group_name_H-M_alt    "P 1"
_space_group_IT_number       1

loop_
  _space_group_symop_operation_xyz
  'x, y, z'

loop_
  _atom_site_type_symbol
  _atom_site_label
  _atom_site_symmetry_multiplicity
  _atom_site_fract_x
  _atom_site_fract_y
  _atom_site_fract_z
  _atom_site_occupancy
  Zn  Zn1       1.0  0.1394433719470101  0.22289777354149717  0.152907140456044  1.0000
  Zn  Zn2       1.0  0.8605551079407473  0.7771065310711407  0.8470892159598052  1.0000
  H   H1        1.0  0.09705091249593066  0.7388517320674238  0.1304750004846724  1.0000
  H   H2        1.0  0.9029524660249063  0.26115670473803493  0.869518871574691  1.0000
  H   H3        1.0  0.3617255576408168  0.3959955387785784  0.36706868239770074  1.0000
  H   H4        1.0  0.6382455575638912  0.6040046673275513  0.6329338217332676  1.0000
  H   H5        1.0  0.325048368406044  0.8123866827246219  0.39482892541725784  1.0000
  H   H6        1.0  0.674952063689659  0.18761453451539722  0.6051664439840749  1.0000
  H   H7        1.0  0.8525504284601693  0.9410595397807459  0.03395787612619461  1.0000
  H   H8        1.0  0.14744532475292257  0.05895092802624902  0.9660411981876253  1.0000
  H   H9        1.0  0.9317638690305113  0.08206528606093852  0.33025648568477095  1.0000
  H   H10       1.0  0.06823819409036956  0.9179246000975854  0.6697379834900802  1.0000
  H   H11       1.0  0.4759474643534247  0.14100161810156922  0.3150968904761342  1.0000
  H   H12       1.0  0.5240539025243862  0.8589861563632231  0.6849026448994806  1.0000
  H   H13       1.0  0.5767939504944976  0.1580772479966868  0.4261624742798489  1.0000
  H   H14       1.0  0.4232029058283046  0.8419239150443546  0.5738391750604562  1.0000
  H   H15       1.0  0.4859122144994571  0.9972949764718354  0.1992397715179236  1.0000
  H   H16       1.0  0.5140937348342404  0.002697834298317001  0.8007694631156923  1.0000
  H   H17       1.0  0.6673534142563112  0.05355839877294241  0.15707106180760633  1.0000
  H   H18       1.0  0.3326465449389173  0.9464396088026137  0.8429357608253412  1.0000
  H   H19       1.0  0.5875530321738934  0.6544794938298754  0.9892124155182103  1.0000
  H   H20       1.0  0.4124571623749986  0.34552991509895054  0.010784949162157885  1.0000
  H   H21       1.0  0.786100309236282  0.6934614929743647  0.2700546527870528  1.0000
  H   H22       1.0  0.21391621183030193  0.3065365063596844  0.7299478822501371  1.0000
  H   H23       1.0  0.4554184407463922  0.7622225855310634  0.15817747634986992  1.0000
  H   H24       1.0  0.5445905719171761  0.2377723380633015  0.8418258584901892  1.0000
  H   H25       1.0  0.7362076286995742  0.9642462984616886  0.5418366265418227  1.0000
  H   H26       1.0  0.2637908238354356  0.03574346080105071  0.4581710865640005  1.0000
  H   H27       1.0  0.7907968364782078  0.44060349762372664  0.0801743363799403  1.0000
  H   H28       1.0  0.20920381509198188  0.55939661356814  0.91982819382914  1.0000
  H   H29       1.0  0.5127723350547767  0.36430156364478006  0.18668531690997975  1.0000
  H   H30       1.0  0.4872310354538597  0.6356923681978942  0.8133160429549022  1.0000
  H   H31       1.0  0.8841704356384951  0.7202563727090592  0.5866105968670042  1.0000
  H   H32       1.0  0.11582870153525696  0.27973547401514054  0.41339437136871743  1.0000
  H   H33       1.0  0.9089501385710862  0.5843083407031389  0.44872008955774595  1.0000
  H   H34       1.0  0.09106410523667557  0.4156844942172455  0.5512842930588704  1.0000
  C   C1        1.0  0.16836443158599923  0.6998354583403953  0.20415404116140928  1.0000
  C   C2        1.0  0.8316271308414043  0.30017301319979606  0.7958401299774709  1.0000
  C   C3        1.0  0.22632099205297612  0.5576852113307428  0.2429491863356503  1.0000
  C   C4        1.0  0.7736647958423362  0.44232734288927855  0.7570505073871914  1.0000
  C   C5        1.0  0.20459933229975036  0.7921104521636269  0.25792875541456073  1.0000
  C   C6        1.0  0.7953975510998178  0.20789076741938567  0.7420674774875168  1.0000
  C   C7        1.0  0.3190841405013741  0.5065351886077637  0.33694885956531107  1.0000
  C   C8        1.0  0.6809037010341753  0.49346913918871854  0.6630485397989858  1.0000
  C   C9        1.0  0.2965471706617037  0.7415472094708379  0.35233357849763547  1.0000
  C   C10       1.0  0.7034449746961614  0.2584539997737992  0.6476650953669177  1.0000
  C   C11       1.0  0.763111383693371  0.8776885213023816  0.042905430564403005  1.0000
  C   C12       1.0  0.2368929887686733  0.12231573363319373  0.9570938714192465  1.0000
  C   C13       1.0  0.1497935552884968  0.9447525965894599  0.2101276502482818  1.0000
  C   C14       1.0  0.8502067869792427  0.055253783933743306  0.7898667051664107  1.0000
  C   C15       1.0  0.35236089841053797  0.5992119875808372  0.3906523547528025  1.0000
  C   C16       1.0  0.6476216296130844  0.40078511951972484  0.609347375546264  1.0000
  C   C17       1.0  0.18960951093000475  0.4594708347882348  0.18357541956543594  1.0000
  C   C18       1.0  0.8103775677431598  0.5405365930622424  0.8164213893516533  1.0000
  C   C19       1.0  0.8572957206233837  0.1711377934896916  0.277089113600816  1.0000
  C   C20       1.0  0.14270648374833425  0.8288561741361492  0.7229091810644589  1.0000
  C   C21       1.0  0.6907664307741965  0.8915293782236378  0.30306111091901755  1.0000
  C   C22       1.0  0.30924444040123683  0.1084676132038709  0.6969409966967675  1.0000
  C   C23       1.0  0.6761327997281225  0.9684483326985643  0.380591840111876  1.0000
  C   C24       1.0  0.32387334114182653  0.031548664545411505  0.6194111609126125  1.0000
  C   C25       1.0  0.594826877162518  0.11996084249845046  0.35371343388978  1.0000
  C   C26       1.0  0.40517691596117783  0.8800361940021733  0.646286531843053  1.0000
  C   C27       1.0  0.6176041778962185  0.9619306158390021  0.19301891386511016  1.0000
  C   C28       1.0  0.3824015326224525  0.038063260592181805  0.8069870288452066  1.0000
  C   C29       1.0  0.6230045231418373  0.7295235967631799  0.023809417419293728  1.0000
  C   C30       1.0  0.37700078051018693  0.27048169612768186  0.976188884063774  1.0000
  C   C31       1.0  0.7740302873366574  0.7536598688831192  0.32925816560415916  1.0000
  C   C32       1.0  0.22598251670618194  0.24633399478464219  0.670746823881565  1.0000
  C   C33       1.0  0.5562660654162952  0.7821169993604615  0.10686806244422085  1.0000
  C   C34       1.0  0.4437416758099602  0.21788309099056855  0.8931342883171425  1.0000
  C   C35       1.0  0.7465274170235078  0.9050442086142356  0.4818075195947883  1.0000
  C   C36       1.0  0.2534747602714588  0.09494970246963423  0.5181961915087215  1.0000
  C   C37       1.0  0.7767867596003627  0.3566620349337058  0.1482088388961458  1.0000
  C   C38       1.0  0.22321610620145546  0.643333971689053  0.8517913535603725  1.0000
  C   C39       1.0  0.6407539310687796  0.32028250941760217  0.1986245821942703  1.0000
  C   C40       1.0  0.3592479996749417  0.6797124511724492  0.8013773845397196  1.0000
  C   C41       1.0  0.8308327769007275  0.7674050039512964  0.5071439773901574  1.0000
  C   C42       1.0  0.16917226831974116  0.23258682540553371  0.4928608413058058  1.0000
  C   C43       1.0  0.8439771124903288  0.6919448505102823  0.4304980868764687  1.0000
  C   C44       1.0  0.15603822309880389  0.30805314421981944  0.5695052518455626  1.0000
  N   N1        1.0  0.7515009329228872  0.7900459288744985  0.9845276860210106  1.0000
  N   N2        1.0  0.24849771142435628  0.20996250566999922  0.015467853223931587  1.0000
  N   N3        1.0  0.9105602630053865  0.26204252741879946  0.19787981581580277  1.0000
  N   N4        1.0  0.08944261053265017  0.7379534953588093  0.8021188290869361  1.0000
  N   N5        1.0  0.6943155476733408  0.2022786039002115  0.2794579599125413  1.0000
  N   N6        1.0  0.3056861481234562  0.7977174304282927  0.7205399411212666  1.0000
  N   N7        1.0  0.6457172239254162  0.875994217815972  0.11744148438043565  1.0000
  N   N8        1.0  0.3542888348527811  0.12400795886604501  0.8825589551036259  1.0000
  N   N9        1.0  0.4349033225380408  0.5524777716533651  0.4928901679973237  1.0000
  N   N10       1.0  0.5650836853717108  0.4475203710594897  0.5071076983004161  1.0000
  O   O1        1.0  0.2536685463640892  0.3292290042750706  0.22452195287186782  1.0000
  O   O2        1.0  0.746332468938064  0.6707794394773289  0.7754719790033988  1.0000
  O   O3        1.0  0.21812999657627324  0.02496479639433601  0.24791949364532687  1.0000
  O   O4        1.0  0.7818791332680136  0.9750395092667433  0.7520734984914057  1.0000
  O   O5        1.0  0.04613446191417122  0.9865590041787444  0.13634693214198984  1.0000
  O   O6        1.0  0.9538627465362667  0.013450467190558904  0.8636484401951705  1.0000
  O   O7        1.0  0.10336615363351603  0.5036229762179615  0.101169714540049  1.0000
  O   O8        1.0  0.8966173686072949  0.49638443782066594  0.898829505431557  1.0000
  O   O9        1.0  0.3828704654815099  0.6128535185790939  0.5662018887828707  1.0000
  O   O10       1.0  0.6171103646216238  0.3871456425427625  0.43379902534644543  1.0000
