data_image0
_chemical_formula_structural       Zn4H36C88Br6N4O28
_chemical_formula_sum              "Zn4 H36 C88 Br6 N4 O28"
_cell_length_a       13.221741192210905
_cell_length_b       13.859630650584704
_cell_length_c       28.494117005912127
_cell_angle_alpha    90.29208750848932
_cell_angle_beta     89.82384175105321
_cell_angle_gamma    89.91327283617413

_space_group_name_H-M_alt    "P 1"
_space_group_IT_number       1

loop_
  _space_group_symop_operation_xyz
  'x, y, z'

loop_
  _atom_site_type_symbol
  _atom_site_label
  _atom_site_symmetry_multiplicity
  _atom_site_fract_x
  _atom_site_fract_y
  _atom_site_fract_z
  _atom_site_occupancy
  Zn  Zn1       1.0  0.5038213159983654  0.40837208685206866  0.4958791560716024  1.0000
  Zn  Zn2       1.0  0.48273867869735193  0.6090379748792005  0.5006058795133796  1.0000
  Zn  Zn3       1.0  0.5044838955426059  0.5921350636313676  0.03795753192261491  1.0000
  Zn  Zn4       1.0  0.4841344626279849  0.3914980066085861  0.03321094513584911  1.0000
  H   H1        1.0  0.39652017335304635  0.2620208885837414  0.5488125902514229  1.0000
  H   H2        1.0  0.31921556218514985  0.10929332358289659  0.5830614714080369  1.0000
  H   H3        1.0  0.6199795736556624  0.2507170988715188  0.44723281593601893  1.0000
  H   H4        1.0  0.5923754121134621  0.7546114272450948  0.4476564487967566  1.0000
  H   H5        1.0  0.6723815623595185  0.9080721923186914  0.4143407010829066  1.0000
  H   H6        1.0  0.3751438322860636  0.7667604811654628  0.5520194560341383  1.0000
  H   H7        1.0  0.5055510671917675  0.6211824282779901  0.18884460575932144  1.0000
  H   H8        1.0  0.5045005752688283  0.31211674717645377  0.17850019036362144  1.0000
  H   H9        1.0  0.506043174714314  0.3782835072845431  0.34487384466537213  1.0000
  H   H10       1.0  0.5038875414183863  0.6873536937681946  0.3551962751258842  1.0000
  H   H11       1.0  0.49006118321561587  0.6681148093861893  0.6525075870436866  1.0000
  H   H12       1.0  0.49429212039927245  0.7501768845014211  0.7306431858443576  1.0000
  H   H13       1.0  0.49202720482543333  0.36059862740378185  0.6426463453813724  1.0000
  H   H14       1.0  0.4906162537591213  0.332342539824623  0.8813050987676692  1.0000
  H   H15       1.0  0.49331019639283374  0.2503626665413563  0.8032387646896029  1.0000
  H   H16       1.0  0.4939205499111807  0.639807774957184  0.8912832861258908  1.0000
  H   H17       1.0  0.8303619349582831  0.36984577246918343  0.49851176532757796  1.0000
  H   H18       1.0  0.79768973170858  0.6776232782419384  0.5038318382634516  1.0000
  H   H19       1.0  0.15843113008934753  0.6237844542998303  0.5010364137439326  1.0000
  H   H20       1.0  0.1916540334872181  0.31588129295678863  0.4966095205616556  1.0000
  H   H21       1.0  0.39711727815332415  0.7388998144881211  0.9852595584380455  1.0000
  H   H22       1.0  0.32025082920466724  0.8919605039543014  0.9510958877773206  1.0000
  H   H23       1.0  0.6201549717833147  0.7493511487229514  0.0863885586546118  1.0000
  H   H24       1.0  0.5936257644828231  0.2455192589689901  0.0857832517981336  1.0000
  H   H25       1.0  0.6731173723756001  0.09181250892975609  0.11902696027171801  1.0000
  H   H26       1.0  0.3765734538276888  0.2342975357538322  0.9819684720664982  1.0000
  H   H27       1.0  0.8309573274242651  0.6310443059922691  0.03565139507693971  1.0000
  H   H28       1.0  0.799416708407854  0.3232319769488754  0.0313185531155469  1.0000
  H   H29       1.0  0.15996312966756676  0.37717384935695003  0.03401776172400161  1.0000
  H   H30       1.0  0.1920110175544565  0.6851405015054437  0.03732875998026231  1.0000
  H   H31       1.0  0.4044328115348748  0.8600335245275728  0.6261844506199452  1.0000
  H   H32       1.0  0.7738423769822661  0.16221208835978018  0.4569176732918621  1.0000
  H   H33       1.0  0.6210509264106321  0.7142913785128755  0.8562741429503333  1.0000
  H   H34       1.0  0.6193190841527922  0.2846096344407059  0.6771982523535058  1.0000
  H   H35       1.0  0.40574869548913745  0.14125378016223777  0.907846107893967  1.0000
  H   H36       1.0  0.7736986510040252  0.8364433067836998  0.0764873668417465  1.0000
  C   C1        1.0  0.48910656498302535  0.5188386644280599  0.5906814814672502  1.0000
  C   C2        1.0  0.29765758276868587  0.4828978444350014  0.49818997179034613  1.0000
  C   C3        1.0  0.5002235060016815  0.5245324979478951  0.40700811619960586  1.0000
  C   C4        1.0  0.6914646298428622  0.511480044868449  0.500405567100728  1.0000
  C   C5        1.0  0.49082394426223164  0.4814736638000596  0.9431928858461947  1.0000
  C   C6        1.0  0.298674378320797  0.5181618095495182  0.0359252235869292  1.0000
  C   C7        1.0  0.5003393274685379  0.4750730560152476  0.12672222990529042  1.0000
  C   C8        1.0  0.6926013915561029  0.4894016055128958  0.033804918296077305  1.0000
  C   C9        1.0  0.44498475191354464  0.21511780059199034  0.5276383981314013  1.0000
  C   C10       1.0  0.43894191876161404  0.114406762684979  0.530383520999905  1.0000
  C   C11       1.0  0.3695209080201494  0.06629193464551969  0.560868645249812  1.0000
  C   C12       1.0  0.5716401090509534  0.20837077532465295  0.47037920774631914  1.0000
  C   C13       1.0  0.5733952473099038  0.10697395693056679  0.470173666021573  1.0000
  C   C14       1.0  0.6363761827528123  0.04926904935121  0.43935062726508534  1.0000
  C   C15       1.0  0.5486410909892783  0.8017418430728896  0.47086396481464743  1.0000
  C   C16       1.0  0.5589268198335448  0.9023753568987373  0.4699492990366352  1.0000
  C   C17       1.0  0.6270046129950941  0.9506690389762297  0.4389127361099128  1.0000
  C   C18       1.0  0.42582297840565525  0.8088994154911261  0.5298973836822968  1.0000
  C   C19       1.0  0.42941639306563667  0.9100268449544158  0.5323384782988044  1.0000
  C   C20       1.0  0.3655619447061866  0.9675716178861506  0.5627608230915586  1.0000
  C   C21       1.0  0.504246348880308  0.05937804011747261  0.500827202748269  1.0000
  C   C22       1.0  0.4978884829143765  0.9574667502664055  0.501382912762601  1.0000
  C   C23       1.0  0.5061149590212963  0.5513626291551644  0.20610785045622756  1.0000
  C   C24       1.0  0.5057028357122704  0.3764081185284596  0.20052403252077516  1.0000
  C   C25       1.0  0.5082047331546633  0.36972537820969353  0.24860069400882176  1.0000
  C   C26       1.0  0.5075691635486593  0.453161056060047  0.27817362406937474  1.0000
  C   C27       1.0  0.5063604240792116  0.4480920088115424  0.3275941101973957  1.0000
  C   C28       1.0  0.5053127534997445  0.6230725729751754  0.3331532328952705  1.0000
  C   C29       1.0  0.5077179919834053  0.6297332510084318  0.2850677857957181  1.0000
  C   C30       1.0  0.5073703853081  0.5462793258263189  0.25552795851309906  1.0000
  C   C31       1.0  0.5043378354352158  0.4683884680105947  0.17907848687995206  1.0000
  C   C32       1.0  0.504293748142267  0.5311166711877034  0.3546127322897022  1.0000
  C   C33       1.0  0.4922174233755285  0.5986966923261647  0.6702374199058527  1.0000
  C   C34       1.0  0.49497604298805  0.5944872964304294  0.719406879542639  1.0000
  C   C35       1.0  0.4960925939499816  0.6799324897348031  0.7477308703827462  1.0000
  C   C36       1.0  0.494801973263435  0.42425865432680615  0.6651820215256878  1.0000
  C   C37       1.0  0.498989678102788  0.41603463897075693  0.7142228306184252  1.0000
  C   C38       1.0  0.5002214592794161  0.32415971152333617  0.7381025761836781  1.0000
  C   C39       1.0  0.4929080074477099  0.4017695526393439  0.8635886526837384  1.0000
  C   C40       1.0  0.4951161605063136  0.4060168355019799  0.8144195233791082  1.0000
  C   C41       1.0  0.4953746626727522  0.320558508017811  0.7861119562426709  1.0000
  C   C42       1.0  0.49627665062147497  0.5761847715758037  0.8687031108368759  1.0000
  C   C43       1.0  0.5000425605743145  0.584398572675248  0.8196347135583794  1.0000
  C   C44       1.0  0.5015419958045655  0.6762151698674471  0.7957193643335146  1.0000
  C   C45       1.0  0.49194003186217833  0.5142907152041971  0.6433380905832495  1.0000
  C   C46       1.0  0.49796557272818376  0.5025517016054835  0.742008426459293  1.0000
  C   C47       1.0  0.4932581124166616  0.4861331260480881  0.8905190424783102  1.0000
  C   C48       1.0  0.4982681053895774  0.49793814424807437  0.7918339368494928  1.0000
  C   C49       1.0  0.865328463699136  0.44080439727868287  0.49959996719669425  1.0000
  C   C50       1.0  0.8475289803455581  0.6151506030161258  0.502475145730088  1.0000
  C   C51       1.0  0.9509051769351303  0.6251712818487293  0.5024776381901291  1.0000
  C   C52       1.0  0.017345664812268104  0.5439899476491091  0.5008213558386103  1.0000
  C   C53       1.0  0.12363444219925411  0.5527351654140276  0.5003103488866572  1.0000
  C   C54       1.0  0.141872859716436  0.3784099224139156  0.49788934296618254  1.0000
  C   C55       1.0  0.038510759498933594  0.3683757337914812  0.4985715136784209  1.0000
  C   C56       1.0  0.9716613244231452  0.44925934726278177  0.49967913000907066  1.0000
  C   C57       1.0  0.804283216360247  0.5218610087736694  0.5008205057329678  1.0000
  C   C58       1.0  0.1848724905453381  0.47197141194358483  0.498735462153249  1.0000
  C   C59       1.0  0.4455913748856517  0.7855988183193218  0.006318782179548101  1.0000
  C   C60       1.0  0.4396802853345747  0.8863357687425547  0.0035654339643969007  1.0000
  C   C61       1.0  0.37055722117066375  0.9347476597881014  0.9731743737483715  1.0000
  C   C62       1.0  0.5719986428671291  0.791920349891292  0.0633409347505065  1.0000
  C   C63       1.0  0.5738739173365133  0.8933032009195331  0.06351584144747591  1.0000
  C   C64       1.0  0.63683818023312  0.9507618088038966  0.09418719150322373  1.0000
  C   C65       1.0  0.5498556630908951  0.19858259012697493  0.06268842693027922  1.0000
  C   C66       1.0  0.5599191721362118  0.0979299424607731  0.06363640515908742  1.0000
  C   C67       1.0  0.6277210378669268  0.04940392344865781  0.0945751956251684  1.0000
  C   C68       1.0  0.4271569632448262  0.1919415981263057  0.003961401495111301  1.0000
  C   C69       1.0  0.43055590923186327  0.09079148713681919  0.0015257952437011002  1.0000
  C   C70       1.0  0.36678411426741064  0.033477851547544894  0.9712164340268077  1.0000
  C   C71       1.0  0.5048673625081078  0.9411402315813078  0.0330103377791815  1.0000
  C   C72       1.0  0.49876830390645205  0.04308063455842871  0.032396659516152206  1.0000
  C   C73       1.0  0.866178810072121  0.5600872161268313  0.0348345214562684  1.0000
  C   C74       1.0  0.8490141566626831  0.3857092225438165  0.032536036057543107  1.0000
  C   C75       1.0  0.9524304472892525  0.37570247420595143  0.03267858302329071  1.0000
  C   C76       1.0  0.0185985133690352  0.4569282946455288  0.0340847047955535  1.0000
  C   C77       1.0  0.12493637343445839  0.4482335369219044  0.03452949892692201  1.0000
  C   C78       1.0  0.1424887407121886  0.6225746073410648  0.03628756172030731  1.0000
  C   C79       1.0  0.03910169652496621  0.6325599002292677  0.03570379372406761  1.0000
  C   C80       1.0  0.9725453730479713  0.5516576439333748  0.034881667917780114  1.0000
  C   C81       1.0  0.80545287936269  0.47900439909327014  0.0337997962856207  1.0000
  C   C82       1.0  0.18587769544707558  0.5290542632941353  0.03566774748830431  1.0000
  C   C83       1.0  0.29093801579670503  0.9214522275910825  0.5956858650086688  1.0000
  C   C84       1.0  0.7096674717183831  0.0934201458243109  0.40509549126620936  1.0000
  C   C85       1.0  0.5098543982253574  0.7703093633402459  0.8217160943509825  1.0000
  C   C86       1.0  0.5075919315335469  0.22992183162341454  0.7120961201139195  1.0000
  C   C87       1.0  0.2922481376123471  0.07972092523215929  0.9384077479070356  1.0000
  C   C88       1.0  0.7099455186457889  0.9064354881810458  0.1283197039689057  1.0000
  Br  Br1       1.0  0.5124470134617739  0.7553237220183816  0.2580134407246818  1.0000
  Br  Br2       1.0  0.5134465446799368  0.24407401761419578  0.2755870124977378  1.0000
  Br  Br3       1.0  0.9855314918807849  0.2399395429903919  0.4984336117372693  1.0000
  Br  Br4       1.0  0.005223344852183201  0.7525234520385453  0.5053293145641434  1.0000
  Br  Br5       1.0  0.9856964504327976  0.7609750272222869  0.0356464368990999  1.0000
  Br  Br6       1.0  0.0071934088085399  0.24829165880498033  0.0302090884218487  1.0000
  N   N1        1.0  0.5091267418408947  0.2593548206952647  0.4983078915023427  1.0000
  N   N2        1.0  0.4840346720225313  0.7578758671088439  0.5001118482048952  1.0000
  N   N3        1.0  0.5095470609737234  0.7411561772849496  0.035544465366335515  1.0000
  N   N4        1.0  0.48539621490730406  0.24271104088804663  0.0335911867276124  1.0000
  O   O1        1.0  0.4969348154538551  0.4393794279572348  0.5684117844345593  1.0000
  O   O2        1.0  0.47980362134097726  0.6021718548620143  0.5725136850202406  1.0000
  O   O3        1.0  0.3332624804666295  0.5681599089381422  0.4990531495872404  1.0000
  O   O4        1.0  0.34925189759206887  0.4051555968161579  0.49702229621319566  1.0000
  O   O5        1.0  0.4927004499766667  0.6041963345219444  0.42934395339487014  1.0000
  O   O6        1.0  0.5041251783799795  0.44103962062519037  0.4254017530618768  1.0000
  O   O7        1.0  0.6563659630592794  0.4259359833377302  0.49792401589732554  1.0000
  O   O8        1.0  0.6393563056962179  0.5886625593032588  0.5026148784352955  1.0000
  O   O9        1.0  0.4988440985701814  0.5608543668814363  0.9654874333244765  1.0000
  O   O10       1.0  0.48161636083748494  0.3981416937330878  0.961366572775319  1.0000
  O   O11       1.0  0.33459525223337044  0.432929690650532  0.03512495579155941  1.0000
  O   O12       1.0  0.3499783064430347  0.5959465909748543  0.0367721333935194  1.0000
  O   O13       1.0  0.4933362203405025  0.3954169911507038  0.1044032357461262  1.0000
  O   O14       1.0  0.5038111332797399  0.5585852997833953  0.10834758077788112  1.0000
  O   O15       1.0  0.6571725798092912  0.5749448776261799  0.036208346906029504  1.0000
  O   O16       1.0  0.6407459809656189  0.41227316938558545  0.0313450795269645  1.0000
  O   O17       1.0  0.3305675839181035  0.859089406116759  0.6277540837822074  1.0000
  O   O18       1.0  0.2008409439143435  0.9375082687093937  0.5946325405788289  1.0000
  O   O19       1.0  0.7779059119842274  0.1577571581789456  0.4226946888911486  1.0000
  O   O20       1.0  0.7100479333035565  0.07280259796614531  0.36368795526939124  1.0000
  O   O21       1.0  0.5840296168844078  0.775417350868352  0.855234632600457  1.0000
  O   O22       1.0  0.4578821881772868  0.8407714589537605  0.8139392129980295  1.0000
  O   O23       1.0  0.581734804796966  0.22391167449189447  0.6783775685322412  1.0000
  O   O24       1.0  0.4550460439176263  0.1600286600603553  0.7200767987243354  1.0000
  O   O25       1.0  0.33189179768940846  0.1423315417474598  0.9064053280078284  1.0000
  O   O26       1.0  0.20222525147743653  0.0635260134274205  0.9395361547348672  1.0000
  O   O27       1.0  0.7777391988345811  0.8412892623170762  0.11068660416238173  1.0000
  O   O28       1.0  0.7106130181995453  0.9275704718917622  0.16966526202092075  1.0000
