data_image0
_chemical_formula_structural       Cu6H24C14I2N22
_chemical_formula_sum              "Cu6 H24 C14 I2 N22"
_cell_length_a       7.573386771749397
_cell_length_b       10.337373738203905
_cell_length_c       11.006625800101611
_cell_angle_alpha    71.28686664560945
_cell_angle_beta     69.87366549102197
_cell_angle_gamma    68.51409517703753

_space_group_name_H-M_alt    "P 1"
_space_group_IT_number       1

loop_
  _space_group_symop_operation_xyz
  'x, y, z'

loop_
  _atom_site_type_symbol
  _atom_site_label
  _atom_site_symmetry_multiplicity
  _atom_site_fract_x
  _atom_site_fract_y
  _atom_site_fract_z
  _atom_site_occupancy
  Cu  Cu1       1.0  0.6569755684815846  0.3885186004905705  0.3966658710912157  1.0000
  Cu  Cu2       1.0  0.44233753144768406  0.6114522357601047  0.6033662387942654  1.0000
  Cu  Cu3       1.0  0.6863578594747822  0.10527921826915332  0.10448156263037596  1.0000
  Cu  Cu4       1.0  0.896187361160052  0.8947209448159087  0.8954536257979981  1.0000
  Cu  Cu5       1.0  0.15969862013317024  0.24525749921401294  0.7626973530167901  1.0000
  Cu  Cu6       1.0  0.16771358138575473  0.7547398785166237  0.237281273450769  1.0000
  H   H1        1.0  0.29572162900488064  0.038132560457846396  0.6379673135969951  1.0000
  H   H2        1.0  0.9719196309113444  0.961866268669958  0.36201485887449547  1.0000
  H   H3        1.0  0.40109486073819783  0.167946008658312  0.5561271565802813  1.0000
  H   H4        1.0  0.12527387693863548  0.8320983022837964  0.44382424376843227  1.0000
  H   H5        1.0  0.5894604626979713  0.6695089604377742  0.7569019064493645  1.0000
  H   H6        1.0  0.0158245654743396  0.3305031876147524  0.24330650451280178  1.0000
  H   H7        1.0  0.7075086683013153  0.6667842188252777  0.8738939277181217  1.0000
  H   H8        1.0  0.24818181052101806  0.33312003529962914  0.12625937750712524  1.0000
  H   H9        1.0  0.8454749633171164  0.6532010947590408  0.7069419088337271  1.0000
  H   H10       1.0  0.20563360166786288  0.3468949797529532  0.29315124382310387  1.0000
  H   H11       1.0  0.5013358187316183  0.9210546739427347  0.7674176876311165  1.0000
  H   H12       1.0  0.18996753762527155  0.078899768316262  0.23241675642017162  1.0000
  H   H13       1.0  0.6537404461003148  0.43148122395236044  0.9186044086368953  1.0000
  H   H14       1.0  0.003903474581250008  0.5684541697509219  0.0814047670515805  1.0000
  H   H15       1.0  0.848060068142942  0.9265877157633188  0.6393014082157649  1.0000
  H   H16       1.0  0.4139448615231701  0.07356518329670081  0.3605630003685505  1.0000
  H   H17       1.0  0.7121270597299725  0.9148672634279295  0.5404221294724182  1.0000
  H   H18       1.0  0.16736732914414176  0.085278117184977  0.4594066762286886  1.0000
  H   H19       1.0  0.7504996550512361  0.081737148007555  0.5250148312113295  1.0000
  H   H20       1.0  0.35719832297309045  0.9184159039358095  0.47491482500772253  1.0000
  H   H21       1.0  0.9383390765146019  0.34379846604458214  0.9690169359230865  1.0000
  H   H22       1.0  0.25117198842635685  0.6562393642744271  0.030993603447512865  1.0000
  H   H23       1.0  0.026785592816708146  0.47152355600233165  0.8552982863906137  1.0000
  H   H24       1.0  0.35366108397727203  0.5284844659847322  0.14465548291933317  1.0000
  C   C1        1.0  0.6749301438629516  0.28127029430199  0.2842019600233101  1.0000
  C   C2        1.0  0.24063346887287929  0.7188446286496627  0.7157767421467439  1.0000
  C   C3        1.0  0.5416920340355773  0.10101609684312512  0.7894565269288166  1.0000
  C   C4        1.0  0.4323125803117093  0.8989281875745618  0.21051555370207353  1.0000
  C   C5        1.0  0.7841929288145552  0.39624882239245807  0.7245688947690567  1.0000
  C   C6        1.0  0.9050218369511782  0.6037201277290977  0.27548335054261497  1.0000
  C   C7        1.0  0.7255468617883521  0.6235175547363312  0.789974656109031  1.0000
  C   C8        1.0  0.13905500493957135  0.3764645926867658  0.21014439048892805  1.0000
  C   C9        1.0  0.5342086357249087  0.019761520977191107  0.7015994108837019  1.0000
  C   C10       1.0  0.2556336004788091  0.9802595463226141  0.2983126496327486  1.0000
  C   C11       1.0  0.7704435736474908  0.4616558769351117  0.832298988546725  1.0000
  C   C12       1.0  0.06446124383564471  0.5383005185359337  0.1677153037591665  1.0000
  C   C13       1.0  0.7235478011451947  0.9831616009259391  0.5942974182624213  1.0000
  C   C14       1.0  0.30099526245069097  0.0169712182666899  0.4055828197430955  1.0000
  I   I1        1.0  0.07832878466571468  0.9999950785228718  7.066475760160144e-06  1.0000
  I   I2        1.0  0.2636334407523863  0.49993244149263916  0.5001728216396941  1.0000
  N   N1        1.0  0.7446924043996505  0.3372624847886172  0.5681683971689041  1.0000
  N   N2        1.0  0.6501892011837284  0.6626678748660382  0.4318651275019293  1.0000
  N   N3        1.0  0.5991930089546216  0.1687640341352363  0.9329654161938452  1.0000
  N   N4        1.0  0.7011072122791547  0.8311204663323153  0.06706632574157124  1.0000
  N   N5        1.0  0.3891240827807253  0.21168623235511314  0.8252544828585685  1.0000
  N   N6        1.0  0.4261909354042999  0.7882547411757558  0.1747511616766815  1.0000
  N   N7        1.0  0.9142017897426625  0.2523839521258537  0.5902211711291514  1.0000
  N   N8        1.0  0.7568843717387564  0.7475345167233627  0.4098494087753081  1.0000
  N   N9        1.0  0.42654017763262453  0.25278461999160845  0.9153221279555054  1.0000
  N   N10       1.0  0.5948019348865756  0.7471151127360969  0.08471086576596319  1.0000
  N   N11       1.0  0.9401874384297387  0.28787070223778954  0.6883116605982879  1.0000
  N   N12       1.0  0.9164405981589637  0.7120751627832789  0.311726851412864  1.0000
  N   N13       1.0  0.6707368566988591  0.2180576087172028  0.21319607961135031  1.0000
  N   N14       1.0  0.10222361499482024  0.7820720432135175  0.7867270713907429  1.0000
  N   N15       1.0  0.36063868505400626  0.103956255364217  0.6476180554320051  1.0000
  N   N16       1.0  0.1123014561037719  0.8960484996075168  0.35234334995399047  1.0000
  N   N17       1.0  0.960592238725646  0.395089611181021  0.8709756783970022  1.0000
  N   N18       1.0  0.22670016173361768  0.6049032881785408  0.1290267839618977  1.0000
  N   N19       1.0  0.6761815870927281  0.0724453715327584  0.8540171886298467  1.0000
  N   N20       1.0  0.6027948232073471  0.9274674108868338  0.14600000542751715  1.0000
  N   N21       1.0  0.6590285277717531  0.4292656664430011  0.6512355724317729  1.0000
  N   N22       1.0  0.7395885712278701  0.5707104867739758  0.348760162783073  1.0000
