data_image0
_chemical_formula_structural       Ag4H12C20N24
_chemical_formula_sum              "Ag4 H12 C20 N24"
_cell_length_a       3.537406679786649
_cell_length_b       12.345152251764903
_cell_length_c       14.60657095284951
_cell_angle_alpha    89.99981325146845
_cell_angle_beta     92.44569846505848
_cell_angle_gamma    90.00202223890878

_space_group_name_H-M_alt    "P 1"
_space_group_IT_number       1

loop_
  _space_group_symop_operation_xyz
  'x, y, z'

loop_
  _atom_site_type_symbol
  _atom_site_label
  _atom_site_symmetry_multiplicity
  _atom_site_fract_x
  _atom_site_fract_y
  _atom_site_fract_z
  _atom_site_occupancy
  Ag  Ag1       1.0  0.29335737828785097  0.7046534391803974  0.21609409642810826  1.0000
  Ag  Ag2       1.0  0.7066578301127961  0.20465193542599994  0.2839156708043404  1.0000
  Ag  Ag3       1.0  0.706658420432916  0.295344066477952  0.7839082860211306  1.0000
  Ag  Ag4       1.0  0.293352323303175  0.7953471902757412  0.7160845972394796  1.0000
  H   H1        1.0  0.7333672720587217  0.4158583675447858  0.9674581406384136  1.0000
  H   H2        1.0  0.2666801685703745  0.915865963709841  0.5325512277035145  1.0000
  H   H3        1.0  0.2666287292568867  0.5841399480467117  0.0325426602884775  1.0000
  H   H4        1.0  0.7333328144918809  0.08413559211045649  0.4674490706770556  1.0000
  H   H5        1.0  0.2756094850690403  0.0747642345053947  0.0883537091353404  1.0000
  H   H6        1.0  0.7243650962971769  0.5747857367397131  0.4116395572368461  1.0000
  H   H7        1.0  0.7243893457976185  0.9252348911355381  0.9116471221295515  1.0000
  H   H8        1.0  0.27563092788695087  0.42521581899671895  0.5883578208093709  1.0000
  H   H9        1.0  0.2881505441895698  0.10884734820834298  0.915972935304133  1.0000
  H   H10       1.0  0.711843945020753  0.6088537738130454  0.5840182449680854  1.0000
  H   H11       1.0  0.7118369641277695  0.8911517773717748  0.0840284591818374  1.0000
  H   H12       1.0  0.2881577517294218  0.3911469719225736  0.415977140029149  1.0000
  C   C1        1.0  0.7840717069287209  0.3990147161872386  0.15384460457421056  1.0000
  C   C2        1.0  0.2159211274523472  0.8990246247194589  0.3461575291790879  1.0000
  C   C3        1.0  0.21591863547527618  0.6009852194436504  0.8461561356741428  1.0000
  C   C4        1.0  0.7840805331082165  0.10097774107458687  0.6538433324219213  1.0000
  C   C5        1.0  0.6333310498850863  0.319371447962645  0.0885665971697094  1.0000
  C   C6        1.0  0.3666609138568404  0.819387556806795  0.4114350668905545  1.0000
  C   C7        1.0  0.3666592969592769  0.6806268676004521  0.9114334585042699  1.0000
  C   C8        1.0  0.633346410246183  0.18061480901832988  0.5885651708121031  1.0000
  C   C9        1.0  0.6285183708310029  0.33957194841624266  0.9940948612745615  1.0000
  C   C10       1.0  0.3715031734195406  0.8395815628627402  0.5059069133525398  1.0000
  C   C11       1.0  0.3714719759657398  0.6604255571122976  0.005905194400050099  1.0000
  C   C12       1.0  0.6285041597546979  0.16042080296505648  0.4940919551988615  1.0000
  C   C13       1.0  0.3825694753002792  0.15036699810573842  0.0604100847667652  1.0000
  C   C14       1.0  0.6174168199487012  0.6503872647469323  0.4395837789334608  1.0000
  C   C15       1.0  0.6174293555663722  0.8496321275351946  0.9395907464981264  1.0000
  C   C16       1.0  0.38258769279332216  0.34961510106867155  0.5604136901280441  1.0000
  C   C17       1.0  0.3869089528713658  0.16927554117459206  0.9662192770634094  1.0000
  C   C18       1.0  0.6130954436558297  0.6692851676979426  0.5337759470130052  1.0000
  C   C19       1.0  0.6130842189408128  0.8307227744020408  0.0337814935248417  1.0000
  C   C20       1.0  0.386906239582764  0.3307171981027892  0.46622149170985944  1.0000
  N   N1        1.0  0.018164750598515397  0.5418407163955408  0.21309845680803363  1.0000
  N   N2        1.0  0.9818313788281754  0.041842914580953995  0.2869019795901195  1.0000
  N   N3        1.0  0.981831255300314  0.4581584092318635  0.7869016595426004  1.0000
  N   N4        1.0  0.0181674612049321  0.9581578311317782  0.7130974825222581  1.0000
  N   N5        1.0  0.5061481085909847  0.22463474123601657  0.1217498683399896  1.0000
  N   N6        1.0  0.49384123225451043  0.7246515091508952  0.3782479266286671  1.0000
  N   N7        1.0  0.49384789277224417  0.7753643843900518  0.8782509325862691  1.0000
  N   N8        1.0  0.5061632759519055  0.27535085666337267  0.6217502270084623  1.0000
  N   N9        1.0  0.989021943854297  0.4697356213685707  0.2808319195236564  1.0000
  N   N10       1.0  0.0109707119573699  0.9697365641575144  0.21917069780204204  1.0000
  N   N11       1.0  0.010974057461311304  0.5302626942229266  0.7191688814032275  1.0000
  N   N12       1.0  0.9890281189569021  0.030263371517982293  0.7808301334622244  1.0000
  N   N13       1.0  0.5087645945904596  0.2646027344640841  0.9333122964486193  1.0000
  N   N14       1.0  0.49126230083454897  0.7646125693218977  0.5666870081707884  1.0000
  N   N15       1.0  0.49122574318268863  0.7353955810963412  0.0666891283766233  1.0000
  N   N16       1.0  0.5087478618431119  0.23538979652076353  0.4333118907192458  1.0000
  N   N17       1.0  0.8936070336448407  0.4997844437496041  0.1329117256320487  1.0000
  N   N18       1.0  0.10639199413563459  0.9997923063392801  0.36708950613983393  1.0000
  N   N19       1.0  0.10638331324713587  0.5002146818480568  0.8670883300412983  1.0000
  N   N20       1.0  0.8936153299673819  0.00021005948583759996  0.6329107315628237  1.0000
  N   N21       1.0  0.8426154052460291  0.37917224510879793  0.24422180085284856  1.0000
  N   N22       1.0  0.15737791628897918  0.8791770223115944  0.2557817632559178  1.0000
  N   N23       1.0  0.1573777711493776  0.6208268805037278  0.7557782851591457  1.0000
  N   N24       1.0  0.8426237396407359  0.12082372341199488  0.7442197829219879  1.0000
