data_image0
_chemical_formula_structural       Cd4H36C52N4O24
_chemical_formula_sum              "Cd4 H36 C52 N4 O24"
_cell_length_a       7.537769160459767
_cell_length_b       8.765451616324258
_cell_length_c       19.92166549438908
_cell_angle_alpha    89.99933625311853
_cell_angle_beta     90.00036953258926
_cell_angle_gamma    99.07547262166268

_space_group_name_H-M_alt    "P 1"
_space_group_IT_number       1

loop_
  _space_group_symop_operation_xyz
  'x, y, z'

loop_
  _atom_site_type_symbol
  _atom_site_label
  _atom_site_symmetry_multiplicity
  _atom_site_fract_x
  _atom_site_fract_y
  _atom_site_fract_z
  _atom_site_occupancy
  Cd  Cd1       1.0  0.8074623975949677  0.4130968375554928  0.9481495952507684  1.0000
  Cd  Cd2       1.0  0.6925333621181907  0.5868944113688173  0.4481541692971973  1.0000
  Cd  Cd3       1.0  0.1925278905827525  0.5869004198837615  0.05184431464088138  1.0000
  Cd  Cd4       1.0  0.30747256440635334  0.41309545586153007  0.5518553015805594  1.0000
  H   H1        1.0  0.6229642709522523  0.46763904969531456  0.06535556774631597  1.0000
  H   H2        1.0  0.8770337198006715  0.5323568569289775  0.5653611024508363  1.0000
  H   H3        1.0  0.3770246410473987  0.5323640525739536  0.9346353303324191  1.0000
  H   H4        1.0  0.12297636115888368  0.4676398679480868  0.43464184285585356  1.0000
  H   H5        1.0  0.5367612112687752  0.3058829547337822  0.040629524898136496  1.0000
  H   H6        1.0  0.9632362248852218  0.6941124101078271  0.5406349546534557  1.0000
  H   H7        1.0  0.4632216083004792  0.6941226345448398  0.9593608712006652  1.0000
  H   H8        1.0  0.03677360350022238  0.30588316000937243  0.45936799065584916  1.0000
  H   H9        1.0  0.05369433520508686  0.6911494736519045  0.8821861003247802  1.0000
  H   H10       1.0  0.4462980526055915  0.3088617694042454  0.382192212815248  1.0000
  H   H11       1.0  0.9462989272142934  0.30886745020796985  0.1178073075545996  1.0000
  H   H12       1.0  0.5537521756490875  0.6911303906966068  0.6178187640098327  1.0000
  H   H13       1.0  0.8729831753562038  0.08100910884022741  0.9448646492124907  1.0000
  H   H14       1.0  0.6270011171710762  0.9189906596609487  0.44488092868419926  1.0000
  H   H15       1.0  0.1270154783545152  0.9189960545591304  0.055119221348213905  1.0000
  H   H16       1.0  0.37298125406621097  0.08100681045350197  0.5551375775341824  1.0000
  H   H17       1.0  0.7501484356503596  0.3044229311282294  0.7968341379891655  1.0000
  H   H18       1.0  0.7498474396775876  0.6955871164728932  0.2968317771900786  1.0000
  H   H19       1.0  0.24985204285550108  0.6955845060266341  0.20317131710875455  1.0000
  H   H20       1.0  0.2501424826736809  0.3044206047238447  0.703168156267324  1.0000
  H   H21       1.0  0.4089100613423042  0.0264581792601462  0.8067728460027792  1.0000
  H   H22       1.0  0.09109465716453971  0.9735487689589846  0.3067887595490716  1.0000
  H   H23       1.0  0.5910912880462645  0.9735411038436228  0.1932115265422567  1.0000
  H   H24       1.0  0.9089188206364655  0.026451349023879803  0.693228742769058  1.0000
  H   H25       1.0  0.7868935686205918  0.421572908426988  0.6812592120996042  1.0000
  H   H26       1.0  0.7131103581859009  0.5784165186529577  0.18126036643696608  1.0000
  H   H27       1.0  0.2131078941674858  0.578414755860777  0.31874323125331466  1.0000
  H   H28       1.0  0.2868463803642172  0.4215851258924559  0.8187405709268203  1.0000
  H   H29       1.0  0.9577590474755053  0.6893459815646918  0.6680193897711888  1.0000
  H   H30       1.0  0.5422635000755135  0.31063862217623484  0.1680264986286346  1.0000
  H   H31       1.0  0.04224932205774217  0.31063685080307823  0.33197502214554925  1.0000
  H   H32       1.0  0.4577139022433697  0.689354335544344  0.8319794584434558  1.0000
  H   H33       1.0  0.8415746361885398  0.9064264595054822  0.8479308614316137  1.0000
  H   H34       1.0  0.6584356203574303  0.09357846635137428  0.3479509051897479  1.0000
  H   H35       1.0  0.15842233211009224  0.0935892032911454  0.1520474874736664  1.0000
  H   H36       1.0  0.3415808623584978  0.9064111167624274  0.6520701109212792  1.0000
  C   C1        1.0  0.30867756829447046  0.14347372036380082  0.891124307944764  1.0000
  C   C2        1.0  0.19131330003828845  0.8565419909839348  0.39114307174163077  1.0000
  C   C3        1.0  0.6913215905491298  0.8565337525863937  0.10885705278039377  1.0000
  C   C4        1.0  0.8086834725883278  0.14346670723416818  0.6088774423303817  1.0000
  C   C5        1.0  0.486613424528116  0.24172834621682424  0.9043315084745842  1.0000
  C   C6        1.0  0.013375331918687984  0.7582766449627982  0.40434330188812573  1.0000
  C   C7        1.0  0.5133839096398987  0.7582768527352144  0.09564784438982338  1.0000
  C   C8        1.0  0.986614899721772  0.24172642155469495  0.5956681768009274  1.0000
  C   C9        1.0  0.17805749546866417  0.2600659831361296  0.9921354849369735  1.0000
  C   C10       1.0  0.3219555796353503  0.7399338828136236  0.4921511487400991  1.0000
  C   C11       1.0  0.8219475032434927  0.73993784801997  0.0078483856349862  1.0000
  C   C12       1.0  0.678053996264893  0.26006053236326904  0.5078663535876585  1.0000
  C   C13       1.0  0.1581013663181565  0.1581556350875317  0.9311458381292252  1.0000
  C   C14       1.0  0.34189633587151746  0.8418577518559188  0.4311645480400656  1.0000
  C   C15       1.0  0.8418925144711338  0.8418519798369459  0.06883652652115299  1.0000
  C   C16       1.0  0.6581049570901456  0.15814734010209713  0.5688554640806414  1.0000
  C   C17       1.0  0.9947463321618315  0.6366969118364378  0.8364994586731881  1.0000
  C   C18       1.0  0.5052416054753905  0.36331005580596804  0.3365042006537776  1.0000
  C   C19       1.0  0.005250440308429914  0.36331178669898634  0.16349545512960614  1.0000
  C   C20       1.0  0.49478167066897777  0.6366863140358632  0.6635042662968756  1.0000
  C   C21       1.0  0.015427782458147004  0.7110891591225083  0.7742211335351141  1.0000
  C   C22       1.0  0.4845762858209993  0.2889174413981834  0.2742304539618061  1.0000
  C   C23       1.0  0.9845733144023043  0.288908969128066  0.2257707685034873  1.0000
  C   C24       1.0  0.5154303417935607  0.7110816993828807  0.7257810247575447  1.0000
  C   C25       1.0  0.9912853034530044  0.07215861003283662  0.9147302897450086  1.0000
  C   C26       1.0  0.5087074350966319  0.9278579301508787  0.4147482386421614  1.0000
  C   C27       1.0  0.008712479243179423  0.9278547076851638  0.0852530788278614  1.0000
  C   C28       1.0  0.49129147140278917  0.0721483875728026  0.585270769540351  1.0000
  C   C29       1.0  0.8263340048776938  0.41907608155189985  0.7881925958315461  1.0000
  C   C30       1.0  0.6736618215607281  0.5809283709408816  0.2881936396029444  1.0000
  C   C31       1.0  0.17366389120572728  0.580925617374973  0.2118068356849676  1.0000
  C   C32       1.0  0.3263294769655474  0.41907350543205973  0.7118088037013093  1.0000
  C   C33       1.0  0.29205242937422327  0.040638522992267695  0.8369774689886568  1.0000
  C   C34       1.0  0.20795184371812064  0.9593700214326332  0.33699474833009896  1.0000
  C   C35       1.0  0.7079459717562528  0.9593654856596672  0.1630053976425359  1.0000
  C   C36       1.0  0.7920584898921845  0.0406278580487438  0.6630207461255536  1.0000
  C   C37       1.0  0.8464487424844834  0.48521593986259154  0.7246736673457405  1.0000
  C   C38       1.0  0.6535525137967894  0.5147759817163474  0.22467449489177227  1.0000
  C   C39       1.0  0.15355190591523638  0.5147740694851278  0.27532526223777853  1.0000
  C   C40       1.0  0.34642935220031024  0.48521917906503387  0.7753289523499518  1.0000
  C   C41       1.0  0.9419861951509034  0.6338338760283264  0.7170997448380942  1.0000
  C   C42       1.0  0.5580260299130373  0.3661602588035606  0.2171051052134132  1.0000
  C   C43       1.0  0.0580186643498593  0.3661571816265621  0.2828961729516095  1.0000
  C   C44       1.0  0.44195928949957153  0.6338324859307177  0.7829013538351004  1.0000
  C   C45       1.0  0.124395639119264  0.9557216152737595  0.8222030820646323  1.0000
  C   C46       1.0  0.37561002557765727  0.0442884147185438  0.3222173891805866  1.0000
  C   C47       1.0  0.8756003755581644  0.04428361912517428  0.17778028652655553  1.0000
  C   C48       1.0  0.6244013749767133  0.9557082745000682  0.677798607245478  1.0000
  C   C49       1.0  0.9726142791354989  0.9722668826544022  0.8599760345900265  1.0000
  C   C50       1.0  0.5273873364288376  0.0277461119052447  0.3599945814060632  1.0000
  C   C51       1.0  0.0273855807889234  0.027749863865174997  0.14000582807853584  1.0000
  C   C52       1.0  0.47261872942665656  0.9722565285836493  0.6400224189304067  1.0000
  N   N1        1.0  0.9001384105731276  0.4945133905199696  0.8427476736363531  1.0000
  N   N2        1.0  0.599850866224898  0.5054991960861839  0.34274741116023927  1.0000
  N   N3        1.0  0.0998562280396627  0.5054976884787692  0.1572512558862584  1.0000
  N   N4        1.0  0.4001652505358137  0.4945008510464319  0.6572585459418859  1.0000
  O   O1        1.0  0.4910463233984855  0.3873898937916421  0.9118124466230099  1.0000
  O   O2        1.0  0.008952632029917045  0.6126065091694242  0.4118219563890192  1.0000
  O   O3        1.0  0.5089487376883994  0.6126049121473898  0.08818096131471977  1.0000
  O   O4        1.0  0.9910497844468084  0.3873915833791415  0.5881865105313934  1.0000
  O   O5        1.0  0.656408712152519  0.36737203619322395  0.05037619236150449  1.0000
  O   O6        1.0  0.843589095617212  0.632624241806262  0.5503796294214922  1.0000
  O   O7        1.0  0.3435791329183927  0.6326322563077083  0.9496167135771426  1.0000
  O   O8        1.0  0.15641966582416703  0.3673725185737098  0.4496228139174078  1.0000
  O   O9        1.0  0.05979596059354008  0.3521997267682835  0.0003530666875803999  1.0000
  O   O10       1.0  0.440210968160791  0.6477995575218216  0.5003636939774267  1.0000
  O   O11       1.0  0.9402058939677719  0.647801865805441  0.9996353215807261  1.0000
  O   O12       1.0  0.5597927678494371  0.35219849949273657  0.49964778474109284  1.0000
  O   O13       1.0  0.6271792659815388  0.17912347291413502  0.9066805408843164  1.0000
  O   O14       1.0  0.8728205901838848  0.8208837804166434  0.4066868847714388  1.0000
  O   O15       1.0  0.37282511422888115  0.8208896674449022  0.09329278837592618  1.0000
  O   O16       1.0  0.1271791306027197  0.17912019245240168  0.5933190723003888  1.0000
  O   O17       1.0  0.3034860889960314  0.2557266573231728  0.03273996216592679  1.0000
  O   O18       1.0  0.1965177560047735  0.7442498480592618  0.5327570249045336  1.0000
  O   O19       1.0  0.6965098430563259  0.7442599943967634  0.9672459163026231  1.0000
  O   O20       1.0  0.8034830058067187  0.25572854244757076  0.46726198335113617  1.0000
  O   O21       1.0  0.11247578220879714  0.8569100893502577  0.7667752213435932  1.0000
  O   O22       1.0  0.3875269322615722  0.14309092193561668  0.26678654683373537  1.0000
  O   O23       1.0  0.8875184644805357  0.1430870616674014  0.23321316692653934  1.0000
  O   O24       1.0  0.6124903647721992  0.8568963162613272  0.733226437827234  1.0000
