data_image0
_chemical_formula_structural       Cd2H28C36N8O8
_chemical_formula_sum              "Cd2 H28 C36 N8 O8"
_cell_length_a       7.925591341584504
_cell_length_b       10.666718361216072
_cell_length_c       11.556618401722071
_cell_angle_alpha    71.04174988163024
_cell_angle_beta     82.20133589231654
_cell_angle_gamma    69.19063206870604

_space_group_name_H-M_alt    "P 1"
_space_group_IT_number       1

loop_
  _space_group_symop_operation_xyz
  'x, y, z'

loop_
  _atom_site_type_symbol
  _atom_site_label
  _atom_site_symmetry_multiplicity
  _atom_site_fract_x
  _atom_site_fract_y
  _atom_site_fract_z
  _atom_site_occupancy
  Cd  Cd1       1.0  0.19082822035733912  0.45117815150424445  0.3738965017540679  1.0000
  Cd  Cd2       1.0  0.8091725868060705  0.5488215696244579  0.6261024059799923  1.0000
  H   H1        1.0  0.291082574651  0.1255687925169653  0.49285181688645  1.0000
  H   H2        1.0  0.7089186792404546  0.874429880861392  0.5071482313550605  1.0000
  H   H3        1.0  0.47054133576423834  0.9274008394638713  0.6629034893072259  1.0000
  H   H4        1.0  0.5294581978503244  0.07259888174601063  0.3370955367807866  1.0000
  H   H5        1.0  0.5585686603082107  0.23910138667081782  0.7891967186192019  1.0000
  H   H6        1.0  0.4414351406809444  0.7608972865451733  0.21080309291440366  1.0000
  H   H7        1.0  0.38106757817919146  0.4205221694001366  0.6164770809184362  1.0000
  H   H8        1.0  0.6189332305306152  0.5794775485739693  0.3835209623165454  1.0000
  H   H9        1.0  0.6482969395336222  0.8430908809339432  0.8343172237529544  1.0000
  H   H10       1.0  0.3517055894530755  0.15690778920863835  0.16568184163552496  1.0000
  H   H11       1.0  0.7079403561903986  0.0653783445616867  0.9274281922974694  1.0000
  H   H12       1.0  0.29206007242664345  0.9346192779929153  0.07257225030637218  1.0000
  H   H13       1.0  0.862341065552648  0.9853090354797165  0.11155983462068507  1.0000
  H   H14       1.0  0.13765719296667095  0.0146906889659491  0.8884401743203583  1.0000
  H   H15       1.0  0.034453868136225106  0.7903090880874474  0.2836138687801721  1.0000
  H   H16       1.0  0.9655516577690045  0.20968852783322942  0.7163843714096956  1.0000
  H   H17       1.0  0.9964098612708124  0.48893333331228933  0.14554475882985682  1.0000
  H   H18       1.0  0.003589672343750184  0.5110663878976  0.8544542672581557  1.0000
  H   H19       1.0  0.8194452751412338  0.6714218659019764  0.9664172843507188  1.0000
  H   H20       1.0  0.18055088300842198  0.3285768109557097  0.033584101805693906  1.0000
  H   H21       1.0  0.6580225934276738  0.5064714624494329  0.07873844228718237  1.0000
  H   H22       1.0  0.3419773156404701  0.4935303636437495  0.9212607779292058  1.0000
  H   H23       1.0  0.7862590375036475  0.3499724898415694  0.18545300402755058  1.0000
  H   H24       1.0  0.21374551129989056  0.650030399450216  0.8145489247609491  1.0000
  H   H25       1.0  0.8058832381065099  0.15048383189041203  0.5608600337298597  1.0000
  H   H26       1.0  0.19411456595280172  0.8495169560785745  0.4391431571991262  1.0000
  H   H27       1.0  0.6618037851784846  0.2793588006555368  0.4418884303136892  1.0000
  H   H28       1.0  0.33819357524556876  0.7206430287546013  0.5581118911096894  1.0000
  C   C1        1.0  0.3549681432836137  0.1451056708788698  0.5599663524339462  1.0000
  C   C2        1.0  0.6450262961355477  0.8548940506557371  0.4400331470698902  1.0000
  C   C3        1.0  0.45482207113327167  0.035730354312036604  0.6540721604103297  1.0000
  C   C4        1.0  0.5451722954650434  0.9642725230108056  0.3459272572134964  1.0000
  C   C5        1.0  0.5339643388668023  0.06434268289257263  0.7400873719003371  1.0000
  C   C6        1.0  0.4660348115622024  0.9356549492070061  0.25991578255469955  1.0000
  C   C7        1.0  0.504085121352631  0.20698360763127252  0.7260929435347947  1.0000
  C   C8        1.0  0.49591358698751936  0.7930150627548472  0.2739064769155489  1.0000
  C   C9        1.0  0.4031632596786919  0.31021299465967195  0.6292023512186091  1.0000
  C   C10       1.0  0.5968341053845445  0.6897888252866766  0.3707953767075267  1.0000
  C   C11       1.0  0.6394064308883427  0.9468984271391252  0.8367251560439541  1.0000
  C   C12       1.0  0.36059265599818247  0.05310234182110211  0.163272729536601  1.0000
  C   C13       1.0  0.7207865794509087  0.9609057981646318  0.9250020456044014  1.0000
  C   C14       1.0  0.27921377634528  0.03909498017819862  0.0749983151194371  1.0000
  C   C15       1.0  0.8248992342684428  0.845704412749335  0.023434773027631133  1.0000
  C   C16       1.0  0.17509730242758784  0.15429636268245162  0.976565078258993  1.0000
  C   C17       1.0  0.8892122057648705  0.8767276673311741  0.1147999559044878  1.0000
  C   C18       1.0  0.11078777303134048  0.12327100928296633  0.8852010751900607  1.0000
  C   C19       1.0  0.9855484488918264  0.7684264662705119  0.2111855391642478  1.0000
  C   C20       1.0  0.014453254820452283  0.23157115304830708  0.7888139205865558  1.0000
  C   C21       1.0  0.9627108523799632  0.6007600570344351  0.1332593157071003  1.0000
  C   C22       1.0  0.03728830114182799  0.39923756875594313  0.8667421097497794  1.0000
  C   C23       1.0  0.865244665211051  0.7025112813735035  0.034363953303426294  1.0000
  C   C24       1.0  0.13475321476190058  0.2974863444980542  0.9656375905074058  1.0000
  C   C25       1.0  0.49476671566241487  0.4083911349851519  0.2167175803865433  1.0000
  C   C26       1.0  0.5052366401450925  0.5916085828265878  0.7832802261405191  1.0000
  C   C27       1.0  0.6632082780305166  0.39859003725525355  0.13098355026182418  1.0000
  C   C28       1.0  0.33678818120549175  0.6014139034285578  0.8690188126420325  1.0000
  C   C29       1.0  0.6708433299364173  0.3211515386506676  0.04702895609227649  1.0000
  C   C30       1.0  0.32916084650632627  0.6788492394486242  0.9529710495696975  1.0000
  C   C31       1.0  0.9139692367515619  0.3096534491366257  0.44396444205521124  1.0000
  C   C32       1.0  0.08602857194693293  0.6903473293685708  0.5560361553765389  1.0000
  C   C33       1.0  0.8024903729235575  0.21181148923760423  0.46376126941491697  1.0000
  C   C34       1.0  0.19751297669836967  0.788188241192522  0.536239995108467  1.0000
  C   C35       1.0  0.8654363456237916  0.11776324417407842  0.38883614082501333  1.0000
  C   C36       1.0  0.13456055879385756  0.8822396519139848  0.611168227085379  1.0000
  N   N1        1.0  0.33009048578944783  0.2807152657997848  0.5463016640677907  1.0000
  N   N2        1.0  0.66991076500922  0.7192834138877657  0.45370011317187664  1.0000
  N   N3        1.0  0.021318778463360246  0.6323689622308992  0.22115673925831902  1.0000
  N   N4        1.0  0.9786803099695541  0.36763180357473163  0.7788402818231575  1.0000
  N   N5        1.0  0.6691900154615877  0.2606365631910493  0.9797532359838641  1.0000
  N   N6        1.0  0.33081243761147744  0.7393652690489604  0.02024747652276201  1.0000
  N   N7        1.0  0.9170354352978263  0.04246562940435441  0.3280817548250923  1.0000
  N   N8        1.0  0.08296671204971044  0.9575309484733124  0.6719205744313257  1.0000
  O   O1        1.0  0.3780037066552138  0.36005840127253214  0.20157323267410737  1.0000
  O   O2        1.0  0.6220017479755595  0.6399423672817903  0.7984240611366786  1.0000
  O   O3        1.0  0.48560405682741936  0.46697892083313536  0.2983889971931433  1.0000
  O   O4        1.0  0.5143954767871433  0.5330208003767468  0.7016100288948692  1.0000
  O   O5        1.0  0.8786505730537613  0.3829773045646477  0.5161354277922996  1.0000
  O   O6        1.0  0.12134933756077963  0.6170245183739312  0.48386292792501  1.0000
  O   O7        1.0  0.03161188675856851  0.3095997760624273  0.3577664908929706  1.0000
  O   O8        1.0  0.9683859234863165  0.6904009992881726  0.6422332420396941  1.0000
