data_image0
_chemical_formula_structural       ZnSiH16C24N4Cl4F6
_chemical_formula_sum              "Zn1 Si1 H16 C24 N4 Cl4 F6"
_cell_length_a       7.729267032711927
_cell_length_b       14.009782849778498
_cell_length_c       14.009719086027975
_cell_angle_alpha    89.7271558575464
_cell_angle_beta     86.1138497528559
_cell_angle_gamma    86.11411998003867

_space_group_name_H-M_alt    "P 1"
_space_group_IT_number       1

loop_
  _space_group_symop_operation_xyz
  'x, y, z'

loop_
  _atom_site_type_symbol
  _atom_site_label
  _atom_site_symmetry_multiplicity
  _atom_site_fract_x
  _atom_site_fract_y
  _atom_site_fract_z
  _atom_site_occupancy
  Zn  Zn1       1.0  0.4999920343807176  0.49999905981796633  0.49999952156896643  1.0000
  Si  Si1       1.0  0.999994487372412  0.49999763574981426  0.5000007798835212  1.0000
  H   H1        1.0  0.25225351622665937  0.5002419627097083  0.33745070703082547  1.0000
  H   H2        1.0  0.2564524883142241  0.5001311685089219  0.16539504458349086  1.0000
  H   H3        1.0  0.8174249518936705  0.4998954932354991  0.1593550752001391  1.0000
  H   H4        1.0  0.7901954509768389  0.49990663238418886  0.3334859756026844  1.0000
  H   H5        1.0  0.182550042408579  0.5001026311041626  0.8406428729699016  1.0000
  H   H6        1.0  0.7435223205471715  0.4998683859710482  0.8346079004445669  1.0000
  H   H7        1.0  0.7477248397946995  0.49976045177498213  0.6625506674407404  1.0000
  H   H8        1.0  0.20978705911699788  0.5000936340852603  0.6665138287405057  1.0000
  H   H9        1.0  0.25226049555440977  0.337449570189868  0.5002401853797095  1.0000
  H   H10       1.0  0.2564615537392214  0.16539452329455165  0.5001285857912307  1.0000
  H   H11       1.0  0.8174309131455502  0.1593547761448733  0.49989100515621476  1.0000
  H   H12       1.0  0.7902016319329022  0.333485263338936  0.4999036960266281  1.0000
  H   H13       1.0  0.1825532509157242  0.8406426285757364  0.5001044687712195  1.0000
  H   H14       1.0  0.7435271006390638  0.8346086021011132  0.49986812521801477  1.0000
  H   H15       1.0  0.7477258183655239  0.6625514097835891  0.49975947629913253  1.0000
  H   H16       1.0  0.20978753577765022  0.6665135690553113  0.5000958707669056  1.0000
  C   C1        1.0  0.3764953769593904  0.5001478961976247  0.29586114914641115  1.0000
  C   C2        1.0  0.38025932370695875  0.5001054071810244  0.1965435612283244  1.0000
  C   C3        1.0  0.5392210470101162  0.5000031995049596  0.1406118323545158  1.0000
  C   C4        1.0  0.6877133526348801  0.49992387988147863  0.19426591419298228  1.0000
  C   C5        1.0  0.6739475084831456  0.49991914929701414  0.293616293213013  1.0000
  C   C6        1.0  0.5603439317976538  0.49999241585807397  0.034081633496498384  1.0000
  C   C7        1.0  0.4396275119054068  0.5000028482704336  0.9659193129386949  1.0000
  C   C8        1.0  0.3122589595607153  0.5000749610713271  0.8057328428390207  1.0000
  C   C9        1.0  0.4607526452906684  0.4999949251675133  0.8593883049129188  1.0000
  C   C10       1.0  0.6197152216098587  0.4998962933867686  0.8034608113249178  1.0000
  C   C11       1.0  0.6234886033806506  0.4998509387665067  0.7041386077846993  1.0000
  C   C12       1.0  0.32602981424017236  0.5000811197423117  0.7063837012677608  1.0000
  C   C13       1.0  0.3764993031859874  0.295859812666329  0.5001471257144559  1.0000
  C   C14       1.0  0.3802667447336887  0.1965427631298269  0.5001025297556154  1.0000
  C   C15       1.0  0.539229076373502  0.1406114052304801  0.49999931475714726  1.0000
  C   C16       1.0  0.6877219165633266  0.19426627383146672  0.49991930936887025  1.0000
  C   C17       1.0  0.6739549045951634  0.29361480700178083  0.4999163102073466  1.0000
  C   C18       1.0  0.5603496353947223  0.034081703527043296  0.49999154737194823  1.0000
  C   C19       1.0  0.4396315049115885  0.9659192798420548  0.5000025936098211  1.0000
  C   C20       1.0  0.3122634524799609  0.8057318453684345  0.5000782585260097  1.0000
  C   C21       1.0  0.4607560342840317  0.8593888603669056  0.4999975390999153  1.0000
  C   C22       1.0  0.6197167171152458  0.8034603645260603  0.4998965129542157  1.0000
  C   C23       1.0  0.6234910763850222  0.7041397346200996  0.4998516796291879  1.0000
  C   C24       1.0  0.3260332298173411  0.7063818799471092  0.5000818765953879  1.0000
  N   N1        1.0  0.520116654847655  0.5000387770669973  0.3449257964586393  1.0000
  N   N2        1.0  0.4798634349644929  0.49996005982454506  0.6550741030756553  1.0000
  N   N3        1.0  0.5201205659100765  0.3449257650159367  0.5000366307290136  1.0000
  N   N4        1.0  0.4798658364312587  0.655074499629322  0.4999623171566582  1.0000
  Cl  Cl1       1.0  0.778427628784762  0.4999751831300188  0.992999361332721  1.0000
  Cl  Cl2       1.0  0.22154614849819868  0.5000222260078147  0.007001489850203797  1.0000
  Cl  Cl3       1.0  0.778430609529565  0.9929987570913281  0.49997579537507153  1.0000
  Cl  Cl4       1.0  0.22154931719668278  0.0070015112823754  0.5000198209109142  1.0000
  F   F1        1.0  0.22707946146248056  0.5004103707130269  0.5004146686083429  1.0000
  F   F2        1.0  0.7729113498978466  0.4995855993130646  0.4995848508954308  1.0000
  F   F3        1.0  0.9999990694264302  0.586080660237961  0.41392025772149293  1.0000
  F   F4        1.0  0.9999909437752735  0.413916757016679  0.5860805404733469  1.0000
  F   F5        1.0  0.021986146019599997  0.4139329723174257  0.4139317446403367  1.0000
  F   F6        1.0  0.9780058720423457  0.5860637122911783  0.586069154976549  1.0000
