data_image0
_chemical_formula_structural       Ni8H48C44N4O36
_chemical_formula_sum              "Ni8 H48 C44 N4 O36"
_cell_length_a       11.020630304266323
_cell_length_b       13.463916309563274
_cell_length_c       14.76786358617141
_cell_angle_alpha    99.14440962231508
_cell_angle_beta     89.99163942167077
_cell_angle_gamma    90.0105541900754

_space_group_name_H-M_alt    "P 1"
_space_group_IT_number       1

loop_
  _space_group_symop_operation_xyz
  'x, y, z'

loop_
  _atom_site_type_symbol
  _atom_site_label
  _atom_site_symmetry_multiplicity
  _atom_site_fract_x
  _atom_site_fract_y
  _atom_site_fract_z
  _atom_site_occupancy
  Ni  Ni1       1.0  0.0021623392231334  0.11435316628939063  0.0474105060533887  1.0000
  Ni  Ni2       1.0  0.5025802059486679  0.38502458283797136  0.9525160721920827  1.0000
  Ni  Ni3       1.0  0.9990563534886762  0.8860711368387232  0.9519781130717391  1.0000
  Ni  Ni4       1.0  0.49756584980216445  0.6150079065426797  0.047477187551543  1.0000
  Ni  Ni5       1.0  0.8577706418340513  0.9052705506060834  0.13576214025774652  1.0000
  Ni  Ni6       1.0  0.35870494543780046  0.5946902904322755  0.8645153351021619  1.0000
  Ni  Ni7       1.0  0.14131275134387516  0.09392046146324164  0.8643898988392849  1.0000
  Ni  Ni8       1.0  0.6416461745642151  0.40528353355917823  0.1354688047449031  1.0000
  H   H1        1.0  0.14385275460492147  0.16793897733953866  0.1761341283783082  1.0000
  H   H2        1.0  0.6439943537875336  0.3321539465811796  0.823954318268079  1.0000
  H   H3        1.0  0.8568704309920321  0.8326468347822171  0.8241837524723437  1.0000
  H   H4        1.0  0.356024671257039  0.6678664244176816  0.17598642069831533  1.0000
  H   H5        1.0  0.05433055336691691  0.2584725221279883  0.1696394902360439  1.0000
  H   H6        1.0  0.5543662185062744  0.24139223761559245  0.8298300233188839  1.0000
  H   H7        1.0  0.9459742929204822  0.7417084311394433  0.8305504795735245  1.0000
  H   H8        1.0  0.4456990584533003  0.7586895283848706  0.17043644163460672  1.0000
  H   H9        1.0  0.6905687306602744  0.7616996378817193  0.12919971370975253  1.0000
  H   H10       1.0  0.1889731172797582  0.7367856554082765  0.8713857906891533  1.0000
  H   H11       1.0  0.3085546898865061  0.23828919930231512  0.870821862312674  1.0000
  H   H12       1.0  0.8090175919052527  0.26149119251373076  0.1296357437091444  1.0000
  H   H13       1.0  0.6368439332738659  0.8686023325956995  0.16941698543162428  1.0000
  H   H14       1.0  0.1378973236746361  0.6296019368370267  0.8295100344470256  1.0000
  H   H15       1.0  0.36275317440342997  0.13166258281328422  0.8306144492769222  1.0000
  H   H16       1.0  0.8629499985667336  0.3683805479656428  0.16961636456471751  1.0000
  H   H17       1.0  0.9200544761280655  0.04159561031806191  0.8836266467119599  1.0000
  H   H18       1.0  0.42196614180973313  0.45925871123047585  0.11609483572684813  1.0000
  H   H19       1.0  0.0777379362664021  0.9594783137680382  0.11629296130710291  1.0000
  H   H20       1.0  0.5783033101317798  0.5407023447034052  0.8839057564529182  1.0000
  H   H21       1.0  0.6402099613574349  0.08169449725803456  0.95097051494227  1.0000
  H   H22       1.0  0.1398653942064598  0.41875146816533976  0.0491650320621488  1.0000
  H   H23       1.0  0.3610902788268788  0.9182539070595653  0.049074925928053424  1.0000
  H   H24       1.0  0.8600357049312705  0.5815245306451118  0.9507142667738151  1.0000
  H   H25       1.0  0.6060361871474457  0.9087106944746923  0.058287358004029996  1.0000
  H   H26       1.0  0.1057696029597182  0.5914362823524827  0.941485685047958  1.0000
  H   H27       1.0  0.3943793594852494  0.09111167552912751  0.9415023384695403  1.0000
  H   H28       1.0  0.8942421977105396  0.40883896972893313  0.058392146148563  1.0000
  H   H29       1.0  0.5013414927094574  0.0895381303294869  0.1314280979892857  1.0000
  H   H30       1.0  0.0014293479973019993  0.4103253965568641  0.8685230363744552  1.0000
  H   H31       1.0  0.49921199805458366  0.9104353678037214  0.8683203369997088  1.0000
  H   H32       1.0  0.9985760971715294  0.5898911474962035  0.13132604305058493  1.0000
  H   H33       1.0  0.8898936244257244  0.7918087427866356  0.2882984186215083  1.0000
  H   H34       1.0  0.39000849707792895  0.7080918637688144  0.7115559203046118  1.0000
  H   H35       1.0  0.11025964277308731  0.20774078325340642  0.7116281361643574  1.0000
  H   H36       1.0  0.6101257616614717  0.29189317613594323  0.2883926002702211  1.0000
  H   H37       1.0  0.9521239781271333  0.8268505698208487  0.45142139238270573  1.0000
  H   H38       1.0  0.45207139289839665  0.67295384500833  0.5483744379253396  1.0000
  H   H39       1.0  0.04797849475550459  0.17283201277482624  0.5484586052937104  1.0000
  H   H40       1.0  0.547929476688644  0.3269822599235823  0.4515480967008473  1.0000
  H   H41       1.0  0.9935014472749516  0.13947735378607015  0.4183371268464455  1.0000
  H   H42       1.0  0.4937022050677625  0.3604335176148582  0.5816579818729508  1.0000
  H   H43       1.0  0.0063097664123858985  0.8602020076727401  0.5814090258481031  1.0000
  H   H44       1.0  0.5062923101030918  0.639516940824379  0.4183085991228879  1.0000
  H   H45       1.0  0.9270735007066547  0.09075225754665445  0.2581882365107688  1.0000
  H   H46       1.0  0.42764227216528633  0.4092790917792685  0.7418808287245683  1.0000
  H   H47       1.0  0.0726342566730196  0.9087984754729349  0.7415529778236092  1.0000
  H   H48       1.0  0.5724230218878646  0.5907052360491394  0.258098742003952  1.0000
  C   C1        1.0  0.6222409684987299  0.0511870021526519  0.014539263940093902  1.0000
  C   C2        1.0  0.12209322705048462  0.4490713477694258  0.9854818798211654  1.0000
  C   C3        1.0  0.3786028529213894  0.9486416142571629  0.9853894448878506  1.0000
  C   C4        1.0  0.8778886291719274  0.5511835700616036  0.014378810418058725  1.0000
  C   C5        1.0  0.6085131917662282  0.9360594489653313  0.9924601941368181  1.0000
  C   C6        1.0  0.10810902799418903  0.564203754444094  0.007362471496470795  1.0000
  C   C7        1.0  0.39209835491446654  0.063829925860702  0.007365530551766098  1.0000
  C   C8        1.0  0.891921826747932  0.43604816049316497  0.992499815930053  1.0000
  C   C9        1.0  0.5066653431090344  0.10165653194114554  0.05971196762160251  1.0000
  C   C10       1.0  0.006681129778840501  0.3983363649289303  0.9402653105281544  1.0000
  C   C11       1.0  0.49396164353616007  0.8982853683265761  0.9400271819881497  1.0000
  C   C12       1.0  0.9933460960981647  0.6019057456462708  0.05957863931450902  1.0000
  C   C13       1.0  0.7327809782984503  0.07492977838781911  0.0784297298768664  1.0000
  C   C14       1.0  0.23302419551269077  0.4254524410831452  0.921956730361039  1.0000
  C   C15       1.0  0.267106426918552  0.9255207236823326  0.9225005269934812  1.0000
  C   C16       1.0  0.7669821488277577  0.574755183912508  0.0779662304087552  1.0000
  C   C17       1.0  0.7234442433432094  0.8946980786818417  0.9425225766325128  1.0000
  C   C18       1.0  0.2228209242542292  0.605758518851822  0.05750837505092929  1.0000
  C   C19       1.0  0.27718996745785773  0.10516598732536413  0.05748504751746711  1.0000
  C   C20       1.0  0.7772189939229291  0.394434034398607  0.9423927804778529  1.0000
  C   C21       1.0  0.520282704851283  0.21441500520185036  0.05738917712452011  1.0000
  C   C22       1.0  0.0205395025217925  0.28556556629769153  0.9426572891764452  1.0000
  C   C23       1.0  0.4800366765597062  0.7855600274877833  0.9423913170448728  1.0000
  C   C24       1.0  0.9795303682820347  0.7146652814178015  0.057197905393955806  1.0000
  C   C25       1.0  0.9130382682388003  0.8677098810348558  0.3210689636255638  1.0000
  C   C26       1.0  0.4132087499013224  0.6321961786061864  0.6788202031000453  1.0000
  C   C27       1.0  0.0869934189264256  0.13188469000943573  0.6788058371923712  1.0000
  C   C28       1.0  0.586879231494791  0.3677790716084388  0.3211221729589226  1.0000
  C   C29       1.0  0.9486984668185626  0.8887250172463653  0.4122132792061208  1.0000
  C   C30       1.0  0.4487513727422011  0.6111249056108083  0.587642276163379  1.0000
  C   C31       1.0  0.0513268779486182  0.11094098640198524  0.5876480883657891  1.0000
  C   C32       1.0  0.5512576632033729  0.38881647563653143  0.4122877878145133  1.0000
  C   C33       1.0  0.9799570774512816  0.9874273473738742  0.4516367012627498  1.0000
  C   C34       1.0  0.4800118695218387  0.5124231063857893  0.5482514172086752  1.0000
  C   C35       1.0  0.020020185145391195  0.012277688950327104  0.5481727213759341  1.0000
  C   C36       1.0  0.5199753867065269  0.487505501107954  0.45168832355857097  1.0000
  C   C37       1.0  0.9711514455882977  0.0609999607329641  0.3942592003382898  1.0000
  C   C38       1.0  0.4713560363518923  0.4389100870343939  0.6057043648134696  1.0000
  C   C39       1.0  0.028709669733778802  0.938659133367914  0.6055124769032005  1.0000
  C   C40       1.0  0.5286466459660915  0.561038855676614  0.39425387213322693  1.0000
  C   C41       1.0  0.933917193341223  0.0348448547700215  0.3037731896972815  1.0000
  C   C42       1.0  0.4342941791657324  0.46513616471420266  0.6962256101125065  1.0000
  C   C43       1.0  0.0659176000213364  0.9647427801157351  0.695994990078333  1.0000
  C   C44       1.0  0.5657538741556322  0.5348346061561103  0.3037418559027217  1.0000
  N   N1        1.0  0.9060338242963725  0.9394490611598912  0.2672670302740912  1.0000
  N   N2        1.0  0.40641906328129107  0.5605231275517256  0.7327095860660222  1.0000
  N   N3        1.0  0.0938708267147206  0.060092036254062  0.7325635261267608  1.0000
  N   N4        1.0  0.5936807136375961  0.43946418541327165  0.2672521288623315  1.0000
  O   O1        1.0  0.0550510988415382  0.18981461503435076  0.1828766193092335  1.0000
  O   O2        1.0  0.5550793120751935  0.31029486481678253  0.8172401287651141  1.0000
  O   O3        1.0  0.9456657016813707  0.810382193460086  0.81733592124926  1.0000
  O   O4        1.0  0.44495422279475594  0.6896796752820721  0.18273397408591308  1.0000
  O   O5        1.0  0.7051095076364717  0.8237963995226565  0.17401651458474277  1.0000
  O   O6        1.0  0.20504512613899098  0.6758165941493959  0.8258267645968189  1.0000
  O   O7        1.0  0.29412187322844124  0.17611286756159936  0.8261080572481062  1.0000
  O   O8        1.0  0.7944285072648115  0.3238165008019394  0.1741890326935192  1.0000
  O   O9        1.0  0.8109608095283181  0.13660748311067292  0.0554322919698009  1.0000
  O   O10       1.0  0.31125284128258807  0.3640694081284509  0.9453008502812069  1.0000
  O   O11       1.0  0.18798203682671039  0.8658245988986555  0.9474336991615147  1.0000
  O   O12       1.0  0.6887480596094875  0.6361728587437627  0.05465282120472643  1.0000
  O   O13       1.0  0.7404983355305035  0.030295032666991503  0.1477971112280869  1.0000
  O   O14       1.0  0.24104640884508646  0.4700415648461486  0.852548755415377  1.0000
  O   O15       1.0  0.2590941384205792  0.9696179784505791  0.8528209417773314  1.0000
  O   O16       1.0  0.7589935104431333  0.5301434382195538  0.14733235487037893  1.0000
  O   O17       1.0  0.8169183072626894  0.8850612488819111  0.9936038638995015  1.0000
  O   O18       1.0  0.3164350474631803  0.6151989919149798  0.006450306674984972  1.0000
  O   O19       1.0  0.1834581211945121  0.11404840101421601  0.006395564695601802  1.0000
  O   O20       1.0  0.6836511430603878  0.38498007016196584  0.9934814103742795  1.0000
  O   O21       1.0  0.7266474901964131  0.877755027850512  0.8563689475534275  1.0000
  O   O22       1.0  0.2256700153434963  0.6231276170837181  0.14361388718916152  1.0000
  O   O23       1.0  0.2744677287218024  0.12286862416898002  0.1435704083295732  1.0000
  O   O24       1.0  0.7743317908928661  0.3770446159996086  0.8562802870496712  1.0000
  O   O25       1.0  0.5601842987045558  0.2691976646751826  0.1289326517106844  1.0000
  O   O26       1.0  0.06044551084202959  0.23081912382769332  0.8710869140904762  1.0000
  O   O27       1.0  0.4396396544660917  0.7309068232646468  0.8709328355366139  1.0000
  O   O28       1.0  0.9391524934614921  0.7691777484416207  0.1287468670395597  1.0000
  O   O29       1.0  0.4948894438341894  0.2426195502470493  0.9812977440223278  1.0000
  O   O30       1.0  0.9952968003603787  0.25741351482445657  0.018798730671001396  1.0000
  O   O31       1.0  0.5054743996979313  0.7573095286694311  0.018429419978822605  1.0000
  O   O32       1.0  0.0051922911503937  0.7430402585732098  0.9812415158618749  1.0000
  O   O33       1.0  0.9940338578911464  0.028725442060796507  0.9158380897059574  1.0000
  O   O34       1.0  0.4961761390932439  0.47270276518267473  0.08421580269911291  1.0000
  O   O35       1.0  0.0032358624065480994  0.9724808187603244  0.08460165512097714  1.0000
  O   O36       1.0  0.5040307152457189  0.5273311831275224  0.9157431289425446  1.0000
