data_image0
_chemical_formula_structural       Zn4H24C14O14
_chemical_formula_sum              "Zn4 H24 C14 O14"
_cell_length_a       5.947604242026836
_cell_length_b       7.732272166488415
_cell_length_c       12.497220265675937
_cell_angle_alpha    90.00120171194222
_cell_angle_beta     89.99967709523335
_cell_angle_gamma    89.99979452334185

_space_group_name_H-M_alt    "P 1"
_space_group_IT_number       1

loop_
  _space_group_symop_operation_xyz
  'x, y, z'

loop_
  _atom_site_type_symbol
  _atom_site_label
  _atom_site_symmetry_multiplicity
  _atom_site_fract_x
  _atom_site_fract_y
  _atom_site_fract_z
  _atom_site_occupancy
  Zn  Zn1       1.0  0.5022444223584515  0.874095625685207  0.6304054622337247  1.0000
  Zn  Zn2       1.0  0.5022712143731525  0.8740474397393571  0.3695890618331248  1.0000
  Zn  Zn3       1.0  0.0022551888959086003  0.1259249876593174  0.1304034509932208  1.0000
  Zn  Zn4       1.0  0.0022608228106974996  0.12593822488045697  0.8695830289432037  1.0000
  H   H1        1.0  0.0384815589504797  0.7551588878908857  0.9149669459173282  1.0000
  H   H2        1.0  0.038553814014839795  0.7551312513435845  0.0850327858719311  1.0000
  H   H3        1.0  0.5385228099313438  0.24482300502430115  0.4149620317920437  1.0000
  H   H4        1.0  0.5385100155628492  0.24487619091502202  0.5850238503131422  1.0000
  H   H5        1.0  0.9420632002249932  0.5603927873072081  0.8491297926619481  1.0000
  H   H6        1.0  0.9421497940334335  0.5603659849897368  0.1508625125260892  1.0000
  H   H7        1.0  0.4420837631297517  0.4395862534698195  0.3491344425415335  1.0000
  H   H8        1.0  0.44212397843934786  0.4396441536311286  0.6508775441505392  1.0000
  H   H9        1.0  0.15611643892463428  0.687935912294428  0.7906962994023702  1.0000
  H   H10       1.0  0.1561787895064128  0.6879342775496153  0.20930300976707633  1.0000
  H   H11       1.0  0.6561421349153279  0.3120533929027544  0.2906906980508097  1.0000
  H   H12       1.0  0.6561581072658313  0.3120743829589827  0.7092957870696637  1.0000
  H   H13       1.0  0.8694456984442526  0.16873648610607714  0.5000007901611951  1.0000
  H   H14       1.0  0.3694510468420801  0.8312527333267353  0.9999723300715431  1.0000
  H   H15       1.0  0.9617218789955331  0.9829354919225037  0.5716413281824942  1.0000
  H   H16       1.0  0.9617462813317418  0.9829292967450198  0.42835266374704173  1.0000
  H   H17       1.0  0.461729967540215  0.017035839329693696  0.071646640246307  1.0000
  H   H18       1.0  0.4617601133842727  0.0170833076224994  0.928354754251245  1.0000
  H   H19       1.0  0.8353970036637222  0.6050416452384725  0.500012600038275  1.0000
  H   H20       1.0  0.33540103383256076  0.39495217045691794  2.30450185938e-05  1.0000
  H   H21       1.0  0.9959137794580569  0.45192726965559865  0.5727651276411834  1.0000
  H   H22       1.0  0.9959146562808739  0.45192233190056175  0.4272559694545138  1.0000
  H   H23       1.0  0.4959118024941277  0.5480815416492959  0.072768850456093  1.0000
  H   H24       1.0  0.49588984004370934  0.5480759496306786  0.9272588709124108  1.0000
  C   C1        1.0  0.8324977678785076  0.797345347984539  0.7765274005821966  1.0000
  C   C2        1.0  0.8325095072862465  0.7973247719596299  0.22347161254455733  1.0000
  C   C3        1.0  0.33249460100092415  0.20263412971946337  0.2765248311885458  1.0000
  C   C4        1.0  0.3325154464567035  0.20270989549656798  0.7234698227664181  1.0000
  C   C5        1.0  0.0006989352273833999  0.6932780704166175  0.8382519157263034  1.0000
  C   C6        1.0  0.0007652217107577002  0.6932567928351007  0.16174387444812066  1.0000
  C   C7        1.0  0.5007179394274885  0.3067052910485585  0.33824864231694113  1.0000
  C   C8        1.0  0.5007428915735588  0.30675707620620335  0.6617381798508575  1.0000
  C   C9        1.0  0.8704246919868979  0.0262078756721209  0.4999966202094584  1.0000
  C   C10       1.0  0.37043586912494675  0.9737878086477708  0.9999917008611021  1.0000
  C   C11       1.0  0.1854880935213572  0.6580331206707014  0.5000034137508678  1.0000
  C   C12       1.0  0.6854866996777745  0.341981656356559  1.1021610937700003e-05  1.0000
  C   C13       1.0  0.9932826578089192  0.5309313340480841  0.5000094882133226  1.0000
  C   C14       1.0  0.493289584535276  0.4690673711083804  1.61387616799e-05  1.0000
  O   O1        1.0  0.698799186480109  0.7171093061027985  0.7137658750523741  1.0000
  O   O2        1.0  0.6988538846606076  0.7170687725011786  0.2862324003240531  1.0000
  O   O3        1.0  0.19882577918770755  0.28288907578903627  0.2137571939557077  1.0000
  O   O4        1.0  0.1988340987385939  0.2829487642569432  0.7862477041026781  1.0000
  O   O5        1.0  0.6444635447696571  0.9606009509730595  0.499993661456088  1.0000
  O   O6        1.0  0.14448059914869302  0.039399018850183196  0.9999904539003026  1.0000
  O   O7        1.0  0.2587891720760425  0.7085242068823304  0.590681424900076  1.0000
  O   O8        1.0  0.25884406824189915  0.7084579057341642  0.4093306958200955  1.0000
  O   O9        1.0  0.7588301295128161  0.29150500841204513  0.0906875468272474  1.0000
  O   O10       1.0  0.7588251965517828  0.29151047660943863  0.9093263947955208  1.0000
  O   O11       1.0  0.3227793168218298  0.0376095431147405  0.7160510648230343  1.0000
  O   O12       1.0  0.3227718327586899  0.0375314305170136  0.2839437728014573  1.0000
  O   O13       1.0  0.8227656139101142  0.9624132623168078  0.216038293276263  1.0000
  O   O14       1.0  0.8227907746944468  0.9624586504120598  0.7839325812015759  1.0000
