data_image0
_chemical_formula_structural       Cu4B4H192C180N12Cl8
_chemical_formula_sum              "Cu4 B4 H192 C180 N12 Cl8"
_cell_length_a       17.785571123344393
_cell_length_b       17.78563781219557
_cell_length_c       18.716060121828136
_cell_angle_alpha    61.62893522646481
_cell_angle_beta     61.62913716309702
_cell_angle_gamma    59.997923928684486

_space_group_name_H-M_alt    "P 1"
_space_group_IT_number       1

loop_
  _space_group_symop_operation_xyz
  'x, y, z'

loop_
  _atom_site_type_symbol
  _atom_site_label
  _atom_site_symmetry_multiplicity
  _atom_site_fract_x
  _atom_site_fract_y
  _atom_site_fract_z
  _atom_site_occupancy
  Cu  Cu1       1.0  0.8879575724490324  0.1120419950938398  0.5000000214540136  1.0000
  Cu  Cu2       1.0  0.49998814058444196  0.8880148287147879  0.4999872211468172  1.0000
  Cu  Cu3       1.0  0.1119801573503239  0.5000148315368732  0.5000176126890779  1.0000
  Cu  Cu4       1.0  8.527285039899036e-06  0.9999942111096799  0.9999990746045099  1.0000
  B   B1        1.0  0.60299460308876  0.3970085497229051  0.9999976068218928  1.0000
  B   B2        1.0  5.892511687500001e-06  0.6029724816025422  5.077777359464321e-06  1.0000
  B   B3        1.0  0.3970291734832401  0.9999909518931885  0.9999982607848495  1.0000
  B   B4        1.0  0.5000050813356864  0.49999431166456515  0.5000029459728452  1.0000
  H   H1        1.0  0.9535058426659546  0.06559498720866225  0.33734010277776605  1.0000
  H   H2        1.0  0.6435631634001099  0.9535183001582441  0.33729855889578847  1.0000
  H   H3        1.0  0.065571432646145  0.6435765424780725  0.3373277970436632  1.0000
  H   H4        1.0  0.0464726075268587  0.35644356530663396  0.6627082015851968  1.0000
  H   H5        1.0  0.3564177057962112  0.9344258545858115  0.6626741275494367  1.0000
  H   H6        1.0  0.9344062791341727  0.04648789640863529  0.6626625787755388  1.0000
  H   H7        1.0  0.8895942629118851  0.12801148824322428  0.218629255176708  1.0000
  H   H8        1.0  0.7637464381396484  0.8896048931183458  0.21858689006922563  1.0000
  H   H9        1.0  0.1280561660225246  0.7637348524787625  0.2185797292380797  1.0000
  H   H10       1.0  0.11039045619925499  0.23625687385766272  0.781418233344766  1.0000
  H   H11       1.0  0.2362612837239908  0.8719386639265067  0.7814196454947149  1.0000
  H   H12       1.0  0.8719873648954959  0.11039423083433061  0.7813786966585639  1.0000
  H   H13       1.0  0.644803777620055  0.2962791516427429  0.36264074614072683  1.0000
  H   H14       1.0  0.6963616765480509  0.6447612142690317  0.36268308516458336  1.0000
  H   H15       1.0  0.2962350780985545  0.6963086233219826  0.36263873721470924  1.0000
  H   H16       1.0  0.35523745020302033  0.3036392140509463  0.6373151014148705  1.0000
  H   H17       1.0  0.3036925822421708  0.7037599326538312  0.6373593672923548  1.0000
  H   H18       1.0  0.703725247232093  0.3551890211611239  0.637364521550147  1.0000
  H   H19       1.0  0.7131055245055576  0.21671678766330163  0.480289093688974  1.0000
  H   H20       1.0  0.5898999637627611  0.7131174682030378  0.48028489720417156  1.0000
  H   H21       1.0  0.21671175046900967  0.5898793136631467  0.48026435420567987  1.0000
  H   H22       1.0  0.28687503343363835  0.4101052572136439  0.519719049036091  1.0000
  H   H23       1.0  0.41012230442049  0.7832844725386252  0.5197368260453317  1.0000
  H   H24       1.0  0.7832866211912374  0.2868928770289544  0.5197123150698957  1.0000
  H   H25       1.0  0.7822338022311399  0.3678346888207713  0.22105511916128495  1.0000
  H   H26       1.0  0.6289140360342955  0.7822069682584639  0.22107399945573275  1.0000
  H   H27       1.0  0.3678156714944905  0.628858978627136  0.2209433778354323  1.0000
  H   H28       1.0  0.21779510795180096  0.3710812937341359  0.7789310877114631  1.0000
  H   H29       1.0  0.3711361291766622  0.632181450880907  0.7790632408354198  1.0000
  H   H30       1.0  0.6321650826148683  0.21775821659993264  0.7789511149243964  1.0000
  H   H31       1.0  0.6862187696983212  0.46688405464598753  0.201168346443623  1.0000
  H   H32       1.0  0.6456573508295519  0.6862415153125029  0.20117991595224544  1.0000
  H   H33       1.0  0.4668954397439932  0.6456633451598608  0.20105594788350328  1.0000
  H   H34       1.0  0.31376187613246037  0.3543323140703123  0.7988247039769192  1.0000
  H   H35       1.0  0.3543327891946148  0.533101316873129  0.7989505648882087  1.0000
  H   H36       1.0  0.5331165110324676  0.3137744525866992  0.7988349422017222  1.0000
  H   H37       1.0  0.7871876998527368  0.44322592825883333  0.11577514361353979  1.0000
  H   H38       1.0  0.6538898654886224  0.7871727691404404  0.11577781669575407  1.0000
  H   H39       1.0  0.44315862100798137  0.6538809663282876  0.11565568593398004  1.0000
  H   H40       1.0  0.21283156477321094  0.34610202152223485  0.8842262434631324  1.0000
  H   H41       1.0  0.34611560449191353  0.5568394565228233  0.8843505018323156  1.0000
  H   H42       1.0  0.5567768550511047  0.21280812169461416  0.8842305530402257  1.0000
  H   H43       1.0  0.6335600077621565  0.539904694267591  0.08843273195197528  1.0000
  H   H44       1.0  0.7380141492164327  0.6336238222429103  0.08837674218983683  1.0000
  H   H45       1.0  0.5398949858145912  0.7380314660702963  0.08847350074066886  1.0000
  H   H46       1.0  0.36637690406051593  0.2619791390557893  0.911630989155974  1.0000
  H   H47       1.0  0.2619624161619143  0.4601055019124375  0.9115301689201161  1.0000
  H   H48       1.0  0.46009514077503155  0.36643807442996496  0.9115652151459486  1.0000
  H   H49       1.0  0.6106459478515234  0.5318570627260185  0.010532949686016601  1.0000
  H   H50       1.0  0.8469209528955304  0.6105724449155048  0.010580514919333033  1.0000
  H   H51       1.0  0.5319130345561333  0.846895150660615  0.010580082460648706  1.0000
  H   H52       1.0  0.3894247803633562  0.15307052840245208  0.9894272219963726  1.0000
  H   H53       1.0  0.15309835704979946  0.4680864924250018  0.9894233807031725  1.0000
  H   H54       1.0  0.46814416838168427  0.3893602987000619  0.9894596201738608  1.0000
  H   H55       1.0  0.7245897984225138  0.5061798940734975  0.0008189288117250022  1.0000
  H   H56       1.0  0.7685194658970147  0.724557950563188  0.0008044369180239635  1.0000
  H   H57       1.0  0.5062187323403293  0.7683860536016666  0.0008198134807882859  1.0000
  H   H58       1.0  0.2754396498199084  0.23147407471183373  0.9992017684069269  1.0000
  H   H59       1.0  0.23160918701082517  0.4937772596325942  0.9991856456801216  1.0000
  H   H60       1.0  0.49382359900982203  0.2754126167034698  0.9991805418034403  1.0000
  H   H61       1.0  0.6859906601498409  0.13268819247574015  0.1071461611814684  1.0000
  H   H62       1.0  0.0742559799647111  0.6859032399828281  0.10712435253448374  1.0000
  H   H63       1.0  0.13269212302484587  0.07423218265342513  0.1071331514953613  1.0000
  H   H64       1.0  0.3141052792825789  0.9257384787385091  0.8928745160278594  1.0000
  H   H65       1.0  0.9257635851000429  0.8673056757297957  0.8928682626179877  1.0000
  H   H66       1.0  0.8673109756808016  0.31400870056720004  0.8928525713149966  1.0000
  H   H67       1.0  0.6165333951909702  0.232320346164137  0.04850416252363489  1.0000
  H   H68       1.0  0.10269221274577228  0.616401783359251  0.04854338157698364  1.0000
  H   H69       1.0  0.2323400077543312  0.10265804908830489  0.04846763703113063  1.0000
  H   H70       1.0  0.3836089392810393  0.8973056077206961  0.951451621549502  1.0000
  H   H71       1.0  0.8973382044036313  0.7676602497296228  0.951529953151571  1.0000
  H   H72       1.0  0.7676809539303734  0.3834698475151939  0.9514920260025831  1.0000
  H   H73       1.0  0.570937762051379  0.1864279023211282  0.1605665729613791  1.0000
  H   H74       1.0  0.0819977165563444  0.5708979845507612  0.16062163875432828  1.0000
  H   H75       1.0  0.1865045054500669  0.08204715407625679  0.16053066280808537  1.0000
  H   H76       1.0  0.4291074148069923  0.9180072685582058  0.8393742011903385  1.0000
  H   H77       1.0  0.9179514169983988  0.8134969671552811  0.8394679613934811  1.0000
  H   H78       1.0  0.8135782011116532  0.4290631930722668  0.8394295601136789  1.0000
  H   H79       1.0  0.7125216736506914  0.10003665668961045  0.3068897980939482  1.0000
  H   H80       1.0  0.8805508433079439  0.7125204574704257  0.3068425550363755  1.0000
  H   H81       1.0  0.10008220183558342  0.8805409915189769  0.3068975971382243  1.0000
  H   H82       1.0  0.2874773476650887  0.11944893344821139  0.6931578505651786  1.0000
  H   H83       1.0  0.1194599200094473  0.8999126028264754  0.6931046635077536  1.0000
  H   H84       1.0  0.8999665523095217  0.28747589839466076  0.6931096667585595  1.0000
  H   H85       1.0  0.7609235390472477  0.0681579819263619  0.2137428487787076  1.0000
  H   H86       1.0  0.9572127259003836  0.7609103542470806  0.2137153024323835  1.0000
  H   H87       1.0  0.06812394778199149  0.9571503128660412  0.21377544177983737  1.0000
  H   H88       1.0  0.23909211559783475  0.042782047768668  0.7862821137230185  1.0000
  H   H89       1.0  0.0428522255000061  0.9318724529362897  0.7862240592228246  1.0000
  H   H90       1.0  0.9318437744056992  0.2390762740301113  0.7862569828488475  1.0000
  H   H91       1.0  0.6406084456853876  0.10634548013955225  0.2620630501740707  1.0000
  H   H92       1.0  0.9909821562596548  0.6405861755563932  0.2620222122717804  1.0000
  H   H93       1.0  0.106354900315722  0.9909992316856697  0.26202683438020824  1.0000
  H   H94       1.0  0.3594159527744409  0.00901713013850272  0.7379758311958398  1.0000
  H   H95       1.0  0.009001494734938798  0.893643381332332  0.7379731801824007  1.0000
  H   H96       1.0  0.8936594558426805  0.3593889773633878  0.7379339260502745  1.0000
  H   H97       1.0  0.38680384325924416  0.4197687759891765  0.20883140713601728  1.0000
  H   H98       1.0  0.9846765335807675  0.3867218663040434  0.20880982182155355  1.0000
  H   H99       1.0  0.4197309267463254  0.9846502357044004  0.2087991064697689  1.0000
  H   H100      1.0  0.6132789322768633  0.015325196681970885  0.7911947055583184  1.0000
  H   H101      1.0  0.015344282694428599  0.58026819335538  0.7912051139113672  1.0000
  H   H102      1.0  0.5802267109023233  0.6132028052918345  0.7911702397757594  1.0000
  H   H103      1.0  0.49593600682270983  0.35462408431097003  0.15481439416115705  1.0000
  H   H104      1.0  0.9946549373886666  0.49587682670548366  0.15484387908498587  1.0000
  H   H105      1.0  0.35462187128569417  0.9946848449061958  0.15475868338602802  1.0000
  H   H106      1.0  0.50412620389055  0.005338370946958574  0.845164255905523  1.0000
  H   H107      1.0  0.0053098849516998985  0.6453790487226811  0.8452428616953752  1.0000
  H   H108      1.0  0.645375487605854  0.5040713096157177  0.8451839263143557  1.0000
  H   H109      1.0  0.3961590831627078  0.3672272156046787  0.1441874748196951  1.0000
  H   H110      1.0  0.09249585477657259  0.39612537580835294  0.14417721382709903  1.0000
  H   H111      1.0  0.3671530839580015  0.09248584546169518  0.14419558422664383  1.0000
  H   H112      1.0  0.6038819858573561  0.9075021437071769  0.8558314511656632  1.0000
  H   H113      1.0  0.9075091976211168  0.6328386711954437  0.8558136284681694  1.0000
  H   H114      1.0  0.6327705515097364  0.6038478598766518  0.8558120949334266  1.0000
  H   H115      1.0  0.21201458259825048  0.6282343842500141  0.1383745304596431  1.0000
  H   H116      1.0  0.0213203941818421  0.2120283286760412  0.13840783615838603  1.0000
  H   H117      1.0  0.6282423738530695  0.021403867183977413  0.1383506542008064  1.0000
  H   H118      1.0  0.787974954426346  0.9786690420020675  0.8616046033123228  1.0000
  H   H119      1.0  0.9785908886504302  0.37175739704206756  0.8616585399195884  1.0000
  H   H120      1.0  0.37176580981432034  0.7879883028813878  0.8616258114865616  1.0000
  H   H121      1.0  0.2800635666631308  0.5515624721238834  0.2069473539608141  1.0000
  H   H122      1.0  0.9614404389341829  0.28012649053671607  0.20691917731813464  1.0000
  H   H123      1.0  0.5515530791878405  0.961480009615485  0.2069082340450378  1.0000
  H   H124      1.0  0.7198784665382051  0.03855101723892313  0.793090947881261  1.0000
  H   H125      1.0  0.0385154572410684  0.4484467227551647  0.7930977517400706  1.0000
  H   H126      1.0  0.4484395997691594  0.7199409855109805  0.7930522709639191  1.0000
  H   H127      1.0  0.24901992199531256  0.5084722609987793  0.16224257345080417  1.0000
  H   H128      1.0  0.08028598826751927  0.24897838050678445  0.1622306529308588  1.0000
  H   H129      1.0  0.5084893190673867  0.08033063402498895  0.1622415590055938  1.0000
  H   H130      1.0  0.7510169134809103  0.9197081191690517  0.8377859921790646  1.0000
  H   H131      1.0  0.9196664055879182  0.491510036896848  0.8377701281465378  1.0000
  H   H132      1.0  0.4915273090538718  0.7509840859252039  0.8377605783444081  1.0000
  H   H133      1.0  0.2931039069004057  0.7741382246450998  0.07514825083228509  1.0000
  H   H134      1.0  0.8576319585788355  0.2930276057348777  0.07523542806783476  1.0000
  H   H135      1.0  0.7741123578316405  0.857621985541776  0.07523118373760708  1.0000
  H   H136      1.0  0.7069610232858138  0.14237193431905135  0.9247772366363235  1.0000
  H   H137      1.0  0.1423794465455046  0.22589356190439963  0.9247728233650748  1.0000
  H   H138      1.0  0.2258643255956088  0.7068994133178633  0.9248501597084128  1.0000
  H   H139      1.0  0.14958586545468927  0.9099953386673646  0.07582935410840715  1.0000
  H   H140      1.0  0.8646041737360548  0.14954238528981287  0.07586885285942917  1.0000
  H   H141      1.0  0.9099754579815736  0.8646134272413023  0.07588292771515627  1.0000
  H   H142      1.0  0.8504539148150486  0.13540254557491233  0.9241282445874077  1.0000
  H   H143      1.0  0.13539418672026216  0.09003007099855152  0.9241145126290604  1.0000
  H   H144      1.0  0.0900026692069034  0.8504153769397859  0.9241703040422989  1.0000
  H   H145      1.0  0.9419675472057278  0.91511251275945  0.5143241378334903  1.0000
  H   H146      1.0  0.6285742446253906  0.9420055503348338  0.5143397845266973  1.0000
  H   H147      1.0  0.9150305626167494  0.6286067803825902  0.514355584340066  1.0000
  H   H148      1.0  0.05799093347332018  0.3714368365014876  0.4856641319413413  1.0000
  H   H149      1.0  0.3714077018471826  0.08495912725285847  0.485636804500743  1.0000
  H   H150      1.0  0.08488971275635039  0.05802579136529568  0.48566989865012994  1.0000
  H   H151      1.0  0.0803303610102617  0.7726980181493133  0.5102310023661403  1.0000
  H   H152      1.0  0.6367332829527895  0.08037284225507343  0.510239310418342  1.0000
  H   H153      1.0  0.7726016531419971  0.6366990650959536  0.5103160523138329  1.0000
  H   H154      1.0  0.9196281679592532  0.36327474886868333  0.48975846897842235  1.0000
  H   H155      1.0  0.3633087923617779  0.22738986396485222  0.4896776003848231  1.0000
  H   H156      1.0  0.227299344330234  0.9196597695932313  0.48977727491795514  1.0000
  H   H157      1.0  0.37417252663411193  0.8210369650106203  0.29671104823256644  1.0000
  H   H158      1.0  0.508111201751845  0.3742492957746463  0.29670396591829723  1.0000
  H   H159      1.0  0.8210054204397678  0.5081397938529975  0.29670358066283586  1.0000
  H   H160      1.0  0.6257520535479556  0.49188802752255617  0.7032976927413017  1.0000
  H   H161      1.0  0.49185812507396076  0.17899041109799904  0.7032988715790154  1.0000
  H   H162      1.0  0.1789578746857998  0.6258260338694582  0.7032940849578041  1.0000
  H   H163      1.0  0.3721288547295103  0.8728120875580389  0.35875733632106926  1.0000
  H   H164      1.0  0.3963229978638195  0.3722126094117044  0.35867477933027914  1.0000
  H   H165      1.0  0.8727884353970267  0.39634695099285727  0.35873823098441454  1.0000
  H   H166      1.0  0.6277882970737706  0.603678464546036  0.6413301005705349  1.0000
  H   H167      1.0  0.6036548736836879  0.12720694645523167  0.6412667930951699  1.0000
  H   H168      1.0  0.1271825882230146  0.6278677184411804  0.6412475660685218  1.0000
  H   H169      1.0  0.2686805970110058  0.8874302795931895  0.3533906549228547  1.0000
  H   H170      1.0  0.49051944222379257  0.2687740651370732  0.353296832855321  1.0000
  H   H171      1.0  0.8874466510627527  0.49053473850117524  0.35334446386891455  1.0000
  H   H172      1.0  0.7312294378369302  0.5094799468911049  0.6467050625445764  1.0000
  H   H173      1.0  0.5094689011678071  0.11254880277076737  0.6466547245551126  1.0000
  H   H174      1.0  0.1125674843816782  0.7313161895176066  0.6466092935307444  1.0000
  H   H175      1.0  0.51143873693632  0.740675626396559  0.3512241696497043  1.0000
  H   H176      1.0  0.3966944114366627  0.511529865885798  0.3510957111980062  1.0000
  H   H177      1.0  0.7406908842315687  0.3966899758035395  0.35118958031846864  1.0000
  H   H178      1.0  0.4884677676087747  0.6033069979419563  0.6489087327115185  1.0000
  H   H179      1.0  0.6033009295183618  0.25931133033527937  0.6488239117905579  1.0000
  H   H180      1.0  0.25932309583728136  0.48855743550682007  0.6487802624057296  1.0000
  H   H181      1.0  0.49075328103462806  0.6936881349983466  0.30106290265035796  1.0000
  H   H182      1.0  0.5145824302773505  0.49066904922132437  0.30109702896248797  1.0000
  H   H183      1.0  0.6936672492034787  0.5145309340971664  0.3010945282198562  1.0000
  H   H184      1.0  0.5093296274143455  0.4854195170954937  0.6989038217952697  1.0000
  H   H185      1.0  0.48545785070521663  0.3063318126926049  0.698910789764966  1.0000
  H   H186      1.0  0.3063124224044316  0.5092445031709758  0.6989400489106502  1.0000
  H   H187      1.0  0.5575187506111446  0.6208715389892276  0.37136156198405956  1.0000
  H   H188      1.0  0.45028270230780976  0.557554947147665  0.37129849733739917  1.0000
  H   H189      1.0  0.6208877690840352  0.450248739360724  0.37137001736373076  1.0000
  H   H190      1.0  0.4424450873543577  0.5497208843615198  0.6287023141535713  1.0000
  H   H191      1.0  0.5497375259206407  0.37911149951169426  0.6286411238858632  1.0000
  H   H192      1.0  0.3791279567728338  0.4424775450436158  0.6286417826620506  1.0000
  C   C1        1.0  0.8843988460360566  0.1151943126441566  0.34086544823907866  1.0000
  C   C2        1.0  0.6595274455506583  0.8844186554800189  0.34081996937764814  1.0000
  C   C3        1.0  0.11520020661045999  0.6595271986447032  0.34084038637542585  1.0000
  C   C4        1.0  0.11557502612296129  0.34047644965368556  0.6591859450818447  1.0000
  C   C5        1.0  0.3404707402722096  0.8847955775785223  0.6591601034422894  1.0000
  C   C6        1.0  0.8848057034538996  0.11559225692757016  0.6591408346537833  1.0000
  C   C7        1.0  0.8490512928825567  0.1519445643084795  0.274303096644637  1.0000
  C   C8        1.0  0.7246892390025793  0.8490621847644277  0.2742556332864864  1.0000
  C   C9        1.0  0.15197184362850177  0.7246756287913599  0.2742590732220264  1.0000
  C   C10       1.0  0.15093457994390752  0.27531358133016676  0.7257474776288007  1.0000
  C   C11       1.0  0.2753214687622929  0.84802337036907  0.7257425166279177  1.0000
  C   C12       1.0  0.848054600665165  0.1509409865402488  0.7257007374585597  1.0000
  C   C13       1.0  0.7621500861046329  0.2203176638596319  0.2795009791587545  1.0000
  C   C14       1.0  0.7380397843110275  0.7621548950363177  0.27948030187557993  1.0000
  C   C15       1.0  0.22032863024062269  0.7380161114033044  0.2794725564033343  1.0000
  C   C16       1.0  0.23784401640376976  0.26195817334111393  0.720522651340346  1.0000
  C   C17       1.0  0.2619839648921669  0.779663611711882  0.7205270199497491  1.0000
  C   C18       1.0  0.779685413697507  0.23783967669326242  0.7205050790098612  1.0000
  C   C19       1.0  0.7130633622788521  0.24480635655535105  0.35444910564186216  1.0000
  C   C20       1.0  0.687705186742221  0.7130613993984908  0.3544614018152784  1.0000
  C   C21       1.0  0.244796766821473  0.6876787314582485  0.3544276370732574  1.0000
  C   C22       1.0  0.28693668453367127  0.31229709155001467  0.6455394524832059  1.0000
  C   C23       1.0  0.31232218856578703  0.7551985516848488  0.6455735647571997  1.0000
  C   C24       1.0  0.7551961282343457  0.28693256504226394  0.6455526890227504  1.0000
  C   C25       1.0  0.7510701717196112  0.2016868335724383  0.41985862590754414  1.0000
  C   C26       1.0  0.6273835078035077  0.7510857816441998  0.4198484426588676  1.0000
  C   C27       1.0  0.2016872222201442  0.6273713737731015  0.41983424594517516  1.0000
  C   C28       1.0  0.2489083600795752  0.3726182441995434  0.5801557858336112  1.0000
  C   C29       1.0  0.3726325993006725  0.7983075746208356  0.5801653294411296  1.0000
  C   C30       1.0  0.7983159133310735  0.24892311786727814  0.5801465550061523  1.0000
  C   C31       1.0  0.7213624063169632  0.26553971045147057  0.20962065917313308  1.0000
  C   C32       1.0  0.8034935199306972  0.721328991105196  0.20961355202071985  1.0000
  C   C33       1.0  0.26553219289287705  0.8034798891957776  0.20958528442238125  1.0000
  C   C34       1.0  0.2786709541940695  0.19650470860212726  0.7903858568200235  1.0000
  C   C35       1.0  0.1965183563619917  0.7344645259179288  0.7904168023823174  1.0000
  C   C36       1.0  0.7344620028709983  0.27863347423530643  0.790379869735645  1.0000
  C   C37       1.0  0.7089169380554525  0.35826109469693523  0.16202970597867503  1.0000
  C   C38       1.0  0.7708100299898462  0.7088118658938286  0.16207737210248022  1.0000
  C   C39       1.0  0.35825878949322026  0.7707861336683096  0.16199434496732568  1.0000
  C   C40       1.0  0.29118723709930083  0.22918566293922996  0.8379272406926503  1.0000
  C   C41       1.0  0.22921055105302196  0.6417364205911082  0.8380104717506996  1.0000
  C   C42       1.0  0.6417432065927215  0.2910802156975052  0.8379683200687609  1.0000
  C   C43       1.0  0.6684802604165228  0.4009983602517124  0.09689752586265125  1.0000
  C   C44       1.0  0.8336280613731901  0.6683670609465864  0.09694010910930459  1.0000
  C   C45       1.0  0.4010168575966944  0.8336099862422941  0.0968823556780476  1.0000
  C   C46       1.0  0.33163373413700736  0.16636756487397264  0.9030624119299944  1.0000
  C   C47       1.0  0.16638629440980424  0.5989816579660926  0.90312218624706  1.0000
  C   C48       1.0  0.5990027284736713  0.3315228509318187  0.9030964097403569  1.0000
  C   C49       1.0  0.645295126631126  0.3501989761397013  0.07555610015690913  1.0000
  C   C50       1.0  0.9289499898498761  0.6452382989962401  0.07557305697279977  1.0000
  C   C51       1.0  0.35022354088729196  0.9289323312391745  0.07553965896709489  1.0000
  C   C52       1.0  0.35476210071623626  0.07104589928491838  0.9244297961644037  1.0000
  C   C53       1.0  0.07106205355236739  0.6497767956287531  0.9244635112238059  1.0000
  C   C54       1.0  0.6498005479462989  0.35471041340678516  0.9244359098120609  1.0000
  C   C55       1.0  0.6598719113116829  0.2566598167660529  0.12367542989244386  1.0000
  C   C56       1.0  0.9597987264872998  0.6598581824516856  0.12365195687301163  1.0000
  C   C57       1.0  0.2566668585465379  0.9597885819954116  0.12363986505734889  1.0000
  C   C58       1.0  0.34014320818788235  0.040199013776309314  0.8763469914380482  1.0000
  C   C59       1.0  0.0402084911465508  0.7433327843762497  0.8763642639490075  1.0000
  C   C60       1.0  0.7433400232356391  0.34013253511741937  0.8763187797706709  1.0000
  C   C61       1.0  0.6952185769871163  0.2148669778404084  0.19218597408865187  1.0000
  C   C62       1.0  0.8977456289382746  0.6952296284931806  0.19214903415783613  1.0000
  C   C63       1.0  0.21486519484276556  0.8977317142319733  0.1921532524041039  1.0000
  C   C64       1.0  0.3047688842167133  0.1022509775812424  0.8078536205428647  1.0000
  C   C65       1.0  0.10226812048275494  0.7851321741679201  0.8078453621234728  1.0000
  C   C66       1.0  0.7851355196249442  0.30478386757096126  0.8078097231078443  1.0000
  C   C67       1.0  0.7429015531148336  0.4111964504822013  0.17605062893942858  1.0000
  C   C68       1.0  0.6698533761962793  0.7428667270637278  0.1760753953063201  1.0000
  C   C69       1.0  0.4111796500699186  0.6698323376293376  0.17596243604292988  1.0000
  C   C70       1.0  0.2571348702474197  0.33014197641352894  0.8239268748227957  1.0000
  C   C71       1.0  0.33016390888131747  0.5888171414650999  0.8240438269485679  1.0000
  C   C72       1.0  0.5888067103844392  0.25709319020874233  0.823952681182945  1.0000
  C   C73       1.0  0.6583252093892894  0.4997178549999646  0.046594144912447316  1.0000
  C   C74       1.0  0.7953580548587597  0.6582704473548019  0.046617043891927605  1.0000
  C   C75       1.0  0.49973164322708635  0.7953277410153704  0.04661695826404605  1.0000
  C   C76       1.0  0.3417280820886291  0.2046349323105686  0.9533886737152953  1.0000
  C   C77       1.0  0.20466696094020878  0.5002668227576949  0.9533875586100322  1.0000
  C   C78       1.0  0.5002840525151342  0.3416776240227933  0.9534019696340863  1.0000
  C   C79       1.0  0.6319463398879321  0.1996983170398252  0.10859816155397076  1.0000
  C   C80       1.0  0.0597718640602736  0.6318919981635815  0.10859960593501931  1.0000
  C   C81       1.0  0.1997186873448058  0.05977606527600438  0.10856323780824792  1.0000
  C   C82       1.0  0.3681158163222946  0.9402240966429999  0.891399531563991  1.0000
  C   C83       1.0  0.9402177919921186  0.800283079930459  0.8914374438796172  1.0000
  C   C84       1.0  0.8003044511543678  0.36805743129582424  0.8913967106688645  1.0000
  C   C85       1.0  0.7028302932464714  0.1174814713795626  0.24658160614749386  1.0000
  C   C86       1.0  0.9331149149726058  0.7028250961981045  0.24653770255014962  1.0000
  C   C87       1.0  0.11750116830639  0.9330980771225016  0.24657005786386318  1.0000
  C   C88       1.0  0.29717400518789105  0.0668825815836982  0.7534638207029404  1.0000
  C   C89       1.0  0.06690226782170329  0.8824970350470309  0.7534308556285155  1.0000
  C   C90       1.0  0.8825222498933484  0.2971689153558687  0.7534163011617282  1.0000
  C   C91       1.0  0.5140908841612982  0.4859087344348368  1.429868717620702e-06  1.0000
  C   C92       1.0  0.9999982893164159  0.5140737750028846  0.9999992764093905  1.0000
  C   C93       1.0  0.48592443363273213  2.380837976527375e-06  7.228135920911644e-06  1.0000
  C   C94       1.0  0.4342959131020407  0.4871165409608694  0.0724071692672438  1.0000
  C   C95       1.0  0.0062321573035646  0.43426192881057796  0.0723942707271092  1.0000
  C   C96       1.0  0.48708504367812105  0.006261492264528109  0.07239497468755467  1.0000
  C   C97       1.0  0.5657381834898986  0.9937692225206899  0.9276120968499054  1.0000
  C   C98       1.0  0.9937432690977913  0.5129111853188206  0.92760943640387  1.0000
  C   C99       1.0  0.5128827336533844  0.5657098273224862  0.9275915415389165  1.0000
  C   C100      1.0  0.3546643803190079  0.5659026442004488  0.07212455967795248  1.0000
  C   C101      1.0  0.0073393426112887  0.3546376231429562  0.07211530702462449  1.0000
  C   C102      1.0  0.5658870211857875  0.007381701438824032  0.0721041712315653  1.0000
  C   C103      1.0  0.6453625009531266  0.9926602039971826  0.927892595178676  1.0000
  C   C104      1.0  0.9926197991130224  0.43411024236515766  0.9279035513866846  1.0000
  C   C105      1.0  0.43409739897166594  0.6453382792887864  0.9278764229173435  1.0000
  C   C106      1.0  0.4286299441004786  0.4031015412858636  0.14886414498236888  1.0000
  C   C107      1.0  0.019460038741911503  0.42858366994163083  0.14885366303776945  1.0000
  C   C108      1.0  0.4030634175559129  0.019476587199008594  0.14884036085535973  1.0000
  C   C109      1.0  0.5714184811069742  0.980538327162549  0.8511537183980451  1.0000
  C   C110      1.0  0.9805210498387779  0.5969333932513409  0.851164614068324  1.0000
  C   C111      1.0  0.596898691184485  0.5713749751677002  0.8511346851962002  1.0000
  C   C112      1.0  0.2697126858510898  0.5641641688809713  0.14817657021169583  1.0000
  C   C113      1.0  0.017956746944086905  0.26971384736059884  0.14816740254768487  1.0000
  C   C114      1.0  0.564158928801099  0.018011095885199887  0.14815743624799899  1.0000
  C   C115      1.0  0.7302891055227504  0.9820369390430057  0.8518436781920045  1.0000
  C   C116      1.0  0.9819865040200567  0.4358396688997674  0.851849802414158  1.0000
  C   C117      1.0  0.43583437863211577  0.7302904491943919  0.8518262797536095  1.0000
  C   C118      1.0  0.3556064787865695  0.6443959111217126  0.9999998257528446  1.0000
  C   C119      1.0  0.9999857082642974  0.35559443823543563  1.6891727362484738e-05  1.0000
  C   C120      1.0  0.6444005517035053  1.7417098156492455e-05  0.9999948351571604  1.0000
  C   C121      1.0  0.2720171358368049  0.7279858107996233  1.5215331215951437e-06  1.0000
  C   C122      1.0  7.764526216600026e-06  0.271993913352631  8.648513848164203e-06  1.0000
  C   C123      1.0  0.7280029934723372  0.999996804080567  0.9999980109152774  1.0000
  C   C124      1.0  0.2494001729513755  0.7872650474160992  0.0420478056087318  1.0000
  C   C125      1.0  0.9213028559861982  0.24935071252872382  0.04210602392711142  1.0000
  C   C126      1.0  0.78725951557756  0.9212922038302905  0.042081113681731785  1.0000
  C   C127      1.0  0.750639406703101  0.07870267529826686  0.9579044206817501  1.0000
  C   C128      1.0  0.07870923226320059  0.2127400269681204  0.9579256264218757  1.0000
  C   C129      1.0  0.2127363886969746  0.7506014769349533  0.9579474444230482  1.0000
  C   C130      1.0  0.17007943542230916  0.8640052144788585  0.041704228848132435  1.0000
  C   C131      1.0  0.9242316993743883  0.17003584511870434  0.0417409260261152  1.0000
  C   C132      1.0  0.8640105451586635  0.9242217537878404  0.04172734590164839  1.0000
  C   C133      1.0  0.8299611020078217  0.07577530949390615  0.9582606516431795  1.0000
  C   C134      1.0  0.07578538160600351  0.1359931617898056  0.9582724827500114  1.0000
  C   C135      1.0  0.135996519904019  0.8299237252504098  0.9582957302955748  1.0000
  C   C136      1.0  0.007600865914199103  0.9132548919015593  0.5067513112672798  1.0000
  C   C137      1.0  0.572389102350698  0.00764081204714984  0.5067494299847581  1.0000
  C   C138      1.0  0.9131841959410067  0.5723985353426428  0.5067895712388052  1.0000
  C   C139      1.0  0.9923561150871122  0.4276214979742078  0.4932495801890513  1.0000
  C   C140      1.0  0.42761483772589065  0.08681130200719878  0.4932035135485506  1.0000
  C   C141      1.0  0.08674766792606188  0.9923972594406436  0.4932446992095548  1.0000
  C   C142      1.0  0.0846223740025067  0.8339604847303336  0.5057148536254984  1.0000
  C   C143      1.0  0.5757024369896514  0.08465795866462139  0.5057074004818815  1.0000
  C   C144      1.0  0.8338935901172279  0.5756923934894473  0.5057693617731616  1.0000
  C   C145      1.0  0.9153384690656594  0.4243063815860565  0.4942903225383404  1.0000
  C   C146      1.0  0.42431648160654584  0.16610131305409936  0.49422420674218176  1.0000
  C   C147      1.0  0.1660357874804603  0.9153712097939388  0.4942868928597407  1.0000
  C   C148      1.0  0.1665252956148677  0.8334702466039161  0.5000012278457575  1.0000
  C   C149      1.0  0.5000126644111517  0.1665647051983826  0.4999601112997354  1.0000
  C   C150      1.0  0.8334343515821985  0.499993374294995  0.5000351788650478  1.0000
  C   C151      1.0  0.24998837956517414  0.7500064312453391  0.5000033500545698  1.0000
  C   C152      1.0  0.4999847757681124  0.2500198932855469  0.49998387104527336  1.0000
  C   C153      1.0  0.7499766008088146  0.500018944427552  0.5000171493161857  1.0000
  C   C154      1.0  0.33237480297340477  0.7532707383992729  0.43286085366213456  1.0000
  C   C155      1.0  0.481449540864503  0.3324160452880776  0.4328560064318339  1.0000
  C   C156      1.0  0.7532529474111486  0.48151934000750873  0.4328649617883045  1.0000
  C   C157      1.0  0.6675824493667264  0.5185545420394605  0.5671421218962535  1.0000
  C   C158      1.0  0.5184853539554837  0.24674283891201307  0.5671365241266741  1.0000
  C   C159      1.0  0.24672509785024488  0.667622407405297  0.5671434288073482  1.0000
  C   C160      1.0  0.41214934699398503  0.6743215470617301  0.43480399734024633  1.0000
  C   C161      1.0  0.4786558073078737  0.41219229747294156  0.43481863148796407  1.0000
  C   C162      1.0  0.6743115092877687  0.47872956695608326  0.43481411750464344  1.0000
  C   C163      1.0  0.5878022122669861  0.5213478445398962  0.565184486827427  1.0000
  C   C164      1.0  0.5212713285490125  0.3256831323832543  0.5651920745503887  1.0000
  C   C165      1.0  0.3256751739299233  0.5878468238641972  0.5651985827252018  1.0000
  C   C166      1.0  0.3366904329663782  0.8379473180709665  0.3568208117559877  1.0000
  C   C167      1.0  0.46855359630369264  0.33674910073716546  0.35677216110651955  1.0000
  C   C168      1.0  0.8379291804179303  0.4685950498124995  0.35681011543743324  1.0000
  C   C169      1.0  0.663252276766542  0.5314473328404646  0.6432281859074747  1.0000
  C   C170      1.0  0.5314064405771504  0.1620675636839408  0.6431909964431027  1.0000
  C   C171      1.0  0.16204918087211692  0.6633073533957871  0.6431821974810319  1.0000
  C   C172      1.0  0.4975853601240772  0.6820893196784964  0.3613859706980661  1.0000
  C   C173      1.0  0.45894375951888117  0.4976056435598438  0.36137148309041583  1.0000
  C   C174      1.0  0.6820991475439584  0.45894657350959994  0.3613918048368914  1.0000
  C   C175      1.0  0.5023916118414674  0.541059044604573  0.6386310788240196  1.0000
  C   C176      1.0  0.5410472243695565  0.3178999038428004  0.6386167210758558  1.0000
  C   C177      1.0  0.3179101720168519  0.502410571534078  0.6386177937295585  1.0000
  C   C178      1.0  0.41012348744134636  0.5898746097305078  0.5000017153355644  1.0000
  C   C179      1.0  0.4999755961123498  0.4101354911006113  0.5000098044549119  1.0000
  C   C180      1.0  0.5898615845160649  0.5000248826111218  0.49999417352356085  1.0000
  N   N1        1.0  0.8362641628042978  0.1396036400609831  0.41229822305731284  1.0000
  N   N2        1.0  0.6118085904534922  0.8362873733923523  0.4122671981799683  1.0000
  N   N3        1.0  0.13960296953522544  0.6118232607892651  0.4122706903358163  1.0000
  N   N4        1.0  0.1637039958358244  0.38819844004743226  0.5877383493041181  1.0000
  N   N5        1.0  0.3881761901735529  0.8603926583598852  0.5877314966963425  1.0000
  N   N6        1.0  0.8603961495171362  0.16373259236524268  0.5877022610794924  1.0000
  N   N7        1.0  0.008269507068114  0.9917290768722181  0.49999576317697586  1.0000
  N   N8        1.0  0.49999562753874466  0.008325688743965996  0.4999895810593601  1.0000
  N   N9        1.0  0.9916676208063109  0.5000176947516194  0.500006455312224  1.0000
  N   N10       1.0  0.1143884489752551  0.885613036911032  0.9999980713194032  1.0000
  N   N11       1.0  5.174566325599994e-06  0.114367954195508  1.1365474421186691e-05  1.0000
  N   N12       1.0  0.8856322713663259  1.4155252687119215e-06  0.9999884607026885  1.0000
  Cl  Cl1       1.0  0.9645117590092624  0.21415996602165419  0.39636802533534177  1.0000
  Cl  Cl2       1.0  0.4249230105727904  0.9645731677971128  0.3963794833762435  1.0000
  Cl  Cl3       1.0  0.2140801439704845  0.4249695934026577  0.3963863220623338  1.0000
  Cl  Cl4       1.0  0.035420191231040093  0.575077571936987  0.603627331286738  1.0000
  Cl  Cl5       1.0  0.5750248329307296  0.7859177873178994  0.6036235610351071  1.0000
  Cl  Cl6       1.0  0.7858426418053098  0.03548380518864758  0.6036313206416253  1.0000
  Cl  Cl7       1.0  0.9498113671659212  0.9498010504285831  0.15057790506853042  1.0000
  Cl  Cl8       1.0  0.050200871346831384  0.050193240818309406  0.8494218531653034  1.0000
