data_image0
_chemical_formula_structural       Zn4H80C108N16O24
_chemical_formula_sum              "Zn4 H80 C108 N16 O24"
_cell_length_a       14.367987104387918
_cell_length_b       14.416686905213863
_cell_length_c       17.488451875147067
_cell_angle_alpha    109.62739970811897
_cell_angle_beta     109.56599879018019
_cell_angle_gamma    100.63544469118719

_space_group_name_H-M_alt    "P 1"
_space_group_IT_number       1

loop_
  _space_group_symop_operation_xyz
  'x, y, z'

loop_
  _atom_site_type_symbol
  _atom_site_label
  _atom_site_symmetry_multiplicity
  _atom_site_fract_x
  _atom_site_fract_y
  _atom_site_fract_z
  _atom_site_occupancy
  Zn  Zn1       1.0  0.8104705663210935  0.868967954652405  0.6346867340491471  1.0000
  Zn  Zn2       1.0  0.32340344252691006  0.7659253714883788  0.6346008709742249  1.0000
  Zn  Zn3       1.0  0.18952546362480394  0.1310358863999426  0.36531950703893296  1.0000
  Zn  Zn4       1.0  0.6765945212441622  0.2340697344451641  0.3653965822041484  1.0000
  H   H1        1.0  0.5726862275900189  0.04017744529393498  0.7664545422529513  1.0000
  H   H2        1.0  0.6930666651869541  0.7263215660894249  0.7666576076069376  1.0000
  H   H3        1.0  0.42731229632187956  0.9598294736957059  0.2335497790492624  1.0000
  H   H4        1.0  0.3069338662137753  0.2736805892814759  0.23334591379001776  1.0000
  H   H5        1.0  0.26626126218071977  0.9945370295329352  0.6753657192719231  1.0000
  H   H6        1.0  0.9083834269502801  0.6807440176783645  0.6753734232860181  1.0000
  H   H7        1.0  0.7337317564708172  0.005460561413478598  0.324635131684026  1.0000
  H   H8        1.0  0.09161096550784008  0.31925981616122096  0.324624951616414  1.0000
  H   H9        1.0  0.8667337678018256  0.06563336552478212  0.6128472801550656  1.0000
  H   H10       1.0  0.2453449668027332  0.5474009712721114  0.6126574962910922  1.0000
  H   H11       1.0  0.13327462654420702  0.9343781071227683  0.387167189842856  1.0000
  H   H12       1.0  0.7546536823188674  0.452589432904233  0.38734511807244587  1.0000
  H   H13       1.0  0.8278541064472903  0.23414193687357004  0.6538845779542369  1.0000
  H   H14       1.0  0.32519797756408747  0.41965270366463153  0.6533281812272945  1.0000
  H   H15       1.0  0.17215102546107622  0.7658688033144756  0.3461265445199401  1.0000
  H   H16       1.0  0.6748068716258897  0.5803407115770726  0.34667518278767057  1.0000
  H   H17       1.0  0.7079180529158079  0.2577587345024313  0.7294611574717036  1.0000
  H   H18       1.0  0.5207142710879894  0.47156680914446275  0.7291192259867002  1.0000
  H   H19       1.0  0.29206963011143466  0.7422428732127386  0.27053426518323676  1.0000
  H   H20       1.0  0.47929196076437114  0.528430512857682  0.2708855888058038  1.0000
  H   H21       1.0  0.6693154781680873  0.9442700016555252  0.7083245859600779  1.0000
  H   H22       1.0  0.5383119060168083  0.7642514760549873  0.7085506209768652  1.0000
  H   H23       1.0  0.33067526074591297  0.055733910568371015  0.29167342405106206  1.0000
  H   H24       1.0  0.4616850436012853  0.2357405246168796  0.2914497045350045  1.0000
  H   H25       1.0  0.6504721640044193  0.2965955359321129  0.0014430314020188108  1.0000
  H   H26       1.0  0.8501572405993088  0.7043495811229404  0.0012590494163191555  1.0000
  H   H27       1.0  0.349527542972602  0.7034003211510297  0.9985550883429822  1.0000
  H   H28       1.0  0.14984600534786097  0.2956477897717846  0.9987427080079384  1.0000
  H   H29       1.0  0.6104684380183939  0.3537741086257212  0.12878849932068442  1.0000
  H   H30       1.0  0.01747431061099999  0.7747251420933381  0.1286956584344665  1.0000
  H   H31       1.0  0.38952961772960737  0.6462210174544935  0.8712129868132122  1.0000
  H   H32       1.0  0.9825402302329704  0.2252688322814364  0.8713052571797417  1.0000
  H   H33       1.0  0.5186809141398144  0.2486336786044134  0.12400953759286887  1.0000
  H   H34       1.0  0.10440937208985454  0.875201947814091  0.12397882367044133  1.0000
  H   H35       1.0  0.4813124387761718  0.7513607509749749  0.8759893768791683  1.0000
  H   H36       1.0  0.8956011161377047  0.12478895867920413  0.8760196023630014  1.0000
  H   H37       1.0  0.47916515278690497  0.3519235743479784  0.10615943154574836  1.0000
  H   H38       1.0  0.12624125228651897  0.7541610646676273  0.10614178137393529  1.0000
  H   H39       1.0  0.5208298513581013  0.6480715862343375  0.8938361165373933  1.0000
  H   H40       1.0  0.8737645111136626  0.24583147857948978  0.8938495700300846  1.0000
  H   H41       1.0  0.33112532815656687  0.18071202778466505  0.9622336924410532  1.0000
  H   H42       1.0  0.13037072973327912  0.7813906529481683  0.9622461567890638  1.0000
  H   H43       1.0  0.6688747384740594  0.8192869669299726  0.03776482358391326  1.0000
  H   H44       1.0  0.8696314275073007  0.21860593442713855  0.03775166545511869  1.0000
  H   H45       1.0  0.4115352553442975  0.0854376363044693  0.7379158989769792  1.0000
  H   H46       1.0  0.8256685857892379  0.6522891652390471  0.7377866191870195  1.0000
  H   H47       1.0  0.5884648787640643  0.91454878631599  0.2620831367487497  1.0000
  H   H48       1.0  0.17433434242683896  0.3477200021539703  0.2622154806539854  1.0000
  H   H49       1.0  0.03029068936527324  0.9677302752250585  0.722643350980661  1.0000
  H   H50       1.0  0.19150280354381272  0.7550503908218718  0.7225401338001801  1.0000
  H   H51       1.0  0.9696998598194639  0.032276830024919406  0.27736293301592224  1.0000
  H   H52       1.0  0.8084883930644081  0.24494643170636718  0.27745659377013243  1.0000
  H   H53       1.0  0.8224570130290443  0.8112106260604576  0.45216902529329406  1.0000
  H   H54       1.0  0.12867420657558185  0.6409263166072281  0.452012726961172  1.0000
  H   H55       1.0  0.17753976767690455  0.1887955417795837  0.547834629442292  1.0000
  H   H56       1.0  0.8713212937923699  0.3590680561560475  0.5479844475815269  1.0000
  H   H57       1.0  0.9701866314581196  0.8292617022598705  0.40539064455899876  1.0000
  H   H58       1.0  0.9342135701613543  0.5757960789607495  0.40531006776836154  1.0000
  H   H59       1.0  0.029811391947077905  0.17074366553797662  0.5946154009782134  1.0000
  H   H60       1.0  0.0657802735155784  0.42420853118549223  0.5946843761284981  1.0000
  H   H61       1.0  0.15553317607972872  0.921538292230899  0.5255853812076339  1.0000
  H   H62       1.0  0.8691941091458234  0.603585015495483  0.525599102405998  1.0000
  H   H63       1.0  0.8444656866686555  0.07846079024814401  0.4744242811362723  1.0000
  H   H64       1.0  0.130798531250548  0.3964204033272339  0.47439467909875077  1.0000
  H   H65       1.0  0.48940873789788947  0.6687463331868813  0.4959020616544619  1.0000
  H   H66       1.0  0.5061662118358683  0.8270845069669762  0.49588140321040436  1.0000
  H   H67       1.0  0.5105967203090812  0.3312572885245401  0.5041020170138566  1.0000
  H   H68       1.0  0.49383093458737903  0.17291455103072206  0.5041169361288311  1.0000
  H   H69       1.0  0.32554011662893595  0.5206659682344393  0.441345076075656  1.0000
  H   H70       1.0  0.6158644276890826  0.9206049294365645  0.44159223319064006  1.0000
  H   H71       1.0  0.6744631241445089  0.47933535689178813  0.5586612125340408  1.0000
  H   H72       1.0  0.3841343079474555  0.0793964632723458  0.5584083170936862  1.0000
  H   H73       1.0  0.19159895629130114  0.079436696400073  0.050687693806366965  1.0000
  H   H74       1.0  0.3595272423106124  0.9717840957259939  0.051223628995607805  1.0000
  H   H75       1.0  0.8083969379752174  0.9205647768604877  0.9493161366112446  1.0000
  H   H76       1.0  0.6404963522213476  0.028219105282921902  0.9487765127641267  1.0000
  H   H77       1.0  0.07081982540785961  0.989866123695052  0.8867692818742013  1.0000
  H   H78       1.0  0.31569883977318364  0.8972327771176722  0.8871507935897823  1.0000
  H   H79       1.0  0.9291801468642332  0.010144716445502397  0.11323937088805282  1.0000
  H   H80       1.0  0.6843230632211142  0.10277597749635703  0.11285216664022352  1.0000
  C   C1        1.0  0.8129325213128664  0.0788054239901896  0.643624418823208  1.0000
  C   C2        1.0  0.32989515432911526  0.5648847775286969  0.6433764526696564  1.0000
  C   C3        1.0  0.18706985752034203  0.9212037987974073  0.3563855587232752  1.0000
  C   C4        1.0  0.670107353997551  0.43511026945643755  0.35662846724360264  1.0000
  C   C5        1.0  0.7918574460045986  0.17197037452680775  0.6676770312944028  1.0000
  C   C6        1.0  0.3749749060667611  0.4956575629125908  0.6672686429291161  1.0000
  C   C7        1.0  0.2081414201375864  0.828037340205391  0.33233046084582435  1.0000
  C   C8        1.0  0.6250315323364999  0.5043381870403252  0.33273693203094007  1.0000
  C   C9        1.0  0.7244864263461893  0.18510070889192326  0.7088830945040314  1.0000
  C   C10       1.0  0.4835567089609113  0.5236669583006659  0.7085533055387996  1.0000
  C   C11       1.0  0.2755084491953212  0.8149023342505259  0.2911163307214579  1.0000
  C   C12       1.0  0.5164499351032957  0.4763335128453505  0.29145421007967787  1.0000
  C   C13       1.0  0.6788872904031321  0.1028642637813277  0.7251269407487297  1.0000
  C   C14       1.0  0.5454668764368477  0.622208848495461  0.7250057585213199  1.0000
  C   C15       1.0  0.3211050377241519  0.8971419831537802  0.274873280207494  1.0000
  C   C16       1.0  0.45453315445717374  0.3777917556836457  0.27499948711063377  1.0000
  C   C17       1.0  0.7019073109617366  0.010201155065601606  0.6967947269411565  1.0000
  C   C18       1.0  0.4941426167130841  0.6866964194726393  0.696804974616512  1.0000
  C   C19       1.0  0.2980880739422744  0.9898011031359033  0.3032069008803902  1.0000
  C   C20       1.0  0.5058611648757108  0.3133001722373336  0.3032001376768179  1.0000
  C   C21       1.0  0.619588824642932  0.20111060014717452  0.832365658782585  1.0000
  C   C22       1.0  0.712026591322491  0.6306922210756483  0.8320604903541093  1.0000
  C   C23       1.0  0.3804021251057391  0.7988940790383269  0.16762976070155133  1.0000
  C   C24       1.0  0.28796932922315227  0.36930925794110453  0.16794449233650974  1.0000
  C   C25       1.0  0.5377867950687757  0.19086821095024928  0.8666606834759988  1.0000
  C   C26       1.0  0.8280962575877169  0.6754521769212831  0.8664975823828698  1.0000
  C   C27       1.0  0.4622099645317803  0.8091339969020909  0.13333728780114734  1.0000
  C   C28       1.0  0.1719068780692368  0.3245491251801767  0.13350409713480363  1.0000
  C   C29       1.0  0.5682524992453748  0.24879683858533497  0.9584954221060326  1.0000
  C   C30       1.0  0.8894213822060449  0.7093663320831851  0.9583516383078388  1.0000
  C   C31       1.0  0.4317472340107642  0.7511990242539996  0.04150384991197604  1.0000
  C   C32       1.0  0.1105887525538236  0.29063798037287114  0.04165385974933862  1.0000
  C   C33       1.0  0.4954388901830597  0.24471095943619048  0.9949292165937036  1.0000
  C   C34       1.0  0.9986611846621898  0.7500444470294243  0.9948668455580431  1.0000
  C   C35       1.0  0.504558243990587  0.7552818024410897  0.005067366118154755  1.0000
  C   C36       1.0  0.0013486218969234398  0.24995277931982687  0.005134877306737555  1.0000
  C   C37       1.0  0.527979843741285  0.3034534915343841  0.09380861327363016  1.0000
  C   C38       1.0  0.0649918307970339  0.7901914026765269  0.09376148640988187  1.0000
  C   C39       1.0  0.4720161134309179  0.6965400847755631  0.9061884593191178  1.0000
  C   C40       1.0  0.9350200532324705  0.20980341345529752  0.9062389665376073  1.0000
  C   C41       1.0  0.39058651529300886  0.1842221761759006  0.9365935006859657  1.0000
  C   C42       1.0  0.04524119098265092  0.7522524839498886  0.936581480255022  1.0000
  C   C43       1.0  0.6094110705111717  0.8157737434795395  0.06340751126138139  1.0000
  C   C44       1.0  0.9547654879282061  0.24775267097398773  0.0634204862473523  1.0000
  C   C45       1.0  0.3581848376852291  0.12712840116780913  0.8442099428336501  1.0000
  C   C46       1.0  0.9853002528127062  0.716940035259192  0.8441746773070944  1.0000
  C   C47       1.0  0.6418152955331635  0.8728643146949794  0.15579027338295506  1.0000
  C   C48       1.0  0.014703357071830693  0.283062812277862  0.1558241257025799  1.0000
  C   C49       1.0  0.4330069200844448  0.12926922636932403  0.8092220471068926  1.0000
  C   C50       1.0  0.8754778733686805  0.6797286396720069  0.8091120073842716  1.0000
  C   C51       1.0  0.5669923835365224  0.8707211454372015  0.19077729864319073  1.0000
  C   C52       1.0  0.1245264952417529  0.3202804917623254  0.1908893165948413  1.0000
  C   C53       1.0  0.2430171448804899  0.06949687287853121  0.7891750491207147  1.0000
  C   C54       1.0  0.04550230484482401  0.719575964624333  0.7891651178085437  1.0000
  C   C55       1.0  0.756986246491813  0.930494236432928  0.2108318653141906  1.0000
  C   C56       1.0  0.9544975412053771  0.280430892503766  0.2108332424032539  1.0000
  C   C57       1.0  0.10818897579552113  0.9545584880811265  0.6338366035028641  1.0000
  C   C58       1.0  0.02484370812504006  0.6791165721336014  0.6337984813975623  1.0000
  C   C59       1.0  0.8918083545815847  0.04544061020992269  0.3661698017474108  1.0000
  C   C60       1.0  0.9751506012119506  0.3208849054265741  0.36619978738040965  1.0000
  C   C61       1.0  0.020938765551974874  0.9398837665869099  0.6537246457848838  1.0000
  C   C62       1.0  0.1319452931705456  0.7138908627769922  0.6536443285011799  1.0000
  C   C63       1.0  0.979056228245582  0.060119302458403495  0.34627996466912936  1.0000
  C   C64       1.0  0.8680464696421947  0.28610752533352013  0.3463535555166429  1.0000
  C   C65       1.0  0.9041232745889187  0.8508852940762638  0.5012696589319174  1.0000
  C   C66       1.0  0.09619551524603054  0.6503189912522915  0.5011847311772399  1.0000
  C   C67       1.0  0.09587339671678308  0.1491185117281688  0.4987327374062004  1.0000
  C   C68       1.0  0.9038006475871255  0.3496793062507636  0.498814282073944  1.0000
  C   C69       1.0  0.9865430777920922  0.861313453272686  0.4763655374221471  1.0000
  C   C70       1.0  0.9888765927451499  0.6148053304581467  0.4763048886925885  1.0000
  C   C71       1.0  0.013450199078647508  0.13868887037921954  0.5236395587382461  1.0000
  C   C72       1.0  0.011119002993531558  0.38519769470496373  0.5236941486019475  1.0000
  C   C73       1.0  0.08886537250465668  0.9127505321719483  0.5424120037499022  1.0000
  C   C74       1.0  0.9526672880089035  0.6293521611546212  0.5423900833801338  1.0000
  C   C75       1.0  0.9111301621082504  0.08724780345711738  0.4575914303877369  1.0000
  C   C76       1.0  0.047325888029099906  0.3706524784833434  0.45760705299367993  1.0000
  C   C77       1.0  0.6893738312682414  0.6690857176231548  0.5629231091158998  1.0000
  C   C78       1.0  0.37311782592392  0.8939652679810096  0.5627609141412576  1.0000
  C   C79       1.0  0.3106318729083241  0.33091634067333325  0.43708345812947147  1.0000
  C   C80       1.0  0.626871241545622  0.10602766000993571  0.43723359830946135  1.0000
  C   C81       1.0  0.5911584318555609  0.5818318612060908  0.5295630052941218  1.0000
  C   C82       1.0  0.43819174285376766  0.9477639923944353  0.529462017816776  1.0000
  C   C83       1.0  0.40884904269604044  0.41816466075386677  0.4704442003000011  1.0000
  C   C84       1.0  0.5618038537748687  0.05223273952634601  0.4705358389868833  1.0000
  C   C85       1.0  0.4932240126069658  0.5943394891985037  0.4966962087337519  1.0000
  C   C86       1.0  0.5032556888153152  0.9023070279849038  0.4967024390202043  1.0000
  C   C87       1.0  0.5067837244475867  0.40566410447776485  0.5033118913702522  1.0000
  C   C88       1.0  0.49674037775714897  0.0976889103606382  0.503295891970012  1.0000
  C   C89       1.0  0.4024544307483565  0.512585399240791  0.46705983347334257  1.0000
  C   C90       1.0  0.5646026593560479  0.9543955619707634  0.46717645405170327  1.0000
  C   C91       1.0  0.5975460001079185  0.4874120579617768  0.5329463563572074  1.0000
  C   C92       1.0  0.43539367060932926  0.04560115484877511  0.5328215909575178  1.0000
  C   C93       1.0  0.10751471208218528  0.0445107466133194  0.027766994564601098  1.0000
  C   C94       1.0  0.42049896534113873  0.9835597708898832  0.028063754334098752  1.0000
  C   C95       1.0  0.8924906358345692  0.9554968063048292  0.972237006197133  1.0000
  C   C96       1.0  0.5795149418205838  0.0164452099967889  0.9719354851318441  1.0000
  C   C97       1.0  0.04030906800154106  0.994053826430829  0.9366082306903464  1.0000
  C   C98       1.0  0.3961567514757362  0.9427288405604699  0.9368252897233587  1.0000
  C   C99       1.0  0.959699200122607  0.005953663204259401  0.06339594675711872  1.0000
  C   C100      1.0  0.6038577753387101  0.05727142417853062  0.06317623024522583  1.0000
  C   C101      1.0  0.932265790061578  0.9490709182092445  0.9082835942091093  1.0000
  C   C102      1.0  0.47565370854321987  0.9591222723247057  0.9082181508688476  1.0000
  C   C103      1.0  0.0677423118203109  0.050931858867024  0.09172037098942809  1.0000
  C   C104      1.0  0.5243601549160601  0.040880360916851495  0.09178271088213559  1.0000
  C   C105      1.0  0.8596267893023324  0.8958212242291241  0.810330636114756  1.0000
  C   C106      1.0  0.45000901416216277  0.9144143727012591  0.8101852492536565  1.0000
  C   C107      1.0  0.1403730087616566  0.1041809462430194  0.18967269707664502  1.0000
  C   C108      1.0  0.5500053418379877  0.08558585462249371  0.18980878094039605  1.0000
  N   N1        1.0  0.7677263490493259  0.9994763257766268  0.6576753080681427  1.0000
  N   N2        1.0  0.3891881248335735  0.6583493396863388  0.6576435819400002  1.0000
  N   N3        1.0  0.23227350068295038  0.0005321494502296988  0.3423315101601432  1.0000
  N   N4        1.0  0.6108162675521385  0.3416448720086934  0.34235988402491546  1.0000
  N   N5        1.0  0.6119618040237853  0.10873485984612331  0.7670914094257738  1.0000
  N   N6        1.0  0.6543799839892795  0.6583034081843806  0.7671220707278862  1.0000
  N   N7        1.0  0.38803339175264273  0.891271312293533  0.2329066836701728  1.0000
  N   N8        1.0  0.3456160248512177  0.3416964728802797  0.23287848690175386  1.0000
  N   N9        1.0  0.21091050977125997  0.006989552354738698  0.6988515088025051  1.0000
  N   N10       1.0  0.9872234675692226  0.6917054159100716  0.6988328530415869  1.0000
  N   N11       1.0  0.7890841909604588  0.9930041002072302  0.3011544055631674  1.0000
  N   N12       1.0  0.012769098561818707  0.3082953105005117  0.3011647491697573  1.0000
  N   N13       1.0  0.9224087246999132  0.8891769393759502  0.5884562131578049  1.0000
  N   N14       1.0  0.16516126452674476  0.6993530013641445  0.5883598044596496  1.0000
  N   N15       1.0  0.0775855926029152  0.11082849529382337  0.4115471629420994  1.0000
  N   N16       1.0  0.8348359475943069  0.30064607102403323  0.41164141556210143  1.0000
  O   O1        1.0  0.6789106380894765  0.7528501334951655  0.554204790611841  1.0000
  O   O2        1.0  0.3747969572004876  0.80153014810179  0.5542388741425126  1.0000
  O   O3        1.0  0.3210917379516189  0.2471511779513378  0.445795548427263  1.0000
  O   O4        1.0  0.625185186321431  0.19845816870437724  0.44574681857122284  1.0000
  O   O5        1.0  0.7768042054103361  0.6592686144282781  0.5983113717157876  1.0000
  O   O6        1.0  0.3209788320870358  0.9392322227774982  0.5979655064423779  1.0000
  O   O7        1.0  0.22319831516593777  0.3407327286772812  0.40169530482484817  1.0000
  O   O8        1.0  0.6790182443546371  0.06076448181889298  0.4020333029088972  1.0000
  O   O9        1.0  0.9039559436820354  0.8985240246668413  0.7572354925363312  1.0000
  O   O10       1.0  0.3525404527924252  0.8586626356217124  0.7572438208752883  1.0000
  O   O11       1.0  0.09604462802733586  0.10147184609601817  0.24276857677925526  1.0000
  O   O12       1.0  0.6474694509173344  0.14133065664271532  0.2427574037595689  1.0000
  O   O13       1.0  0.7625331504505651  0.8540722059485474  0.7831561071144719  1.0000
  O   O14       1.0  0.5197865962982533  0.9289178830073155  0.782849698341117  1.0000
  O   O15       1.0  0.2374676969013264  0.14593073940872606  0.21684943284749633  1.0000
  O   O16       1.0  0.4802173652740507  0.07108414505164261  0.2171443936265831  1.0000
  O   O17       1.0  0.6885477251729241  0.2853884029561016  0.8608276029526962  1.0000
  O   O18       1.0  0.671520262547531  0.5743580472347674  0.8601379042165859  1.0000
  O   O19       1.0  0.3114399340790329  0.7146281244983687  0.13916567771644156  1.0000
  O   O20       1.0  0.3284902844241912  0.4256494143651679  0.139870294666565  1.0000
  O   O21       1.0  0.179854940794577  0.07989841171098529  0.8225754978941922  1.0000
  O   O22       1.0  0.1420518665857244  0.7425723859250155  0.8225854931741876  1.0000
  O   O23       1.0  0.8201455575394262  0.9200864733974045  0.17743121163711345  1.0000
  O   O24       1.0  0.8579453935215324  0.2574313731191181  0.17741075386795999  1.0000
