data_image0
_chemical_formula_structural       Zn4P4H16C4O16
_chemical_formula_sum              "Zn4 P4 H16 C4 O16"
_cell_length_a       4.83836125484854
_cell_length_b       5.704773471853686
_cell_length_c       15.454635776868935
_cell_angle_alpha    90.00119061099707
_cell_angle_beta     89.99968093577958
_cell_angle_gamma    95.84829941177506

_space_group_name_H-M_alt    "P 1"
_space_group_IT_number       1

loop_
  _space_group_symop_operation_xyz
  'x, y, z'

loop_
  _atom_site_type_symbol
  _atom_site_label
  _atom_site_symmetry_multiplicity
  _atom_site_fract_x
  _atom_site_fract_y
  _atom_site_fract_z
  _atom_site_occupancy
  Zn  Zn1       1.0  0.44055368154872815  0.9493811108814327  0.7708107797098762  1.0000
  Zn  Zn2       1.0  0.059440038253612194  0.5506210222743988  0.2708146373840705  1.0000
  Zn  Zn3       1.0  0.5594551144132964  0.05062497826906309  0.22918918381164838  1.0000
  Zn  Zn4       1.0  0.9405474550218855  0.44937744702252047  0.7291885614024309  1.0000
  P   P1        1.0  0.9926218978368482  0.9630700885893121  0.6421719206932366  1.0000
  P   P2        1.0  0.507387552105726  0.5369267828435439  0.14217641293178931  1.0000
  P   P3        1.0  0.007381888295285001  0.03692531839484299  0.35782092518658  1.0000
  P   P4        1.0  0.4926205233560951  0.4630705004856425  0.8578209623366817  1.0000
  H   H1        1.0  0.9666060263911617  0.8611720941549021  0.8609305125246465  1.0000
  H   H2        1.0  0.5334071142569741  0.6388353896564211  0.3609318523966962  1.0000
  H   H3        1.0  0.0333875406798541  0.1388247864872696  0.1390688039202033  1.0000
  H   H4        1.0  0.4665941669020697  0.36115467654228445  0.6390681110704577  1.0000
  H   H5        1.0  0.0809222147082096  0.13395846766212569  0.8669636071000184  1.0000
  H   H6        1.0  0.4190874680259853  0.3660521230447528  0.3669672912331237  1.0000
  H   H7        1.0  0.9190907816945283  0.8660231379761  0.1330357092695635  1.0000
  H   H8        1.0  0.5809207515316501  0.6339469214703469  0.6330313781520047  1.0000
  H   H9        1.0  0.2871938325407016  0.9172995677054844  0.5226069491893526  1.0000
  H   H10       1.0  0.2128038880087928  0.5827045726727391  0.0226166043388361  1.0000
  H   H11       1.0  0.7128203166884504  0.08269612711330862  0.4773917201778062  1.0000
  H   H12       1.0  0.7871754036632552  0.4173200262895519  0.977389829829562  1.0000
  H   H13       1.0  0.9735814101277784  0.7296980674003847  0.5147445585394834  1.0000
  H   H14       1.0  0.5264000677851329  0.7703119678536295  0.014754676347081396  1.0000
  H   H15       1.0  0.026399144766749295  0.27029142348991536  0.48525669905382063  1.0000
  H   H16       1.0  0.4735978775151112  0.22971314893675293  0.9852524048618958  1.0000
  C   C1        1.0  0.06051407379622729  0.910896612851019  0.5296037307250927  1.0000
  C   C2        1.0  0.4394786496605221  0.5891235951031176  0.029598799994445795  1.0000
  C   C3        1.0  0.9394870632987206  0.08909169199937848  0.4703891151300184  1.0000
  C   C4        1.0  0.560500586998522  0.410925601538132  0.9703759285705829  1.0000
  O   O1        1.0  0.13058493150209216  0.7701095781626817  0.6948706965917495  1.0000
  O   O2        1.0  0.3694143372009862  0.7298954793383102  0.1948799022325503  1.0000
  O   O3        1.0  0.8694110515720014  0.22986628382265198  0.3051312079911241  1.0000
  O   O4        1.0  0.6305844726741299  0.27014020456756777  0.8051349436763928  1.0000
  O   O5        1.0  0.1437228172305041  0.2053865119636171  0.6685631596518532  1.0000
  O   O6        1.0  0.35627014018282216  0.2945843744077408  0.1685631752485222  1.0000
  O   O7        1.0  0.8562800490564797  0.7946229269012263  0.331437450942687  1.0000
  O   O8        1.0  0.643714958543839  0.7053595567068172  0.8314374351123135  1.0000
  O   O9        1.0  0.6778214232214239  0.9459203980623341  0.6563212854020506  1.0000
  O   O10       1.0  0.8221907208964724  0.5540615273161295  0.1563279415874845  1.0000
  O   O11       1.0  0.3221739282731519  0.054073017796589795  0.3436773839729881  1.0000
  O   O12       1.0  0.1778364404704078  0.4459415574530254  0.8436759042366688  1.0000
  O   O13       1.0  0.1361558519766604  0.971652551331843  0.8704271975816764  1.0000
  O   O14       1.0  0.36384613702423246  0.5283430975470224  0.37043487860504604  1.0000
  O   O15       1.0  0.8638435006559745  0.028339218500285288  0.1295734129487016  1.0000
  O   O16       1.0  0.6361642992302877  0.4716577658147542  0.6295696142804346  1.0000
