data_image0
_chemical_formula_structural       Al2H30C42N6O12
_chemical_formula_sum              "Al2 H30 C42 N6 O12"
_cell_length_a       4.050278077011792
_cell_length_b       24.634273049606414
_cell_length_c       24.634318099929175
_cell_angle_alpha    120.00023824182789
_cell_angle_beta     90.00025226778153
_cell_angle_gamma    89.99996244822667

_space_group_name_H-M_alt    "P 1"
_space_group_IT_number       1

loop_
  _space_group_symop_operation_xyz
  'x, y, z'

loop_
  _atom_site_type_symbol
  _atom_site_label
  _atom_site_symmetry_multiplicity
  _atom_site_fract_x
  _atom_site_fract_y
  _atom_site_fract_z
  _atom_site_occupancy
  Al  Al1       1.0  0.964307370962871  0.4999993247210167  0.500001804536403  1.0000
  Al  Al2       1.0  0.9637642026498909  0.166666356073392  0.8333343655576114  1.0000
  H   H1        1.0  0.7233779159550621  0.48974677506343756  0.6628961076433412  1.0000
  H   H2        1.0  0.7231489432634179  0.1768924769664435  0.670440213358404  1.0000
  H   H3        1.0  0.19529307985435204  0.3286451137198579  0.8219436145880791  1.0000
  H   H4        1.0  0.20000545696586164  0.3860139497652848  0.7623650601597446  1.0000
  H   H5        1.0  0.1955778662688061  0.3380155591965701  0.5113641380156437  1.0000
  H   H6        1.0  0.20007967122869993  0.28063406092203985  0.5709342515022158  1.0000
  H   H7        1.0  0.7233780684357427  0.6731461521783116  0.5102545764281459  1.0000
  H   H8        1.0  0.7231026159875925  0.9935455222596158  0.8231120601365305  1.0000
  H   H9        1.0  0.19533933516219548  0.9932958410975414  0.6713503032389242  1.0000
  H   H10       1.0  0.20003722962440657  0.8763467749449061  0.6139814936056851  1.0000
  H   H11       1.0  0.1955743190384496  0.6733476108801709  0.6619851509586425  1.0000
  H   H12       1.0  0.20007826205620916  0.7902986577912967  0.719365787449931  1.0000
  H   H13       1.0  0.7233885946042095  0.33710522449551655  0.3268532932916131  1.0000
  H   H14       1.0  0.7231301092071334  0.3295607758723662  0.0064551394262367156  1.0000
  H   H15       1.0  0.1953098256678629  0.1780535325265262  0.006702190209480802  1.0000
  H   H16       1.0  0.20001216537502128  0.23763171844850453  0.12365079529499204  1.0000
  H   H17       1.0  0.19555790396206157  0.4886343765206788  0.3266526909493308  1.0000
  H   H18       1.0  0.20005987051024482  0.42906459575045364  0.209702181454233  1.0000
  H   H19       1.0  0.6884903851931269  0.42219716760256165  0.7633045729771268  1.0000
  H   H20       1.0  0.7779383827566235  0.48688578713949215  0.757983179022908  1.0000
  H   H21       1.0  0.6885671696905149  0.2444453709148673  0.570025171094862  1.0000
  H   H22       1.0  0.7778994895408432  0.17974959514991437  0.5753497723778765  1.0000
  H   H23       1.0  0.6885193267438722  0.8411045334228218  0.5778038380381432  1.0000
  H   H24       1.0  0.7779519667513881  0.7710940471534398  0.5131154928845446  1.0000
  H   H25       1.0  0.6885537775528973  0.8255776504984523  0.7555584441821851  1.0000
  H   H26       1.0  0.7778545446351615  0.8955986748009364  0.8202550350150233  1.0000
  H   H27       1.0  0.6885050140002208  0.23669562151999193  0.15889470710290962  1.0000
  H   H28       1.0  0.7779590387159702  0.24201759544892099  0.22890369301167374  1.0000
  H   H29       1.0  0.6885468546528629  0.4299759708931036  0.17442351632477943  1.0000
  H   H30       1.0  0.7778780850949261  0.42465239045272085  0.10440406927451557  1.0000
  C   C1        1.0  0.46420226073686166  0.4512434623891294  0.40370710796810266  1.0000
  C   C2        1.0  0.46420168876900897  0.4524612247723779  0.5487556142744054  1.0000
  C   C3        1.0  0.4641964855521152  0.596292352471252  0.5475394509383662  1.0000
  C   C4        1.0  0.4636521410060155  0.21419899648544302  0.7845780901385666  1.0000
  C   C5        1.0  0.46364499946174215  0.07037675348475857  0.7858007944777442  1.0000
  C   C6        1.0  0.46365156898369975  0.21542114907538917  0.9296230181319344  1.0000
  C   C7        1.0  0.46308129621006344  0.4172447619617044  0.5836658696917922  1.0000
  C   C8        1.0  0.4627356362414758  0.2494035151323998  0.7496554212508073  1.0000
  C   C9        1.0  0.6048080979255134  0.4439413392035616  0.6429789902805112  1.0000
  C   C10       1.0  0.6056801435834275  0.4121096170987926  0.6769953594135246  1.0000
  C   C11       1.0  0.6046017085741437  0.22269935942293972  0.6903516781642125  1.0000
  C   C12       1.0  0.60552213230325  0.2545285710536403  0.6563248305607842  1.0000
  C   C13       1.0  0.3175581994783768  0.30879879401576427  0.7765774840916108  1.0000
  C   C14       1.0  0.32185123873733795  0.3406078952918461  0.7431276969622189  1.0000
  C   C15       1.0  0.31779719473889395  0.35785228108399275  0.5567343342811313  1.0000
  C   C16       1.0  0.32199739941330563  0.32603732648419737  0.5901778017974166  1.0000
  C   C17       1.0  0.4648377119611452  0.3513292206430875  0.6498425956316609  1.0000
  C   C18       1.0  0.46479871128185113  0.31531563799303786  0.6834748092181115  1.0000
  C   C19       1.0  0.4630685074550911  0.6664198695243967  0.5827549461334129  1.0000
  C   C20       1.0  0.462731142605179  0.00024987191530093154  0.7505976525824779  1.0000
  C   C21       1.0  0.604806517634117  0.6990336867285193  0.5560591124503063  1.0000
  C   C22       1.0  0.6056833032590488  0.7648825969303842  0.5878898863948764  1.0000
  C   C23       1.0  0.6045719278938009  0.967649812860145  0.7773025623224045  1.0000
  C   C24       1.0  0.6054999566480816  0.9017947174196265  0.7454731034432883  1.0000
  C   C25       1.0  0.3175806288080096  0.9677771743835065  0.6911987982660862  1.0000
  C   C26       1.0  0.3218639819856576  0.9025176953621706  0.6593907542789808  1.0000
  C   C27       1.0  0.31779031492168036  0.6988796052835652  0.6421486476144623  1.0000
  C   C28       1.0  0.3219927989251802  0.7641391148642211  0.673962349431953  1.0000
  C   C29       1.0  0.4648393902897041  0.7985089237703276  0.6486695473190879  1.0000
  C   C30       1.0  0.46480270656430633  0.8681562745739055  0.6846826518661758  1.0000
  C   C31       1.0  0.4630730854928728  0.4163342825369156  0.33357948088438155  1.0000
  C   C32       1.0  0.46273397116084425  0.2503431515796988  0.9997508113885588  1.0000
  C   C33       1.0  0.6048087085960532  0.35702219226990195  0.3009657763924878  1.0000
  C   C34       1.0  0.6056819194710883  0.3230043183218284  0.23511607327339587  1.0000
  C   C35       1.0  0.6045904736977121  0.30964757707253904  0.03235010707383171  1.0000
  C   C36       1.0  0.6055047944767509  0.3436745703852537  0.09820611764309463  1.0000
  C   C37       1.0  0.31756588449603385  0.22341960905694688  0.03222383355596749  1.0000
  C   C38       1.0  0.3218503374427399  0.2568717842607667  0.09748393455913626  1.0000
  C   C39       1.0  0.3177788861139775  0.4432646118516103  0.30111946117835936  1.0000
  C   C40       1.0  0.32198767714996995  0.40981902953022586  0.23585845571104613  1.0000
  C   C41       1.0  0.46483678167831505  0.3501565058732297  0.2014899851171991  1.0000
  C   C42       1.0  0.46479642465618554  0.31652495579201195  0.13184407260314407  1.0000
  N   N1        1.0  0.757250700775593  0.4396019761909072  0.7354144699448639  1.0000
  N   N2        1.0  0.7572591449276515  0.22703113519244045  0.5979166674176426  1.0000
  N   N3        1.0  0.7572675434812624  0.7958088138321101  0.5603989308952605  1.0000
  N   N4        1.0  0.7572356309911826  0.8708826206711886  0.7729712351630339  1.0000
  N   N5        1.0  0.7572613317019972  0.2645864410563802  0.2041915600045527  1.0000
  N   N6        1.0  0.7572477655515613  0.40208452145795787  0.12911763575814908  1.0000
  O   O1        1.0  0.6996842162043392  0.5690789445667618  0.5588871906969857  1.0000
  O   O2        1.0  0.6996777402862976  0.4898058747934896  0.43092331412375984  1.0000
  O   O3        1.0  0.6996887384666763  0.44111278907900664  0.5101947837684334  1.0000
  O   O4        1.0  0.22900970796184342  0.568658676500071  0.5090080947106231  1.0000
  O   O5        1.0  0.22901050570101228  0.49099194386837286  0.5596528174988649  1.0000
  O   O6        1.0  0.22900891352759342  0.44034630251943696  0.43134094155728064  1.0000
  O   O7        1.0  0.6990844970559567  0.17685238234816567  0.9023996554533298  1.0000
  O   O8        1.0  0.6990809060425889  0.22554530433987433  0.8231486464781241  1.0000
  O   O9        1.0  0.6990755523836752  0.09760014110140222  0.77445473243597  1.0000
  O   O10       1.0  0.2283661088798965  0.22632284670041247  0.9020095241800804  1.0000
  O   O11       1.0  0.228367783102712  0.09799189592697372  0.8243162944791464  1.0000
  O   O12       1.0  0.22836698540552183  0.17568447526662806  0.7736782001858273  1.0000
