data_image0
_chemical_formula_structural       Rb4H12C28N8O28
_chemical_formula_sum              "Rb4 H12 C28 N8 O28"
_cell_length_a       7.330985108228141
_cell_length_b       7.708120394650702
_cell_length_c       16.90936278648211
_cell_angle_alpha    95.91126119710071
_cell_angle_beta     90.00086052838391
_cell_angle_gamma    89.9996326602089

_space_group_name_H-M_alt    "P 1"
_space_group_IT_number       1

loop_
  _space_group_symop_operation_xyz
  'x, y, z'

loop_
  _atom_site_type_symbol
  _atom_site_label
  _atom_site_symmetry_multiplicity
  _atom_site_fract_x
  _atom_site_fract_y
  _atom_site_fract_z
  _atom_site_occupancy
  Rb  Rb1       1.0  0.8410632056636584  0.38715356894169156  0.7976254627020583  1.0000
  Rb  Rb2       1.0  0.3410625054178098  0.6128459858468744  0.7023722652555904  1.0000
  Rb  Rb3       1.0  0.15893642736409666  0.6128536079400816  0.2023738237516852  1.0000
  Rb  Rb4       1.0  0.6589330354075642  0.3871546699186227  0.29762673912973986  1.0000
  H   H1        1.0  0.4189978513884611  0.3095116493245342  0.03663974223747601  1.0000
  H   H2        1.0  0.9190036187756477  0.6904875869226574  0.4633621164745351  1.0000
  H   H3        1.0  0.5810072380274746  0.6904825490524759  0.9633625313279027  1.0000
  H   H4        1.0  0.08098510171120668  0.3095144049637923  0.536638719903273  1.0000
  H   H5        1.0  0.18914985481079333  0.0196613998632529  0.8279167331690546  1.0000
  H   H6        1.0  0.6891449294716238  0.9803323867747054  0.6720821255418488  1.0000
  H   H7        1.0  0.8108579626252136  0.9803457451195429  0.17208077770759905  1.0000
  H   H8        1.0  0.31086152397994476  0.019664388169609  0.3279184852472384  1.0000
  H   H9        1.0  0.08353045803536222  0.6590779979489838  0.9976431998242674  1.0000
  H   H10       1.0  0.5835253211634636  0.340917533735798  0.5023520922295504  1.0000
  H   H11       1.0  0.9164609905774057  0.3409161260736298  0.002354930625060103  1.0000
  H   H12       1.0  0.4164715837555234  0.6590831432797374  0.4976480958952649  1.0000
  C   C1        1.0  0.0935693388458034  0.7337822392065194  0.8932789404256952  1.0000
  C   C2        1.0  0.5935642330836758  0.2662000970111578  0.6067099319270853  1.0000
  C   C3        1.0  0.9064330222123899  0.2662182783970621  0.10671236970227231  1.0000
  C   C4        1.0  0.40643812804958657  0.7337913441493099  0.3932839426611069  1.0000
  C   C5        1.0  0.17778467537245754  0.8937157209875863  0.9352081019577556  1.0000
  C   C6        1.0  0.6777832860606806  0.1062742167451702  0.5647911079778822  1.0000
  C   C7        1.0  0.8222272343410565  0.1062810220641239  0.0647907332456796  1.0000
  C   C8        1.0  0.32221907514070847  0.8937264496309892  0.4352084882964746  1.0000
  C   C9        1.0  0.2097631144158285  0.9040625921220027  0.02053765413144501  1.0000
  C   C10       1.0  0.7097611722496637  0.09593368875048472  0.4794615367225461  1.0000
  C   C11       1.0  0.7902433389504677  0.09593932533669398  0.9794590392288853  1.0000
  C   C12       1.0  0.2902425530487561  0.9040656946505479  0.5205391868801855  1.0000
  C   C13       1.0  0.29945845447944913  0.061906557530015505  0.055062550863759406  1.0000
  C   C14       1.0  0.7994591853074057  0.9380906293330327  0.444938443805107  1.0000
  C   C15       1.0  0.7005452708053211  0.938094119469575  0.9449376372824858  1.0000
  C   C16       1.0  0.20053908369154527  0.06191136253109159  0.5550623926027001  1.0000
  C   C17       1.0  0.34912720810202563  0.19404958361877786  0.009117570383985201  1.0000
  C   C18       1.0  0.8491331515569199  0.8059473603177381  0.49088314456022186  1.0000
  C   C19       1.0  0.65087651715551  0.8059458339736878  0.9908800246474246  1.0000
  C   C20       1.0  0.15085556897429342  0.19404944654788644  0.5091192417759416  1.0000
  C   C21       1.0  0.30618854128139356  0.1787325006474063  0.9285905133763637  1.0000
  C   C22       1.0  0.8061921093376441  0.8212607386114428  0.5714090808514527  1.0000
  C   C23       1.0  0.6938179120815137  0.8212667977343385  0.0714054752941493  1.0000
  C   C24       1.0  0.19380479562909161  0.1787373724602048  0.42859336192153563  1.0000
  C   C25       1.0  0.219831654095735  0.0298825795680671  0.8913645732783524  1.0000
  C   C26       1.0  0.7198327815159615  0.9701097487132274  0.6086338299822958  1.0000
  C   C27       1.0  0.7801720711413154  0.97011674007328  0.10863259911878491  1.0000
  C   C28       1.0  0.28017094374832396  0.0298948303352518  0.3913659355296772  1.0000
  N   N1        1.0  0.34567052402120163  0.08865569629992359  0.1388707082678806  1.0000
  N   N2        1.0  0.8456739847587117  0.9113425999134109  0.3611318169600679  1.0000
  N   N3        1.0  0.6543236527617536  0.9113371447443726  0.8611285495141063  1.0000
  N   N4        1.0  0.1543215561178002  0.08865810898515752  0.6388701467632601  1.0000
  N   N5        1.0  0.3522220007265489  0.3195053542431694  0.8820618853590432  1.0000
  N   N6        1.0  0.8522240394886681  0.6804929078867374  0.6179394075253841  1.0000
  N   N7        1.0  0.647777632301178  0.6805057459407208  0.1179381621956281  1.0000
  N   N8        1.0  0.14777422955464198  0.3195038989565547  0.3820629788407787  1.0000
  O   O1        1.0  0.0677680622499039  0.715028948372442  0.8206146170405902  1.0000
  O   O2        1.0  0.5677571661758593  0.28495645702653855  0.6793931457399582  1.0000
  O   O3        1.0  0.9322438475760676  0.2849757581762589  0.1793922509082932  1.0000
  O   O4        1.0  0.4322383748472944  0.7150391731173258  0.3206162866177209  1.0000
  O   O5        1.0  0.045516977053409804  0.6104004051746229  0.9389168371072572  1.0000
  O   O6        1.0  0.5455108207829368  0.3895888894319128  0.5610838526808664  1.0000
  O   O7        1.0  0.9544785638026453  0.3896002824707169  0.061083942880870316  1.0000
  O   O8        1.0  0.4544915405037244  0.6104066344298715  0.43891966102224705  1.0000
  O   O9        1.0  0.30690952959214  0.9747629172598308  0.18312646689773973  1.0000
  O   O10       1.0  0.8069092453999288  0.025235581490491696  0.3168769984732194  1.0000
  O   O11       1.0  0.6930791908743429  0.0252272834670464  0.8168709024420836  1.0000
  O   O12       1.0  0.19308220325030587  0.9747638125658613  0.6831243169585406  1.0000
  O   O13       1.0  0.4268478364623078  0.22674115674097814  0.1631073856300063  1.0000
  O   O14       1.0  0.9268527516186466  0.7732606087397755  0.33689226776174064  1.0000
  O   O15       1.0  0.5731517965552938  0.773254239607823  0.836889025653349  1.0000
  O   O16       1.0  0.07314278925787222  0.2267401001587928  0.6631096959615876  1.0000
  O   O17       1.0  0.47352501736345687  0.42429714699078863  0.9072195562798202  1.0000
  O   O18       1.0  0.9735227978772442  0.5756965926647196  0.5927799621754775  1.0000
  O   O19       1.0  0.5264855282768722  0.575703519366236  0.09278004002025851  1.0000
  O   O20       1.0  0.0264768352017057  0.42430279074588384  0.4072207614144007  1.0000
  O   O21       1.0  0.2683931141973588  0.3285782753519868  0.8183915465766632  1.0000
  O   O22       1.0  0.7684015146563257  0.6714177703584313  0.6816091067111147  1.0000
  O   O23       1.0  0.7315928781567467  0.6714341928486502  0.1816121085518461  1.0000
  O   O24       1.0  0.23159402622018627  0.3285829385401371  0.31839285701221354  1.0000
  O   O25       1.0  0.15907798506667353  0.7792049383305509  0.059755256385720705  1.0000
  O   O26       1.0  0.659076568994891  0.22079156895515686  0.44024302408869437  1.0000
  O   O27       1.0  0.8409257401738228  0.22078915378351385  0.9402410984993779  1.0000
  O   O28       1.0  0.3409244281401483  0.7792104122759795  0.5597572204600924  1.0000
