data_image0
_chemical_formula_structural       Zn2H28C26N2O8
_chemical_formula_sum              "Zn2 H28 C26 N2 O8"
_cell_length_a       6.1933783029096094
_cell_length_b       12.068739407949566
_cell_length_c       12.259691516973753
_cell_angle_alpha    111.62471486162214
_cell_angle_beta     100.46159744307198
_cell_angle_gamma    89.48131265309614

_space_group_name_H-M_alt    "P 1"
_space_group_IT_number       1

loop_
  _space_group_symop_operation_xyz
  'x, y, z'

loop_
  _atom_site_type_symbol
  _atom_site_label
  _atom_site_symmetry_multiplicity
  _atom_site_fract_x
  _atom_site_fract_y
  _atom_site_fract_z
  _atom_site_occupancy
  Zn  Zn1       1.0  0.5118446718224093  0.5941785206463592  0.9578920614617061  1.0000
  Zn  Zn2       1.0  0.48813620465531227  0.40581918053868554  0.04210459452363583  1.0000
  H   H1        1.0  0.6847349181922056  0.25826787413426194  0.6590937967550374  1.0000
  H   H2        1.0  0.31526722650203715  0.741735530521936  0.3409148195203429  1.0000
  H   H3        1.0  0.9013498708847791  0.42467603494466744  0.6774692708704109  1.0000
  H   H4        1.0  0.09863760164688533  0.5753193015156626  0.32250981996444494  1.0000
  H   H5        1.0  0.9911755455983666  0.24790761221514404  0.5268630631214251  1.0000
  H   H6        1.0  0.00882705487914848  0.7520825438381561  0.4731331167561804  1.0000
  H   H7        1.0  0.24057366647599565  0.33451300679583795  0.6015108006540473  1.0000
  H   H8        1.0  0.759422033287244  0.6654694353203324  0.3984728998967029  1.0000
  H   H9        1.0  0.329357705471331  0.20208677061341973  0.719775986030001  1.0000
  H   H10       1.0  0.6706470398855161  0.7979088839409987  0.2802159493504279  1.0000
  H   H11       1.0  0.2841143586676438  0.117794824482587  0.5641645564190085  1.0000
  H   H12       1.0  0.7158813375848608  0.8821917645322798  0.43583380962568447  1.0000
  H   H13       1.0  0.8969355764116642  0.06371796172675201  0.5670218369021144  1.0000
  H   H14       1.0  0.10303732535141565  0.9362839379135084  0.43299217378331895  1.0000
  H   H15       1.0  0.0836851785792732  0.0180966715160409  0.6669715981863077  1.0000
  H   H16       1.0  0.9163149814051578  0.9819011703810717  0.3330436988880409  1.0000
  H   H17       1.0  0.021100952701040385  0.19698744376138672  0.8387878917893872  1.0000
  H   H18       1.0  0.9788801416646606  0.8030092150561784  0.16121409215541158  1.0000
  H   H19       1.0  0.7664793446341492  0.11908827413000721  0.7584189525779907  1.0000
  H   H20       1.0  0.23351506199432498  0.8809259187160877  0.24159652200101095  1.0000
  H   H21       1.0  0.477404376175727  0.8565805228014225  0.06737353144580986  1.0000
  H   H22       1.0  0.5226117961029574  0.14341017759407043  0.9326287724940913  1.0000
  H   H23       1.0  0.7023901344476114  0.040317130346245705  0.104846907559903  1.0000
  H   H24       1.0  0.29763124469213403  0.9596854797511652  0.8951816172609527  1.0000
  H   H25       1.0  0.1165884061543565  0.8147776163942095  0.8738304269961646  1.0000
  H   H26       1.0  0.8834033950935448  0.1852201068567112  0.12615889085794407  1.0000
  H   H27       1.0  0.8774174560792999  0.6428018334643466  0.849444960372047  1.0000
  H   H28       1.0  0.12257397658623152  0.35719827324016507  0.15055749738595384  1.0000
  C   C1        1.0  0.7156274653454063  0.36355656916160944  0.8411171529480229  1.0000
  C   C2        1.0  0.2843706089245615  0.6364462549877529  0.1588811376969659  1.0000
  C   C3        1.0  0.8211958636723651  0.28556147478393973  0.7376936124807331  1.0000
  C   C4        1.0  0.1788102230233832  0.7144473366686483  0.262313307438518  1.0000
  C   C5        1.0  0.9900749892742271  0.3605884828454293  0.7103247256079899  1.0000
  C   C6        1.0  0.009936495809498092  0.6394117596955694  0.2896605077464898  1.0000
  C   C7        1.0  0.1103466683636682  0.2801839783133886  0.6123202364898503  1.0000
  C   C8        1.0  0.889642516153586  0.7198065258299449  0.38767017607017346  1.0000
  C   C9        1.0  0.2028591958654928  0.17208735647056983  0.6374030199070546  1.0000
  C   C10       1.0  0.7971261620871744  0.8278957846573576  0.3625948723244363  1.0000
  C   C11       1.0  0.0189972842760042  0.0974655679751351  0.6513448110688671  1.0000
  C   C12       1.0  0.9809869858725618  0.9025291654071805  0.3486599314673667  1.0000
  C   C13       1.0  0.9058548428684647  0.17152645625513677  0.7531590639861109  1.0000
  C   C14       1.0  0.09412806386955447  0.828481889858551  0.24684430923773695  1.0000
  C   C15       1.0  0.15971527183089762  0.43420435616039305  0.8202595691968995  1.0000
  C   C16       1.0  0.8403243912694194  0.5657854042299135  0.17973024987684033  1.0000
  C   C17       1.0  0.6183135928138627  0.8532310392346503  0.024446906313428957  1.0000
  C   C18       1.0  0.381708035142708  0.1467721003183655  0.9755606157311405  1.0000
  C   C19       1.0  0.7470397298973099  0.9550670012930238  0.04526117530597413  1.0000
  C   C20       1.0  0.2529634687899716  0.04493565483876689  0.9547406992591476  1.0000
  C   C21       1.0  0.9301909951865001  0.9464619302992642  0.9903045423428267  1.0000
  C   C22       1.0  0.069822637658767  0.05353139518979328  0.00970266865574839  1.0000
  C   C23       1.0  0.9754318167431536  0.831316969895731  0.9178909380000989  1.0000
  C   C24       1.0  0.02456696809132101  0.16867855883320002  0.08210948312991213  1.0000
  C   C25       1.0  0.8403278080723454  0.733141316708739  0.9019295317546607  1.0000
  C   C26       1.0  0.15967530114973982  0.2668575555009625  0.09807903683753239  1.0000
  N   N1        1.0  0.6623328544682536  0.7439005183177799  0.9529624649900655  1.0000
  N   N2        1.0  0.337654819454805  0.2561007927443342  0.04703038062699252  1.0000
  O   O1        1.0  0.6800625509091844  0.46914528103854275  0.8461396992635528  1.0000
  O   O2        1.0  0.3199494429191034  0.53086367765885  0.15385792280552124  1.0000
  O   O3        1.0  0.6639858365306355  0.31751562512604187  0.9118816855321228  1.0000
  O   O4        1.0  0.3360291564144191  0.6824984893633259  0.08812468564934053  1.0000
  O   O5        1.0  0.22232344506692675  0.38927103251984363  0.898512220976805  1.0000
  O   O6        1.0  0.7777048216118702  0.6107472400310883  0.10146491181349404  1.0000
  O   O7        1.0  0.235289109959524  0.5343940908978837  0.8246047889400715  1.0000
  O   O8        1.0  0.7646954481634155  0.46562281656136423  0.175380792210028  1.0000
