data_image0
_chemical_formula_structural       Dy4H32C48N12O36
_chemical_formula_sum              "Dy4 H32 C48 N12 O36"
_cell_length_a       10.122832642
_cell_length_b       11.343898241462608
_cell_length_c       17.3983
_cell_angle_alpha    90.0
_cell_angle_beta     90.0
_cell_angle_gamma    110.08480700838045

_space_group_name_H-M_alt    "P 1"
_space_group_IT_number       1

loop_
  _space_group_symop_operation_xyz
  'x, y, z'

loop_
  _atom_site_type_symbol
  _atom_site_label
  _atom_site_symmetry_multiplicity
  _atom_site_fract_x
  _atom_site_fract_y
  _atom_site_fract_z
  _atom_site_occupancy
  Dy  Dy1       1.0  0.484141871117501  0.31716094471382655  0.49336716805665043  1.0000
  Dy  Dy2       1.0  0.5158575982845832  0.182838914447359  0.9933671680566505  1.0000
  Dy  Dy3       1.0  0.5158573286808091  0.6828387736085374  0.5066322571745516  1.0000
  Dy  Dy4       1.0  0.48414258937950894  0.8171608038750122  0.006632831943349498  1.0000
  H   H1        1.0  0.8090066945071044  0.4797314591417958  0.6315622790732434  1.0000
  H   H2        1.0  0.19099142581865178  0.020267461406810097  0.13156227907324333  1.0000
  H   H3        1.0  0.19099313194644202  0.5202673205679886  0.3684371461579588  1.0000
  H   H4        1.0  0.8090064249033303  0.9797313183029814  0.8684377209267565  1.0000
  H   H5        1.0  0.39888945981683577  0.8455688521748499  0.2851071656426214  1.0000
  H   H6        1.0  0.6011108194540213  0.6544316639212794  0.7851077404114193  1.0000
  H   H7        1.0  0.6011097399814743  0.1544308661475142  0.7148928343573784  1.0000
  H   H8        1.0  0.39888972942060963  0.3455689930136643  0.2148928343573786  1.0000
  H   H9        1.0  0.02440947663794191  0.2030444274239827  0.503576211468939  1.0000
  H   H10       1.0  0.9755923297062523  0.29695637034977546  0.003576211468939099  1.0000
  H   H11       1.0  0.9755920601024783  0.796956229510961  0.4964226389934652  1.0000
  H   H12       1.0  0.02440650888151909  0.703042409360009  0.9964243632998658  1.0000
  H   H13       1.0  0.6083003164838273  0.2088225264570198  0.18123782208606795  1.0000
  H   H14       1.0  0.39170185107089844  0.29117920992932506  0.681237822086068  1.0000
  H   H15       1.0  0.3917034614328542  0.7911762532527715  0.818762177913932  1.0000
  H   H16       1.0  0.6082968178380028  0.7088242628433576  0.318762177913932  1.0000
  H   H17       1.0  0.07469510877005801  0.557140715713011  0.6129524148911115  1.0000
  H   H18       1.0  0.925304182635017  0.9428598003831181  0.1129535644287074  1.0000
  H   H19       1.0  0.9253037298177132  0.4428580639967805  0.3870470103400905  1.0000
  H   H20       1.0  0.0746960050290753  0.057139917939245784  0.8870481598776863  1.0000
  H   H21       1.0  0.657930094924005  0.2978133236339175  0.31520608335296874  1.0000
  H   H22       1.0  0.3420717114201892  0.20218747413984767  0.8152055085841707  1.0000
  H   H23       1.0  0.3420717072611197  0.7021854560758739  0.6847939166470312  1.0000
  H   H24       1.0  0.6579291986649807  0.7978141214076756  0.1847933418782262  1.0000
  H   H25       1.0  0.763800665368663  0.1430727153355065  0.523153411540207  1.0000
  H   H26       1.0  0.23619979189921028  0.3569271438256791  0.023153986309004893  1.0000
  H   H27       1.0  0.23619952229542918  0.8569270029868576  0.47684601369099505  1.0000
  H   H28       1.0  0.7637980588227791  0.6430716358841124  0.9768460136909951  1.0000
  H   H29       1.0  0.4522917643271356  0.95104450206734  0.4139433163010153  1.0000
  H   H30       1.0  0.5477081537331827  0.5489550754162096  0.9139438910698203  1.0000
  H   H31       1.0  0.5477070742606357  0.0489542776424514  0.5860561089301797  1.0000
  H   H32       1.0  0.4522933830072304  0.45104558151873414  0.0860561089301797  1.0000
  C   C1        1.0  0.8652612561253576  0.4246170671468761  0.6045234304501007  1.0000
  C   C2        1.0  0.1347375866214833  0.0753837306268821  0.1045245799876966  1.0000
  C   C3        1.0  0.1347383048834914  0.5753835897880677  0.39547656954989907  1.0000
  C   C4        1.0  0.8652606253110448  0.9246159876954819  0.8954771443186971  1.0000
  C   C5        1.0  0.4683633201682794  0.9604062239249558  0.1444457217084434  1.0000
  C   C6        1.0  0.5316373203131163  0.5395952307837533  0.6444468712460392  1.0000
  C   C7        1.0  0.5316372287063516  0.039594433009988  0.8555537035227587  1.0000
  C   C8        1.0  0.4683639509825993  0.4604073033763498  0.3555537035227587  1.0000
  C   C9        1.0  0.4532264613730986  0.9464603182341093  0.2885937131788764  1.0000
  C   C10       1.0  0.5467748057635475  0.5535401978620129  0.7885931384100714  1.0000
  C   C11       1.0  0.5467747141567826  0.05353940008825479  0.7114062868211233  1.0000
  C   C12       1.0  0.4532257431110907  0.4464604590729309  0.21140628682112345  1.0000
  C   C13       1.0  0.9818387330105478  0.2674003988664779  0.5323502870970174  1.0000
  C   C14       1.0  0.018159748525754114  0.2325994602947077  0.0323514366346132  1.0000
  C   C15       1.0  0.018161189208839794  0.7326011966810455  0.4676491381341846  1.0000
  C   C16       1.0  0.9818394512725561  0.7674002580276563  0.9676497129029826  1.0000
  C   C17       1.0  0.5706516730524526  0.14797696605798896  0.2308012851830341  1.0000
  C   C18       1.0  0.4293495066364983  0.3520247703283487  0.730800710414236  1.0000
  C   C19       1.0  0.4293514782089928  0.852022752264375  0.769198140048168  1.0000
  C   C20       1.0  0.5706484398513252  0.6479768252191676  0.26919871481696583  1.0000
  C   C21       1.0  0.009120089653684695  0.46394493418458177  0.5938982544271594  1.0000
  C   C22       1.0  0.9908777652273741  0.03605586358917629  0.0938994039647554  1.0000
  C   C23       1.0  0.9908794713551641  0.536055722750362  0.40610232034164534  1.0000
  C   C24       1.0  0.009121434570936147  0.9639438547331878  0.9061028951104433  1.0000
  C   C25       1.0  0.22374799455496933  0.43112916121626904  0.5362294017231546  1.0000
  C   C26       1.0  0.7762531851339816  0.0688725751700687  0.0362294017231548  1.0000
  C   C27       1.0  0.7762522888749571  0.5688733729438269  0.4637705982768452  1.0000
  C   C28       1.0  0.2237459188984943  0.9311243273145635  0.9637711730456431  1.0000
  C   C29       1.0  0.069878066127572  0.3863019630813369  0.5560204157877493  1.0000
  C   C30       1.0  0.9301211378298077  0.1136997733050009  0.0560209905565472  1.0000
  C   C31       1.0  0.9301218560918157  0.6136996324661865  0.4439795842122507  1.0000
  C   C32       1.0  0.06987806196850235  0.886299945017363  0.9439807337498464  1.0000
  C   C33       1.0  0.5998977561847524  0.1996795013301877  0.30334055626124706  1.0000
  C   C34       1.0  0.40010405015943457  0.3003212964435775  0.8033405562612472  1.0000
  C   C35       1.0  0.400105395076686  0.8003202169921835  0.6966594437387527  1.0000
  C   C36       1.0  0.5998945229836251  0.6996793604913663  0.19665944373875277  1.0000
  C   C37       1.0  0.49578931951113947  0.019371086394372097  0.2222561974445796  1.0000
  C   C38       1.0  0.5042128480435935  0.4806306499919657  0.7222561974445796  1.0000
  C   C39       1.0  0.5042134705397671  0.9806276933154122  0.7777438025554204  1.0000
  C   C40       1.0  0.49578644752055107  0.5193718841681303  0.2777443773242183  1.0000
  C   C41       1.0  0.8382468900927902  0.2315970220609032  0.5429013179448532  1.0000
  C   C42       1.0  0.16175356717507577  0.26840283710027524  0.04290131794485318  1.0000
  C   C43       1.0  0.16175132183973057  0.768402696261461  0.4570986820551467  1.0000
  C   C44       1.0  0.8382452714126956  0.7315959426095091  0.9570992568239447  1.0000
  C   C45       1.0  0.48160058427422564  0.0019232171732780998  0.3602317467798599  1.0000
  C   C46       1.0  0.5183998729936405  0.4980766419879075  0.8602328963174557  1.0000
  C   C47       1.0  0.5184002300451098  0.9980755625365134  0.639767678451342  1.0000
  C   C48       1.0  0.48160067588099037  0.5019240149470363  0.13976767845134216  1.0000
  N   N1        1.0  0.26619866800351843  0.0885956412813655  0.541182184466301  1.0000
  N   N2        1.0  0.7337998135327836  0.41140421787982007  0.041182184466301  1.0000
  N   N3        1.0  0.7338005317947918  0.9114040770409985  0.4588178155336989  1.0000
  N   N4        1.0  0.2661976759786597  0.5885936232173918  0.958817240764901  1.0000
  N   N5        1.0  0.5535763360808017  0.1270224402437421  0.3669599903438865  1.0000
  N   N6        1.0  0.4464241211870714  0.37297741891743635  0.8669599903438865  1.0000
  N   N7        1.0  0.4464234903727515  0.8729763394660424  0.6330394348873156  1.0000
  N   N8        1.0  0.5535764276875597  0.6270232380175074  0.13303943488731557  1.0000
  N   N9        1.0  0.7811392306876498  0.31075491386580006  0.5772598472264503  1.0000
  N   N10       1.0  0.21886059992497306  0.18924588390796518  0.07726042199525547  1.0000
  N   N11       1.0  0.2188613181869812  0.6892457430691437  0.4227401527735495  1.0000
  N   N12       1.0  0.7811376120075479  0.810753834414406  0.9227395780047445  1.0000
  O   O1        1.0  0.27029006751158136  0.3499757790695597  0.5083220774443475  1.0000
  O   O2        1.0  0.7297117388326126  0.1500250187041985  0.008321502675549696  1.0000
  O   O3        1.0  0.7297111080183  0.6500239392528043  0.49167792255565246  1.0000
  O   O4        1.0  0.2702874609656972  0.8499746996181656  0.9916796468620532  1.0000
  O   O5        1.0  0.28738752572606063  0.11288224174916187  0.4694487392446405  1.0000
  O   O6        1.0  0.7126119436760234  0.3871176174120236  0.9694481644758425  1.0000
  O   O7        1.0  0.712612035282788  0.8871184151857818  0.5305512607553595  1.0000
  O   O8        1.0  0.2873885094327733  0.6128802236851882  0.0305518355241574  1.0000
  O   O9        1.0  0.29267820096224273  0.5472543094240335  0.5469172275452223  1.0000
  O   O10       1.0  0.7073230661743963  0.9527462066720958  0.0469166527764173  1.0000
  O   O11       1.0  0.7073209988360674  0.45274540889833037  0.45308277245477757  1.0000
  O   O12       1.0  0.29267837480018233  0.04725163442511619  0.9530827724547776  1.0000
  O   O13       1.0  0.6438466981253725  0.2772661556787241  0.5844266393843043  1.0000
  O   O14       1.0  0.3561533979319549  0.2227327648698747  0.0844266393843043  1.0000
  O   O15       1.0  0.35615348953871967  0.72273356264364  0.4155727858468907  1.0000
  O   O16       1.0  0.6438454406558164  0.7772660148399096  0.9155727858468907  1.0000
  O   O17       1.0  0.5811702994669046  0.1773865139790516  0.4359632837691051  1.0000
  O   O18       1.0  0.4188291699351793  0.322613345182134  0.9359627090003073  1.0000
  O   O19       1.0  0.41882890033140535  0.8226132043433125  0.5640367162308947  1.0000
  O   O20       1.0  0.5811710177289127  0.6773863731402301  0.0640367162308948  1.0000
  O   O21       1.0  0.4368146144031541  0.8421316529125064  0.1384342148370834  1.0000
  O   O22       1.0  0.5631870139440238  0.6578698017961955  0.6384336400682854  1.0000
  O   O23       1.0  0.5631845853951559  0.1578680654098576  0.8615652103941187  1.0000
  O   O24       1.0  0.4368145227963893  0.3421308551387483  0.3615652103941187  1.0000
  O   O25       1.0  0.481909470614184  0.030457039558626796  0.0855606582252264  1.0000
  O   O26       1.0  0.5180924314958375  0.4695465740528704  0.5855606582252264  1.0000
  O   O27       1.0  0.5180914394709859  0.9695445559888893  0.9144399165435714  1.0000
  O   O28       1.0  0.4819084785893323  0.5304550214946531  0.4144393417747735  1.0000
  O   O29       1.0  0.3539668198497168  0.1665633723367606  0.587500502922701  1.0000
  O   O30       1.0  0.6460332762076106  0.3334355482118383  0.0875010776914991  1.0000
  O   O31       1.0  0.6460339944696187  0.8334354073730239  0.41249949707729877  1.0000
  O   O32       1.0  0.3539655623801607  0.6665632314979462  0.9124989223085009  1.0000
  O   O33       1.0  0.1699614724949541  0.9965925546625342  0.5657368823390811  1.0000
  O   O34       1.0  0.8300384455653571  0.5034070228210155  0.065737457107879  1.0000
  O   O35       1.0  0.8300390763796768  0.0034081022724094996  0.434262542892121  1.0000
  O   O36       1.0  0.16996075423294593  0.4965926955013558  0.9342625428921209  1.0000
