data_image0
_chemical_formula_structural       Hg2H12C16N8Cl4
_chemical_formula_sum              "Hg2 H12 C16 N8 Cl4"
_cell_length_a       3.815818164440178
_cell_length_b       10.51360330012658
_cell_length_c       12.840267293802174
_cell_angle_alpha    90.54707843836339
_cell_angle_beta     91.93874567719503
_cell_angle_gamma    94.4341649114177

_space_group_name_H-M_alt    "P 1"
_space_group_IT_number       1

loop_
  _space_group_symop_operation_xyz
  'x, y, z'

loop_
  _atom_site_type_symbol
  _atom_site_label
  _atom_site_symmetry_multiplicity
  _atom_site_fract_x
  _atom_site_fract_y
  _atom_site_fract_z
  _atom_site_occupancy
  Hg  Hg1       1.0  0.11064749248325259  0.006964304724114399  0.744926197104469  1.0000
  Hg  Hg2       1.0  0.8893540262629003  0.9930380722861185  0.25508014200953255  1.0000
  H   H1        1.0  0.882306605141153  0.17370297650293046  0.5210506052785817  1.0000
  H   H2        1.0  0.11769446110572092  0.8262975112059792  0.4789479234671034  1.0000
  H   H3        1.0  0.6660705436275834  0.547508853936847  0.583057300991008  1.0000
  H   H4        1.0  0.33391738887068095  0.4524916040861908  0.4169395504040451  1.0000
  H   H5        1.0  0.1156915353008756  0.3129591072982265  0.8208225373710715  1.0000
  H   H6        1.0  0.8842947275872318  0.6870461086459796  0.17917668108220394  1.0000
  H   H7        1.0  0.895073191423272  0.8357918328634779  0.9769363823448739  1.0000
  H   H8        1.0  0.10494655050783312  0.1641962812704847  0.023072321552703594  1.0000
  H   H9        1.0  0.6682366652837218  0.44911895854273354  0.9173140100323136  1.0000
  H   H10       1.0  0.3317761524789161  0.5508748993008509  0.08267833129392697  1.0000
  H   H11       1.0  0.12439834587993197  0.7007067516154065  0.6841235249036256  1.0000
  H   H12       1.0  0.8756019804903374  0.2993032642645518  0.3158774253020481  1.0000
  C   C1        1.0  0.8857235705142655  0.25366847185618  0.5760069110623858  1.0000
  C   C2        1.0  0.11427300052907435  0.7463358167945271  0.4239923922138259  1.0000
  C   C3        1.0  0.771117001693895  0.4593294575735383  0.6106030531162288  1.0000
  C   C4        1.0  0.22887391010211638  0.5406729189982897  0.38939228624382577  1.0000
  C   C5        1.0  0.8948617650222632  0.4488957669839663  0.7142146418745267  1.0000
  C   C6        1.0  0.10513739730421888  0.5511085358753148  0.28578156988446307  1.0000
  C   C7        1.0  0.013195467207132976  0.33064174425712867  0.7420772750623996  1.0000
  C   C8        1.0  0.9867956547173479  0.6693615807250878  0.2579204117602884  1.0000
  C   C9        1.0  0.8988906829358783  0.7547603929743756  0.9232793607329695  1.0000
  C   C10       1.0  0.10111685498018369  0.24523246172358878  0.07672772021573587  1.0000
  C   C11       1.0  0.7762078784765691  0.5418594853877962  0.8899443488617462  1.0000
  C   C12       1.0  0.22379413777537846  0.458132422560446  0.11005410588658288  1.0000
  C   C13       1.0  0.8986145785485746  0.5562194922453471  0.7884894292140172  1.0000
  C   C14       1.0  0.10138907898144817  0.4437810096721363  0.21150600801445305  1.0000
  C   C15       1.0  0.02169560727433149  0.6800154147680643  0.7611752020463595  1.0000
  C   C16       1.0  0.9783058550477222  0.3199869754012069  0.23882568504231463  1.0000
  N   N1        1.0  0.009354919716798778  0.23434396280346445  0.6730004980387534  1.0000
  N   N2        1.0  0.990638655907624  0.7656584110581761  0.32699875955093194  1.0000
  N   N3        1.0  0.7657753683158859  0.3626986865328945  0.5415826239312337  1.0000
  N   N4        1.0  0.2342206287661384  0.6373027437276093  0.45841508898239874  1.0000
  N   N5        1.0  0.02196708441653779  0.7781959701656617  0.8282921958537057  1.0000
  N   N6        1.0  0.9780365000149586  0.22180355138375768  0.17171413454506274  1.0000
  N   N7        1.0  0.7761630101615892  0.6401417472003458  0.9572533676455703  1.0000
  N   N8        1.0  0.22384182362313956  0.3598511196071285  0.04274590076969528  1.0000
  Cl  Cl1       1.0  0.5437295775025676  0.09409736011890858  0.8755017366618315  1.0000
  Cl  Cl2       1.0  0.45627417675446924  0.9059031192402143  0.12450304689576797  1.0000
  Cl  Cl3       1.0  0.6603536531001879  0.9171799060082576  0.6176347610763171  1.0000
  Cl  Cl4       1.0  0.3396572521282125  0.0828167715787345  0.3823723873196199  1.0000
