data_image0
_chemical_formula_structural       Rb4H12C16O16
_chemical_formula_sum              "Rb4 H12 C16 O16"
_cell_length_a       4.555755024005606
_cell_length_b       8.052291064001254
_cell_length_c       16.691199678022556
_cell_angle_alpha    90.00006143814576
_cell_angle_beta     90.0001784555199
_cell_angle_gamma    89.99998191561825

_space_group_name_H-M_alt    "P 1"
_space_group_IT_number       1

loop_
  _space_group_symop_operation_xyz
  'x, y, z'

loop_
  _atom_site_type_symbol
  _atom_site_label
  _atom_site_symmetry_multiplicity
  _atom_site_fract_x
  _atom_site_fract_y
  _atom_site_fract_z
  _atom_site_occupancy
  Rb  Rb1       1.0  0.7609969348841047  0.2493573993744463  0.9988171496811095  1.0000
  Rb  Rb2       1.0  0.23900144280150218  0.7506440380255769  0.4988176466926152  1.0000
  Rb  Rb3       1.0  0.23900209561514163  0.7493567607248226  0.9988170568871771  1.0000
  Rb  Rb4       1.0  0.7610006721258812  0.2506434347928845  0.49881833860620645  1.0000
  H   H1        1.0  0.5737447575933742  0.5655839880594372  0.8191793751781236  1.0000
  H   H2        1.0  0.4262603541097362  0.43441705058798175  0.3191774713992218  1.0000
  H   H3        1.0  0.42626110559533703  0.06558096308247491  0.8191773855172502  1.0000
  H   H4        1.0  0.5737440060982023  0.9344175917977894  0.31917766370511913  1.0000
  H   H5        1.0  0.5747448911125161  0.5667859747970355  0.6790666191862729  1.0000
  H   H6        1.0  0.42525423465929885  0.43321599472016464  0.1790653130487243  1.0000
  H   H7        1.0  0.42525498549947116  0.0667841918891838  0.6790652277894653  1.0000
  H   H8        1.0  0.5747463352889496  0.9332140519780765  0.17906490709117415  1.0000
  H   H9        1.0  0.0152947309234293  0.2919003615097608  0.747898989373063  1.0000
  H   H10       1.0  0.98470737388174  0.7080992770333837  0.24789890123158648  1.0000
  H   H11       1.0  0.9847058088311725  0.7918995846897092  0.7478989325808956  1.0000
  H   H12       1.0  0.015294100951898298  0.20809881197172336  0.2478995571406061  1.0000
  C   C1        1.0  0.22128088066383358  0.39603603207027055  0.8467200415531623  1.0000
  C   C2        1.0  0.7787179596490857  0.6039625839454745  0.34671792667397483  1.0000
  C   C3        1.0  0.7787207287428544  0.8960352934155369  0.8467186110855354  1.0000
  C   C4        1.0  0.2212846966410993  0.10396208071568941  0.34671815890786223  1.0000
  C   C5        1.0  0.4105707767812916  0.4884096607697473  0.7892215828617142  1.0000
  C   C6        1.0  0.589427408636638  0.5115913113819701  0.28922165538659084  1.0000
  C   C7        1.0  0.5894257380839107  0.9884089571912752  0.7892223876449693  1.0000
  C   C8        1.0  0.41057464236394026  0.011589531195738802  0.2892214497217368  1.0000
  C   C9        1.0  0.41126833563875914  0.48907894592821327  0.7085928672444484  1.0000
  C   C10       1.0  0.5887267363863629  0.5109218472476018  0.20859174059093286  1.0000
  C   C11       1.0  0.5887184803967286  0.989078242478563  0.7085924731932354  1.0000
  C   C12       1.0  0.4112700065515397  0.010920066932705202  0.20859213463869256  1.0000
  C   C13       1.0  0.22354283419899454  0.39762045621303344  0.6504633290179812  1.0000
  C   C14       1.0  0.7764581608059797  0.6023826916944445  0.1504618105117501  1.0000
  C   C15       1.0  0.776456538995525  0.8976184760950405  0.6504618966225594  1.0000
  C   C16       1.0  0.22354006595535475  0.10238094616443762  0.15046264378622004  1.0000
  O   O1        1.0  0.26439160064915507  0.4191289162425847  0.920237250018346  1.0000
  O   O2        1.0  0.7356102720522343  0.5808723467278086  0.4202356855795203  1.0000
  O   O3        1.0  0.735608638693037  0.9191281855758722  0.9202357828324639  1.0000
  O   O4        1.0  0.26439323400593645  0.08086935174611652  0.42023655364631923  1.0000
  O   O5        1.0  0.021513651625404896  0.2938241175398275  0.8204210414647409  1.0000
  O   O6        1.0  0.978489279205064  0.7061756819833961  0.3204209470304634  1.0000
  O   O7        1.0  0.9784877131216801  0.7938233418719919  0.8204209793762305  1.0000
  O   O8        1.0  0.021513022680203196  0.20617397388561193  0.32042040999927934  1.0000
  O   O9        1.0  0.023552007772579497  0.29449581549882003  0.6759646794822276  1.0000
  O   O10       1.0  0.9764470826719884  0.7055049052509761  0.17596398384441875  1.0000
  O   O11       1.0  0.9764499062798963  0.7944950402079487  0.6759640165397587  1.0000
  O   O12       1.0  0.023553574216684595  0.20550443865886348  0.17596464678843665  1.0000
  O   O13       1.0  0.26772169510024907  0.42189917515783293  0.5771235089549975  1.0000
  O   O14       1.0  0.7322762695426377  0.578102568072552  0.07712253936149693  1.0000
  O   O15       1.0  0.7322790247478962  0.9218984451087738  0.5771226380511723  1.0000
  O   O16       1.0  0.2677211349143391  0.07810205623749773  0.07712221202971392  1.0000
