data_image0
_chemical_formula_structural       Ca2H20C12N16O12
_chemical_formula_sum              "Ca2 H20 C12 N16 O12"
_cell_length_a       7.243220052047754
_cell_length_b       9.32559168535777
_cell_length_c       9.993719172322834
_cell_angle_alpha    106.90218711091543
_cell_angle_beta     89.99968664758073
_cell_angle_gamma    89.99983390779742

_space_group_name_H-M_alt    "P 1"
_space_group_IT_number       1

loop_
  _space_group_symop_operation_xyz
  'x, y, z'

loop_
  _atom_site_type_symbol
  _atom_site_label
  _atom_site_symmetry_multiplicity
  _atom_site_fract_x
  _atom_site_fract_y
  _atom_site_fract_z
  _atom_site_occupancy
  Ca  Ca1       1.0  0.499999067748739  0.49999990402874767  8.473512031259551e-08  1.0000
  Ca  Ca2       1.0  1.3438080302000015e-06  0.5000006603404897  0.4999997719889037  1.0000
  H   H1        1.0  0.5916589626581442  0.34247947330425177  0.3445477344705381  1.0000
  H   H2        1.0  0.0916618492841721  0.6575196243043494  0.15545236298396495  1.0000
  H   H3        1.0  0.40833957597299536  0.6575210676288422  0.6554525952528606  1.0000
  H   H4        1.0  0.9083380699484068  0.3424809166260943  0.844547966735952  1.0000
  H   H5        1.0  0.4298213783397031  0.1608089954967653  0.6281487514829394  1.0000
  H   H6        1.0  0.9298192036388075  0.8391906859168684  0.8718551116294931  1.0000
  H   H7        1.0  0.570179921493761  0.8391904299424197  0.3718522808869124  1.0000
  H   H8        1.0  0.07017933499553661  0.16080873429762477  0.12814491871083078  1.0000
  H   H9        1.0  0.6299008248083949  0.258855713235846  0.5994309665891677  1.0000
  H   H10       1.0  0.12990018739137102  0.7411394878260892  0.9005679008756784  1.0000
  H   H11       1.0  0.37009909443433747  0.7411425810274109  0.4005677623281229  1.0000
  H   H12       1.0  0.8700997318406536  0.25885993761574605  0.09943313149765486  1.0000
  H   H13       1.0  0.3930428458157139  0.8486758864762437  0.10194445238267487  1.0000
  H   H14       1.0  0.8930457915684399  0.15132765972310122  0.39805562315849835  1.0000
  H   H15       1.0  0.606957073416865  0.15132465445420007  0.8980558773372422  1.0000
  H   H16       1.0  0.1069568888675647  0.848673996690664  0.6019440039010461  1.0000
  H   H17       1.0  0.4774124553693825  0.8023000345048601  0.9504007230410847  1.0000
  H   H18       1.0  0.9774192149805147  0.19769945404702582  0.5496008961399284  1.0000
  H   H19       1.0  0.52258608326121  0.1976993909396185  0.04960030933572308  1.0000
  H   H20       1.0  0.022584846059565705  0.8022999661568805  0.4503991341864832  1.0000
  C   C1        1.0  0.5107960107186287  0.24044466149158678  0.32710410618785346  1.0000
  C   C2        1.0  0.010797007275286302  0.759555877192625  0.1728987022374966  1.0000
  C   C3        1.0  0.4892025279119636  0.7595547639528918  0.6728969261889617  1.0000
  C   C4        1.0  0.9892029119572927  0.24044466373782566  0.8271016274824206  1.0000
  C   C5        1.0  0.4810168701465685  0.2437263174156143  0.5790972653633232  1.0000
  C   C6        1.0  0.981011875485649  0.7562731573454966  0.9209043356828129  1.0000
  C   C7        1.0  0.5189858102926337  0.7562742182795573  0.4209020623131536  1.0000
  C   C8        1.0  0.018985282547255608  0.24372626287164678  0.07909569466099235  1.0000
  C   C9        1.0  0.3836977570005048  0.39408596715511374  0.6429449047135805  1.0000
  C   C10       1.0  0.8836841339984718  0.6059206781127668  0.8570730116046121  1.0000
  C   C11       1.0  0.6163021622390304  0.6059134478267508  0.35705412358678495  1.0000
  C   C12       1.0  0.11631440463267503  0.3940798628203268  0.14292731811878667  1.0000
  N   N1        1.0  0.4541731277040384  0.18347046202260492  0.4293244618542005  1.0000
  N   N2        1.0  0.9541746697869655  0.816529498212269  0.07067641154731767  1.0000
  N   N3        1.0  0.5458281721331772  0.8165289581865949  0.5706755684791743  1.0000
  N   N4        1.0  0.045823868844173915  0.18347104272082507  0.929323918176081  1.0000
  N   N5        1.0  0.35835017619274373  0.0565425250669165  0.3713994234898905  1.0000
  N   N6        1.0  0.8583494330505559  0.9434578076273823  0.12860293485504573  1.0000
  N   N7        1.0  0.6416511236476695  0.9434557744236901  0.6286003074604096  1.0000
  N   N8        1.0  0.14164910558378813  0.05654161258711099  0.8713970954852853  1.0000
  N   N9        1.0  0.3594510538974944  0.0374917801127665  0.23686559153393458  1.0000
  N   N10       1.0  0.8594506146356978  0.9625096638506321  0.26313605860893563  1.0000
  N   N11       1.0  0.6405474847438057  0.9625065141531409  0.7631331373868376  1.0000
  N   N12       1.0  0.14054930460383733  0.03748975113123269  0.7368629696914297  1.0000
  N   N13       1.0  0.4529066320708426  0.15059289318745783  0.20587055052253328  1.0000
  N   N14       1.0  0.9529077617825976  0.849407077131815  0.29413133129902747  1.0000
  N   N15       1.0  0.5470919065635017  0.8494065270270353  0.7941294798177977  1.0000
  N   N16       1.0  0.04709215745053541  0.1505945792872438  0.7058682957674732  1.0000
  O   O1        1.0  0.40720328726244764  0.45136319643027883  0.772240444056635  1.0000
  O   O2        1.0  0.9071949856989792  0.5486432436867973  0.7277553089890175  1.0000
  O   O3        1.0  0.5927966319738829  0.5486373392701794  0.22775888362680516  1.0000
  O   O4        1.0  0.09280355293536503  0.4513561765276962  0.2722447213513064  1.0000
  O   O5        1.0  0.29270112811686744  0.4512098248164238  0.5631261124479607  1.0000
  O   O6        1.0  0.7927050683723352  0.5487959438284876  0.9368719222920703  1.0000
  O   O7        1.0  0.7073015523324955  0.5487884642115619  0.4368716144258967  1.0000
  O   O8        1.0  0.2072934702625631  0.4512045918746208  0.06312740539484445  1.0000
  O   O9        1.0  0.42660572354296994  0.7600581985691548  0.02377668603929801  1.0000
  O   O10       1.0  0.9266105168266705  0.23994745520988658  0.4762228170862599  1.0000
  O   O11       1.0  0.573394195689609  0.23994234236129589  0.9762236436806189  1.0000
  O   O12       1.0  0.0733935442145253  0.76005419597125  0.5237758079333261  1.0000
