data_image0
_chemical_formula_structural       Ag2H26C26S4N6O6F6
_chemical_formula_sum              "Ag2 H26 C26 S4 N6 O6 F6"
_cell_length_a       8.142561929524264
_cell_length_b       8.590339881888413
_cell_length_c       12.895932080244465
_cell_angle_alpha    87.33659816784633
_cell_angle_beta     75.79108505851806
_cell_angle_gamma    70.54004229246908

_space_group_name_H-M_alt    "P 1"
_space_group_IT_number       1

loop_
  _space_group_symop_operation_xyz
  'x, y, z'

loop_
  _atom_site_type_symbol
  _atom_site_label
  _atom_site_symmetry_multiplicity
  _atom_site_fract_x
  _atom_site_fract_y
  _atom_site_fract_z
  _atom_site_occupancy
  Ag  Ag1       1.0  0.786455888034368  0.3904077869134852  0.371663759776176  1.0000
  Ag  Ag2       1.0  0.21354311231389292  0.6095912890019548  0.6283366283624047  1.0000
  H   H1        1.0  0.897771237007646  0.4611436161776012  0.13942159860467737  1.0000
  H   H2        1.0  0.10222598147062452  0.5388604019310819  0.8605789101997274  1.0000
  H   H3        1.0  0.8296898422349908  0.6843801618816485  0.008451734834018513  1.0000
  H   H4        1.0  0.17030270683374482  0.31562633270046786  0.9915517606995009  1.0000
  H   H5        1.0  0.5927863492333643  0.9551901178850031  0.0747008470358708  1.0000
  H   H6        1.0  0.4072091872124801  0.0448151405544834  0.925302990022402  1.0000
  H   H7        1.0  0.4311940167336061  0.991236549311303  0.2693502844832025  1.0000
  H   H8        1.0  0.5688054056665449  0.008765002885667198  0.7306546079742448  1.0000
  H   H9        1.0  0.5418508691155637  0.8335813228976647  0.46540382943312153  1.0000
  H   H10       1.0  0.45814599609057893  0.16642022790014718  0.5345991429184451  1.0000
  H   H11       1.0  0.5162780047285551  0.6397650434818445  0.4575412848723913  1.0000
  H   H12       1.0  0.4837230997040151  0.3602352683843293  0.5424602793311877  1.0000
  H   H13       1.0  0.7528056017566627  0.028032285371566004  0.5833087249470026  1.0000
  H   H14       1.0  0.24719467336750262  0.9719667907450784  0.4166922361408538  1.0000
  H   H15       1.0  0.7698368523014096  0.2282401194033739  0.5988993779704899  1.0000
  H   H16       1.0  0.23016384536366993  0.7717577181747473  0.4010992303289028  1.0000
  H   H17       1.0  0.8680675330757309  0.9012364740920586  0.43276934270843986  1.0000
  H   H18       1.0  0.1319293555460206  0.09876136487591221  0.5672290951578063  1.0000
  H   H19       1.0  0.028613054938411178  0.7292446075515783  0.24942316698485462  1.0000
  H   H20       1.0  0.9713940013217979  0.27075322903910154  0.7505767576462218  1.0000
  H   H21       1.0  0.3749612379040528  0.6937845005251048  0.018285001521810815  1.0000
  H   H22       1.0  0.6250432611621476  0.3062133346664239  0.9817130030033852  1.0000
  H   H23       1.0  0.18378576841592317  0.6289837854679375  0.04603115866679271  1.0000
  H   H24       1.0  0.8162200054261817  0.37101404992479564  0.9539674188076788  1.0000
  H   H25       1.0  0.2025803097356018  0.783286557030344  0.9503044312116131  1.0000
  H   H26       1.0  0.7974220236197027  0.21671374905659488  0.04969306069722279  1.0000
  C   C1        1.0  0.794443089060252  0.5807245945094266  0.16446394047462576  1.0000
  C   C2        1.0  0.2055541447024112  0.41927942559273385  0.8355381167444521  1.0000
  C   C3        1.0  0.7562586657733873  0.7043152783535405  0.09211434083968578  1.0000
  C   C4        1.0  0.24373766941208433  0.29569121184850633  0.907887002504971  1.0000
  C   C5        1.0  0.6233960596187486  0.8550051257542178  0.12931809368601682  1.0000
  C   C6        1.0  0.3766007363186148  0.14500013089299563  0.8706847679068518  1.0000
  C   C7        1.0  0.5344718657578582  0.8748359361650058  0.23714239712412413  1.0000
  C   C8        1.0  0.4655275413579005  0.12516561403847956  0.7628609469186569  1.0000
  C   C9        1.0  0.578572669693209  0.744766529233729  0.30610446636008964  1.0000
  C   C10       1.0  0.421424195512941  0.25523502156408273  0.6938985059914842  1.0000
  C   C11       1.0  0.48603496322943596  0.7623771473198386  0.42301886823397433  1.0000
  C   C12       1.0  0.5139631461838263  0.2376243996922227  0.576981580237522  1.0000
  C   C13       1.0  0.717692190215608  0.15518945097689849  0.556044640223881  1.0000
  C   C14       1.0  0.28230471369053595  0.8448083899845499  0.44395534605703796  1.0000
  C   C15       1.0  0.8749816059657006  0.014148131449303497  0.3905849797395007  1.0000
  C   C16       1.0  0.12502164125118037  0.9858497065312335  0.6094147744584291  1.0000
  C   C17       1.0  0.970934037563218  0.9926152343130211  0.27961268963913705  1.0000
  C   C18       1.0  0.029071820832065505  0.0073788972237949  0.7203875470087056  1.0000
  C   C19       1.0  0.04180123063545696  0.845901283998394  0.21863576379132607  1.0000
  C   C20       1.0  0.9582062634500517  0.1540953160472398  0.7813633564659598  1.0000
  C   C21       1.0  0.13576339536889043  0.868034770190029  0.11375734541223177  1.0000
  C   C22       1.0  0.8642402204045112  0.1319655370948638  0.8862414936532161  1.0000
  C   C23       1.0  0.2289341414128714  0.7360636246874961  0.027128988761276684  1.0000
  C   C24       1.0  0.7710724540954458  0.26393544545801717  0.9728694176215881  1.0000
  C   C25       1.0  0.6002037186119367  0.641542003729441  0.7675908568887095  1.0000
  C   C26       1.0  0.3997913728554323  0.35846077543829585  0.2324061532286805  1.0000
  S   S1        1.0  0.03000027452000609  0.1437464535049315  0.2026694437756476  1.0000
  S   S2        1.0  0.9699974586945501  0.856252623206039  0.7973311456210012  1.0000
  S   S3        1.0  0.7693827164873285  0.6039747971792622  0.6356053380537147  1.0000
  S   S4        1.0  0.23061798117774399  0.3960230403988589  0.36439327024567797  1.0000
  N   N1        1.0  0.7078532480772637  0.5991369811964586  0.2690134340229521  1.0000
  N   N2        1.0  0.2921465892216021  0.4008633314652386  0.730988331438695  1.0000
  N   N3        1.0  0.8021396229736055  0.1555044072040985  0.4420899532567404  1.0000
  N   N4        1.0  0.19785854806625025  0.8444934329618192  0.5579098317661177  1.0000
  N   N5        1.0  0.140036624876295  0.021314735607603604  0.09499598115811381  1.0000
  N   N6        1.0  0.8599644642718827  0.9786855742650857  0.9050040346307995  1.0000
  O   O1        1.0  0.7019734971137696  0.5115797690431946  0.5740036487732214  1.0000
  O   O2        1.0  0.2980297271765266  0.4884180659471228  0.4259937828026992  1.0000
  O   O3        1.0  0.06363192428313624  0.4923483899441122  0.3355357721334329  1.0000
  O   O4        1.0  0.9363670760651246  0.5076506859713276  0.6644646160051549  1.0000
  O   O5        1.0  0.7597567982446307  0.7695300670567136  0.5999461728900285  1.0000
  O   O6        1.0  0.24024515891195367  0.23046776872913452  0.4000514599439596  1.0000
  F   F1        1.0  0.5824189776299065  0.49755208871988543  0.8079448281198083  1.0000
  F   F2        1.0  0.417577834080866  0.502449455100745  0.19205272478040317  1.0000
  F   F3        1.0  0.6491362046126027  0.714411651819688  0.8413991434657575  1.0000
  F   F4        1.0  0.3508529350271345  0.2855936026235284  0.15859950622413516  1.0000
  F   F5        1.0  0.4362465058594154  0.742767278281228  0.7583933938687366  1.0000
  F   F6        1.0  0.5637512202019651  0.25722808261294  0.2415995642132458  1.0000
