data_image0
_chemical_formula_structural       Cu2H16C20N8O12
_chemical_formula_sum              "Cu2 H16 C20 N8 O12"
_cell_length_a       7.368000159463923
_cell_length_b       9.723037378360619
_cell_length_c       10.029523596302882
_cell_angle_alpha    116.90127221214156
_cell_angle_beta     101.15599270293987
_cell_angle_gamma    102.17801374865427

_space_group_name_H-M_alt    "P 1"
_space_group_IT_number       1

loop_
  _space_group_symop_operation_xyz
  'x, y, z'

loop_
  _atom_site_type_symbol
  _atom_site_label
  _atom_site_symmetry_multiplicity
  _atom_site_fract_x
  _atom_site_fract_y
  _atom_site_fract_z
  _atom_site_occupancy
  Cu  Cu1       1.0  0.7517500612309932  0.5182426186418924  0.11556602895723234  1.0000
  Cu  Cu2       1.0  0.24825233039140218  0.48175305250644124  0.8844324511267914  1.0000
  H   H1        1.0  0.23631679440163111  0.0250471252768563  0.6321096711572096  1.0000
  H   H2        1.0  0.7636812036002212  0.9749547606592872  0.36788298421829774  1.0000
  H   H3        1.0  0.0926140797954176  0.8427413286099468  0.3385887837345365  1.0000
  H   H4        1.0  0.9073851605519679  0.15725684531830103  0.6614053881118878  1.0000
  H   H5        1.0  0.4486079327125482  0.1761351999782832  0.9651346860769294  1.0000
  H   H6        1.0  0.551395862525915  0.8238604498005345  0.03486696820941395  1.0000
  H   H7        1.0  0.4101193480199328  0.1261269927275634  0.3658153362010523  1.0000
  H   H8        1.0  0.5898788928296667  0.8738785463074803  0.6341889423069629  1.0000
  H   H9        1.0  0.2947299017051249  0.009239507134104501  0.07260703492661949  1.0000
  H   H10       1.0  0.7052740548038728  0.9907598332830859  0.9273962770911339  1.0000
  H   H11       1.0  0.6604194067928192  0.4046347418329646  0.541129211648993  1.0000
  H   H12       1.0  0.3395779520695825  0.5953720416612143  0.45887350330127663  1.0000
  H   H13       1.0  0.8655978794977769  0.6492195856791625  0.6735419029844321  1.0000
  H   H14       1.0  0.13440360047788152  0.3507871749998729  0.3264593726315966  1.0000
  H   H15       1.0  0.1081913591620278  0.9275273215157185  0.8036245750567871  1.0000
  H   H16       1.0  0.8918095665538743  0.07247823108948379  0.1963711037542168  1.0000
  C   C1        1.0  0.044511824128988804  0.8060900447134357  0.4172487663784635  1.0000
  C   C2        1.0  0.9554898304613034  0.19391056904030532  0.5827478147989993  1.0000
  C   C3        1.0  0.12390165213258086  0.9061870527835865  0.5816491166745335  1.0000
  C   C4        1.0  0.8760977413276124  0.09381481553697311  0.4183457163631843  1.0000
  C   C5        1.0  0.055328049642021544  0.8513167990319774  0.6749328943437475  1.0000
  C   C6        1.0  0.944674615575117  0.1486862759167948  0.32506292196242725  1.0000
  C   C7        1.0  0.9147300878495346  0.6956136803060674  0.6015953585048948  1.0000
  C   C8        1.0  0.0852717361690125  0.30439062033210723  0.39840387694408  1.0000
  C   C9        1.0  0.8395922875883741  0.6018397805192282  0.43641935100330187  1.0000
  C   C10       1.0  0.16040954458789253  0.3981645163650001  0.563580880985782  1.0000
  C   C11       1.0  0.6885637079448585  0.43758702945207517  0.34539237144606  1.0000
  C   C12       1.0  0.3114365919756992  0.562413583147503  0.6546070147697378  1.0000
  C   C13       1.0  0.6104074291987374  0.3520359733240427  0.4133068958165325  1.0000
  C   C14       1.0  0.3895908034931353  0.647969569464941  0.5866963861513739  1.0000
  C   C15       1.0  0.4693906686119433  0.19585849734903601  0.3150567995420275  1.0000
  C   C16       1.0  0.5306050048819343  0.804140907468181  0.6849444084436555  1.0000
  C   C17       1.0  0.4077487615167712  0.1294994395619256  0.15163245203414985  1.0000
  C   C18       1.0  0.5922525979769518  0.8705036117089906  0.8483721485510217  1.0000
  C   C19       1.0  0.4917252865691636  0.22118711710177047  0.09144513669576063  1.0000
  C   C20       1.0  0.5082753900251689  0.7788110204411609  0.9085561955134266  1.0000
  N   N1        1.0  0.9029352682223717  0.659799288552108  0.34737514154653576  1.0000
  N   N2        1.0  0.097063130926422  0.3402001110655349  0.6526224494426953  1.0000
  N   N3        1.0  0.6291077279600399  0.3705533228506752  0.1856908125725027  1.0000
  N   N4        1.0  0.3708944808900014  0.6294484989768989  0.8143113654099706  1.0000
  N   N5        1.0  0.5830091844226645  0.2700338548588874  0.7796590647023507  1.0000
  N   N6        1.0  0.41698858077305806  0.7299606085070851  0.22034123715155832  1.0000
  N   N7        1.0  0.07331781411868121  0.3070662450104181  0.026260412575083998  1.0000
  N   N8        1.0  0.9266837281474025  0.6929306555812715  0.9737404901116306  1.0000
  O   O1        1.0  0.48771871384456494  0.2258133771062987  0.641503709171225  1.0000
  O   O2        1.0  0.5122749220801737  0.7741811128287639  0.3584970354768159  1.0000
  O   O3        1.0  0.6903794937407638  0.19950737269219593  0.8139015801776779  1.0000
  O   O4        1.0  0.3096182469817919  0.800487101935623  0.18609573205590368  1.0000
  O   O5        1.0  0.5633005987632913  0.39730939228494583  0.8945954955627826  1.0000
  O   O6        1.0  0.4366999328759533  0.60268504711172  0.10540617199522016  1.0000
  O   O7        1.0  0.06811924685046476  0.44277846165199003  0.12429808861854487  1.0000
  O   O8        1.0  0.9318836582430804  0.5572184363399161  0.8757010055699365  1.0000
  O   O9        1.0  0.14117806551823972  0.2941552423663368  0.9111810088536743  1.0000
  O   O10       1.0  0.8588219281766952  0.7058379814486102  0.08881705497952903  1.0000
  O   O11       1.0  0.018200464483094005  0.1801887629183341  0.03183406209164016  1.0000
  O   O12       1.0  0.9818005806272938  0.819806903321897  0.9681682195708275  1.0000
