data_image0
_chemical_formula_structural       Al6H24C72O29
_chemical_formula_sum              "Al6 H24 C72 O29"
_cell_length_a       13.062170226482447
_cell_length_b       13.128312154795712
_cell_length_c       26.712640811368956
_cell_angle_alpha    83.07690305431446
_cell_angle_beta     83.00030924530161
_cell_angle_gamma    61.91526464777707

_space_group_name_H-M_alt    "P 1"
_space_group_IT_number       1

loop_
  _space_group_symop_operation_xyz
  'x, y, z'

loop_
  _atom_site_type_symbol
  _atom_site_label
  _atom_site_symmetry_multiplicity
  _atom_site_fract_x
  _atom_site_fract_y
  _atom_site_fract_z
  _atom_site_occupancy
  Al  Al1       1.0  0.4119971160011957  0.4095886695888424  0.5089117670818197  1.0000
  Al  Al2       1.0  0.6511176114798758  0.4271909017004063  0.49401706824610153  1.0000
  Al  Al3       1.0  0.4275146635101307  0.6485805234976282  0.4974437921494967  1.0000
  Al  Al4       1.0  0.9241266423792422  0.9284518353609599  0.9789342992118861  1.0000
  Al  Al5       1.0  0.909944731272951  0.6883198882914313  0.995716877530917  1.0000
  Al  Al6       1.0  0.6855977432708826  0.910145429962597  0.992498830397885  1.0000
  H   H1        1.0  0.23909286410292918  0.7941721440433226  0.1958901810996849  1.0000
  H   H2        1.0  0.06742794933723668  0.8699343619419366  0.2776354375003294  1.0000
  H   H3        1.0  0.25645468653724635  0.48019735642992595  0.21720762094230386  1.0000
  H   H4        1.0  0.08302502132070091  0.5561149972983372  0.298877451712471  1.0000
  H   H5        1.0  0.950731420236949  0.7625888004173829  0.239292216593519  1.0000
  H   H6        1.0  0.5455440190424313  0.0445304893504996  0.24658453409183068  1.0000
  H   H7        1.0  0.7396423178130149  0.9519166101789835  0.3058981900754603  1.0000
  H   H8        1.0  0.4751811807821865  0.2672991945628738  0.280284322145576  1.0000
  H   H9        1.0  0.9178211571118524  0.6773877479315615  0.7261325963012906  1.0000
  H   H10       1.0  0.42969256755075264  0.6212665603069851  0.1728076756879631  1.0000
  H   H11       1.0  0.644690690343971  0.5258311731960887  0.17047404144178557  1.0000
  H   H12       1.0  0.6079334053417328  0.3114805360873802  0.19682508277001887  1.0000
  H   H13       1.0  0.7450929773323195  0.42806874055742117  0.24910134522033192  1.0000
  H   H14       1.0  0.6288780627743478  0.4193505917028588  0.32900001668655676  1.0000
  H   H15       1.0  0.41397640051083345  0.5091029741375622  0.3308899821918202  1.0000
  H   H16       1.0  0.8029316426737765  0.21789701665580447  0.2557063370056269  1.0000
  H   H17       1.0  0.8730821206118762  0.9961264274322303  0.22193726105896866  1.0000
  H   H18       1.0  0.5007764307577104  0.8251303538055125  0.7775071319127989  1.0000
  H   H19       1.0  0.6527777937625031  0.8371563923215106  0.6945013919827049  1.0000
  H   H20       1.0  0.5091248360223091  0.6283879178144715  0.7397446452828973  1.0000
  H   H21       1.0  0.702295246481576  0.48278114406868866  0.7970029658095114  1.0000
  H   H22       1.0  0.8549490476458742  0.4928229119897551  0.7140958975008614  1.0000
  H   H23       1.0  0.343010519614502  0.2803654735305301  0.5464061887678682  1.0000
  H   H24       1.0  0.04192487487790691  0.0083282111413681  0.9958235147317182  1.0000
  C   C1        1.0  0.619895174180975  0.28569065220541023  0.43533313952328706  1.0000
  C   C2        1.0  0.140487867356363  0.6812465955984521  0.1974614964378247  1.0000
  C   C3        1.0  0.11721665446718532  0.6091072820420251  0.2754747106400472  1.0000
  C   C4        1.0  0.6078862124912804  0.6161078647428224  0.41854695322023616  1.0000
  C   C5        1.0  0.18092736947848925  0.6691993851880936  0.2972374414317684  1.0000
  C   C6        1.0  0.21277977702819587  0.5669724623972314  0.23094379174226276  1.0000
  C   C7        1.0  0.2786558826547534  0.6266989248046357  0.2509695637126157  1.0000
  C   C8        1.0  0.1168133674283851  0.6894611905671866  0.14659329558885753  1.0000
  C   C9        1.0  0.2044940265774429  0.6612097856656902  0.3481087570870258  1.0000
  C   C10       1.0  0.7106245738162684  0.031442228799385  0.28104810071066305  1.0000
  C   C11       1.0  0.6023419786853096  0.0836095646228117  0.24893073817497677  1.0000
  C   C12       1.0  0.6691504286032811  0.7002702063800328  0.2734003238748598  1.0000
  C   C13       1.0  0.6915469807974902  0.0772262521071454  0.10557082232658387  1.0000
  C   C14       1.0  0.6544969572769334  0.22088079151333054  0.3913623996081482  1.0000
  C   C15       1.0  0.7847709974754978  0.056467090146576  0.23547852794827406  1.0000
  C   C16       1.0  0.287292996351141  0.6168072482275733  0.437684793850174  1.0000
  C   C17       1.0  0.6765344350634951  0.10824893840727867  0.20212969452705917  1.0000
  C   C18       1.0  0.7458875978178058  0.1792750294607828  0.2532120344306604  1.0000
  C   C19       1.0  0.6716000048470363  0.1554282926582076  0.3001584296435738  1.0000
  C   C20       1.0  0.637369499950637  0.2318940371998579  0.22149393874444456  1.0000
  C   C21       1.0  0.5632470394169573  0.20654397077549896  0.2667762321507822  1.0000
  C   C22       1.0  0.6816788028097135  0.0900694821942736  0.1506916834848084  1.0000
  C   C23       1.0  0.6526358101736065  0.678381096158887  0.3233056276782733  1.0000
  C   C24       1.0  0.665455825625429  0.1852056421763351  0.3499212375682674  1.0000
  C   C25       1.0  0.6634794596123755  0.7585715270354213  0.7175816044524905  1.0000
  C   C26       1.0  0.5792171239761004  0.7515884408816118  0.7630544562177447  1.0000
  C   C27       1.0  0.7080171056710967  0.6934100558698901  0.8899846160099614  1.0000
  C   C28       1.0  0.6152075870483458  0.2911684140014685  0.5756514413351539  1.0000
  C   C29       1.0  0.6429267548139136  0.6269361843277679  0.6021309010641929  1.0000
  C   C30       1.0  0.7713670163336346  0.676245460267495  0.7487408547887638  1.0000
  C   C31       1.0  0.6856522885155769  0.6709608474676401  0.7958157256833757  1.0000
  C   C32       1.0  0.7763263815486496  0.5667238543961446  0.7283109940204966  1.0000
  C   C33       1.0  0.6694295946154083  0.6481976683714662  0.6959631806843234  1.0000
  C   C34       1.0  0.6365042900995092  0.6538552502157557  0.36841270822512223  1.0000
  C   C35       1.0  0.6913171822243528  0.5611111660346708  0.7737253273883695  1.0000
  C   C36       1.0  0.5840470167527342  0.6424894961175481  0.7429623099840938  1.0000
  C   C37       1.0  0.6973633292688889  0.681994292613254  0.8464838015275049  1.0000
  C   C38       1.0  0.6565695896245173  0.6373656428936982  0.6453292158108396  1.0000
  C   C39       1.0  0.09341563958404449  0.6956348905247935  0.8628963783724328  1.0000
  C   C40       1.0  0.6140571739253602  0.605706862391898  0.5558387520356262  1.0000
  C   C41       1.0  0.1219502489892648  0.6817450934273168  0.8178112633068577  1.0000
  C   C42       1.0  0.15138438978868857  0.6690219446708738  0.7683519998104416  1.0000
  C   C43       1.0  0.17723098683310914  0.6598606139771519  0.72254614771213  1.0000
  C   C44       1.0  0.20860596539896648  0.6483167846804392  0.6731293389638677  1.0000
  C   C45       1.0  0.10850831657657528  0.7835194412091794  0.2636185691968648  1.0000
  C   C46       1.0  0.23958052555532552  0.6366034673825852  0.6280622426894665  1.0000
  C   C47       1.0  0.6989359589173246  0.0955322724913117  0.8611377789661886  1.0000
  C   C48       1.0  0.6880992793934625  0.125514156798765  0.8159927216055962  1.0000
  C   C49       1.0  0.6771019849973356  0.1557505437481836  0.7664681332250538  1.0000
  C   C50       1.0  0.6679754287518663  0.1811093678469149  0.720656339179868  1.0000
  C   C51       1.0  0.6558974415283458  0.21094494256708876  0.6711480764881301  1.0000
  C   C52       1.0  0.2939390726409172  0.6081832638405515  0.5781524905118047  1.0000
  C   C53       1.0  0.6434406871352324  0.240166952744147  0.6260046525610506  1.0000
  C   C54       1.0  0.04656904901943187  0.7250168351030553  0.0546174016688781  1.0000
  C   C55       1.0  0.7286738751679207  0.7401828981406098  0.07583350015911353  1.0000
  C   C56       1.0  0.20407292055688253  0.7414724674674031  0.21902293970808975  1.0000
  C   C57       1.0  0.7205403441757594  0.0405125475760073  0.05513428841818781  1.0000
  C   C58       1.0  0.04162894340126399  0.7262815030794201  0.9129923135039917  1.0000
  C   C59       1.0  0.7299577945785387  0.7206496646034283  0.936442127311146  1.0000
  C   C60       1.0  0.7244475700463796  0.0429971467748231  0.9115045105758169  1.0000
  C   C61       1.0  0.706773872166785  0.7255003300910801  0.12972978245917227  1.0000
  C   C62       1.0  0.6950876046978393  0.7212984543013974  0.17615274869449848  1.0000
  C   C63       1.0  0.6820342602419984  0.7132197942543783  0.22688355053273304  1.0000
  C   C64       1.0  0.4065446400109495  0.5727664608988547  0.2521793098707619  1.0000
  C   C65       1.0  0.4732418819964723  0.5763853787026605  0.20711776962847486  1.0000
  C   C66       1.0  0.5942626034251574  0.5229347607143779  0.2057876164697419  1.0000
  C   C67       1.0  0.09455202482821086  0.6991629740148751  0.10274310368956208  1.0000
  C   C68       1.0  0.6505418455935441  0.46740045339979724  0.24978735562062576  1.0000
  C   C69       1.0  0.5852989484459173  0.46311289741656475  0.2946679313089149  1.0000
  C   C70       1.0  0.46407534715160653  0.5141164218035356  0.2958112197740731  1.0000
  C   C71       1.0  0.23039080400109677  0.649376788882435  0.39151621073485626  1.0000
  C   C72       1.0  0.0441830652633755  0.7237521232498167  0.2434909158305132  1.0000
  O   O1        1.0  0.3113427987885374  0.5171863839249653  0.45838592350623486  1.0000
  O   O2        1.0  0.6535137096533675  0.8313506595552198  0.05311646717834857  1.0000
  O   O3        1.0  0.6427492767033486  0.0287065548235503  0.034115555937489696  1.0000
  O   O4        1.0  0.5173952075298018  0.31625433079111076  0.45455656009102086  1.0000
  O   O5        1.0  0.8190150851570834  0.026414377673994193  0.9267899559818389  1.0000
  O   O6        1.0  0.017781442046981597  0.8259901743369652  0.9242395289555035  1.0000
  O   O7        1.0  0.020703414634645912  0.6499786030342918  0.9408613770498135  1.0000
  O   O8        1.0  0.8250685904345473  0.6496700907593294  0.9564764342102946  1.0000
  O   O9        1.0  0.6555194522670504  0.8172321028560816  0.9541515132274014  1.0000
  O   O10       1.0  0.6493267962589826  0.0138628845718429  0.9355166750737566  1.0000
  O   O11       1.0  0.8390260578305871  0.8408873376836254  0.9892510681984489  1.0000
  O   O12       1.0  0.6866653154542705  0.5136595645670708  0.5342442291051268  1.0000
  O   O13       1.0  0.6946362204071974  0.3119050825657225  0.45049861151780135  1.0000
  O   O14       1.0  0.6783573995636586  0.5144853276138902  0.4355043109414253  1.0000
  O   O15       1.0  0.5120505002738724  0.6855677633998026  0.44092433427621097  1.0000
  O   O16       1.0  0.3139527824721214  0.6906091345787997  0.4528583633072572  1.0000
  O   O17       1.0  0.31905254854432724  0.5091267143913925  0.5655545428258719  1.0000
  O   O18       1.0  0.5185597860098099  0.308679505610975  0.5620820529531869  1.0000
  O   O19       1.0  0.6897504366854079  0.31816320886824906  0.549594537454162  1.0000
  O   O20       1.0  0.8641466760512273  0.6940258119895404  0.7563653806221566  1.0000
  O   O21       1.0  0.5145048036235805  0.6780393585875402  0.5400125819766826  1.0000
  O   O22       1.0  0.315660956735563  0.6856072262492673  0.5516517281973917  1.0000
  O   O23       1.0  0.4978897841548998  0.4960457794688296  0.5003373706415815  1.0000
  O   O24       1.0  0.8213496189858842  0.0178454940043906  0.0356122446474529  1.0000
  O   O25       1.0  0.025490483596414107  0.8219839516590353  0.0316448113705405  1.0000
  O   O26       1.0  0.024154990623351594  0.6480107335938428  0.039621026119270694  1.0000
  O   O27       1.0  0.8237373193766471  0.6637703089834303  0.055851387234788795  1.0000
  O   O28       1.0  0.3321126368481373  0.3323870840985776  0.5163945373041443  1.0000
  O   O29       1.0  0.00047899232248479925  0.0091183556694574  0.9680595491794008  1.0000
