data_image0
_chemical_formula_structural       Al2H36C54O12
_chemical_formula_sum              "Al2 H36 C54 O12"
_cell_length_a       4.020328817393269
_cell_length_b       28.916494451729346
_cell_length_c       28.916210780381032
_cell_angle_alpha    119.99747840605899
_cell_angle_beta     90.00137166359816
_cell_angle_gamma    89.99860561753911

_space_group_name_H-M_alt    "P 1"
_space_group_IT_number       1

loop_
  _space_group_symop_operation_xyz
  'x, y, z'

loop_
  _atom_site_type_symbol
  _atom_site_label
  _atom_site_symmetry_multiplicity
  _atom_site_fract_x
  _atom_site_fract_y
  _atom_site_fract_z
  _atom_site_occupancy
  Al  Al1       1.0  0.9844613274261391  0.5000044867925766  0.4999983867200869  1.0000
  Al  Al2       1.0  0.9844966152420723  0.16665965005987715  0.8333373136462897  1.0000
  H   H1        1.0  0.15217662723518538  0.17369923598418777  0.6958616577184743  1.0000
  H   H2        1.0  0.12248136055079331  0.22406526701679041  0.6463557209610685  1.0000
  H   H3        1.0  0.7449908622355893  0.29920351744473084  0.8172981115969763  1.0000
  H   H4        1.0  0.7448868635740098  0.3674645018922931  0.5160372010416624  1.0000
  H   H5        1.0  0.15221100162657564  0.49298050503011825  0.6374883057405043  1.0000
  H   H6        1.0  0.12250814185382809  0.44260821132490935  0.6869894437517131  1.0000
  H   H7        1.0  0.1521686952431622  0.022147923474214716  0.826298386650251  1.0000
  H   H8        1.0  0.12245668048800701  0.9222808854583062  0.7759300631009296  1.0000
  H   H9        1.0  0.7450127385158821  0.01808669747093458  0.7007971807409208  1.0000
  H   H10       1.0  0.744879912174902  0.6485733250118598  0.6325385209712239  1.0000
  H   H11       1.0  0.15213436260879123  0.6445179357634244  0.507028110812506  1.0000
  H   H12       1.0  0.12246079981193961  0.744386421338568  0.557395739250275  1.0000
  H   H13       1.0  0.1522293545694851  0.3041370748314092  0.9778391955924164  1.0000
  H   H14       1.0  0.12249079533888362  0.353644975109539  0.0777083918793267  1.0000
  H   H15       1.0  0.745049984153134  0.18270758019582423  0.981928290051215  1.0000
  H   H16       1.0  0.7448998758449861  0.4839665669473518  0.3514223352037078  1.0000
  H   H17       1.0  0.1521881231336764  0.36251857674951543  0.35549266830444287  1.0000
  H   H18       1.0  0.1224996918823678  0.3130187090718479  0.25562481803207504  1.0000
  H   H19       1.0  0.5424142457594314  0.398971587603988  0.789165120990731  1.0000
  H   H20       1.0  0.8970906962609463  0.37062747578712424  0.7488432937870115  1.0000
  H   H21       1.0  0.8813656278458951  0.3774400669393215  0.8136786575683885  1.0000
  H   H22       1.0  0.5422627925589012  0.26769591818274546  0.5441679697094983  1.0000
  H   H23       1.0  0.8969984647953382  0.2960297769720412  0.5844799385398362  1.0000
  H   H24       1.0  0.881198748494029  0.28921885883526943  0.5196449790156237  1.0000
  H   H25       1.0  0.5424075768001088  0.8901993629355686  0.6010258222403522  1.0000
  H   H26       1.0  0.8970959769793724  0.8782134994677405  0.629365498915199  1.0000
  H   H27       1.0  0.881370238697336  0.9362397301236526  0.6225575258431775  1.0000
  H   H28       1.0  0.542267087211208  0.7764618169359493  0.7323081177534193  1.0000
  H   H29       1.0  0.8969908105551027  0.7884435552661058  0.7039738952432657  1.0000
  H   H30       1.0  0.8812116630261073  0.7304177605074216  0.7107814348216196  1.0000
  H   H31       1.0  0.5424318268844885  0.21084406582433243  0.10982835277739161  1.0000
  H   H32       1.0  0.8971267075302408  0.2511641606522588  0.1218030117240474  1.0000
  H   H33       1.0  0.8813898325514629  0.1863267727931088  0.06378733163160892  1.0000
  H   H34       1.0  0.5422835073661715  0.4558383012822843  0.22352622412400794  1.0000
  H   H35       1.0  0.897008210797672  0.4155252871458329  0.2115506547065991  1.0000
  H   H36       1.0  0.8812227893527549  0.4803575738793241  0.2695707468076449  1.0000
  C   C1        1.0  0.4789920911943994  0.45492485426026974  0.41823320107305767  1.0000
  C   C2        1.0  0.4790097418241501  0.4633157406816011  0.5450808284595469  1.0000
  C   C3        1.0  0.4789862833783972  0.5817722009604509  0.536687444261375  1.0000
  C   C4        1.0  0.4790284017122701  0.2033572166275306  0.7882634194413428  1.0000
  C   C5        1.0  0.4790369356355626  0.08489154090118238  0.7966431954595805  1.0000
  C   C6        1.0  0.47905351545851715  0.21173761761671284  0.9151125412674762  1.0000
  C   C7        1.0  0.4534308452441778  0.2335087581336949  0.7592075228632639  1.0000
  C   C8        1.0  0.275582416514716  0.2121648847415258  0.7111674481272986  1.0000
  C   C9        1.0  0.2585392179688739  0.2402736611333155  0.6838963778746676  1.0000
  C   C10       1.0  0.40836766648303063  0.29098322300008306  0.7051499722751231  1.0000
  C   C11       1.0  0.5804479259572374  0.313612910732239  0.7546707302348851  1.0000
  C   C12       1.0  0.6049830546613962  0.28367889132124446  0.7801636833834281  1.0000
  C   C13       1.0  0.3905408541947466  0.3198597076669214  0.677542064602136  1.0000
  C   C14       1.0  0.39051922772733155  0.34680759069612316  0.6557933316635954  1.0000
  C   C15       1.0  0.4083312915009643  0.37568550986873106  0.6281881365115894  1.0000
  C   C16       1.0  0.5803671634568133  0.3530540003163622  0.5786643326469233  1.0000
  C   C17       1.0  0.6049125973507046  0.38299052957678  0.5531743988866396  1.0000
  C   C18       1.0  0.45340750598138163  0.4331634743547141  0.5741346872702523  1.0000
  C   C19       1.0  0.2755885091756411  0.454509981627254  0.622176996719425  1.0000
  C   C20       1.0  0.2585374817454351  0.4263976261608278  0.6494468073131828  1.0000
  C   C21       1.0  0.4534470536512174  0.025687950650308256  0.7664892773085087  1.0000
  C   C22       1.0  0.2755803011093789  0.9989923297130757  0.7878329627650089  1.0000
  C   C23       1.0  0.2585343397850153  0.9436118470340629  0.7597215803930268  1.0000
  C   C24       1.0  0.4083685390115264  0.9141579657764111  0.7090146597322758  1.0000
  C   C25       1.0  0.5804596290659774  0.9410518141357542  0.6863848647927355  1.0000
  C   C26       1.0  0.6050001553091491  0.9964794456496053  0.7163220324601699  1.0000
  C   C27       1.0  0.3905540134276464  0.8576785132441103  0.6801369411393666  1.0000
  C   C28       1.0  0.3905235923327552  0.8089856146667389  0.6531940740016965  1.0000
  C   C29       1.0  0.4083156072526749  0.7525049228247696  0.6243175920166025  1.0000
  C   C30       1.0  0.5803630353032717  0.7256097692999931  0.6469500490599032  1.0000
  C   C31       1.0  0.6049005842684921  0.6701806975719862  0.6170115513549349  1.0000
  C   C32       1.0  0.453373885726478  0.6409762499737964  0.5668409075612003  1.0000
  C   C33       1.0  0.2755360146792611  0.6676713344027261  0.5454950756339016  1.0000
  C   C34       1.0  0.2584952117544006  0.7230547301662681  0.5736076972575362  1.0000
  C   C35       1.0  0.45348106213168654  0.24079363136669218  0.9743121721152903  1.0000
  C   C36       1.0  0.2756414802953202  0.28882977154898987  0.001000638062258562  1.0000
  C   C37       1.0  0.25856318313822163  0.3161029492685685  0.05637885662087428  1.0000
  C   C38       1.0  0.4083936201258851  0.2948522119376307  0.08584172933357342  1.0000
  C   C39       1.0  0.5804934749516519  0.24533138850514294  0.058954238748860646  1.0000
  C   C40       1.0  0.6050411514186038  0.2198371845833123  0.003526087387790301  1.0000
  C   C41       1.0  0.39054928241940706  0.32246096420011844  0.1423250333369523  1.0000
  C   C42       1.0  0.39053914576759047  0.3442118729999564  0.191019731248261  1.0000
  C   C43       1.0  0.4083311968051788  0.37181459808213185  0.24749868536294167  1.0000
  C   C44       1.0  0.5803822963245083  0.42133834837157735  0.27438668083680534  1.0000
  C   C45       1.0  0.6049126951707819  0.4468291298478276  0.32981271790831823  1.0000
  C   C46       1.0  0.45340454936526686  0.42586874342450903  0.3590253716628809  1.0000
  C   C47       1.0  0.2755652539975841  0.37782675830860046  0.3323320949318358  1.0000
  C   C48       1.0  0.25852942557967395  0.3505583441851526  0.2769525734484759  1.0000
  C   C49       1.0  0.7345818535911163  0.3680168764651626  0.7780430030449494  1.0000
  C   C50       1.0  0.7344542932422371  0.2986457411225557  0.5552852636941026  1.0000
  C   C51       1.0  0.7345893151018928  0.9100267992721598  0.6319795747906272  1.0000
  C   C52       1.0  0.7344593819871862  0.756631937780419  0.7013567786409781  1.0000
  C   C53       1.0  0.7346124382501104  0.22196294211305198  0.08999400662063549  1.0000
  C   C54       1.0  0.7344719537744738  0.4447193390153927  0.24335855194023281  1.0000
  O   O1        1.0  0.7234043903755136  0.5607350335578545  0.5476846044282128  1.0000
  O   O2        1.0  0.7234089350619115  0.4869609235063875  0.4392680660789026  1.0000
  O   O3        1.0  0.7234207847456916  0.4523182374729443  0.5130466568540868  1.0000
  O   O4        1.0  0.25403131692119263  0.5557767985343034  0.5019492171687149  1.0000
  O   O5        1.0  0.254058211867239  0.49805320423260474  0.5538199826009989  1.0000
  O   O6        1.0  0.2540433394792175  0.44618408287964667  0.44422965266284825  1.0000
  O   O7        1.0  0.723454897038181  0.17969884223298027  0.8940692789373089  1.0000
  O   O8        1.0  0.7234281230544609  0.2143530470687622  0.8203006096831444  1.0000
  O   O9        1.0  0.7234445163970165  0.10593221235497909  0.7856466435301146  1.0000
  O   O10       1.0  0.2541112054577326  0.22047623738932015  0.8891141259896359  1.0000
  O   O11       1.0  0.2540908909758031  0.110885283689619  0.8313803501461693  1.0000
  O   O12       1.0  0.2540664834124868  0.16862078170261446  0.7795218878394011  1.0000
