data_image0
_chemical_formula_structural       Al2H15C24S2N3O10
_chemical_formula_sum              "Al2 H15 C24 S2 N3 O10"
_cell_length_a       6.647898473150295
_cell_length_b       12.753178563879954
_cell_length_c       17.686155499182817
_cell_angle_alpha    85.91755424340406
_cell_angle_beta     79.87433322595207
_cell_angle_gamma    74.67383852393216

_space_group_name_H-M_alt    "P 1"
_space_group_IT_number       1

loop_
  _space_group_symop_operation_xyz
  'x, y, z'

loop_
  _atom_site_type_symbol
  _atom_site_label
  _atom_site_symmetry_multiplicity
  _atom_site_fract_x
  _atom_site_fract_y
  _atom_site_fract_z
  _atom_site_occupancy
  Al  Al1       1.0  0.4863738681286379  0.5151566297659754  0.5009104521096645  1.0000
  Al  Al2       1.0  0.9893556578845807  0.5161389436035007  0.4983387976997306  1.0000
  H   H1        1.0  0.2758546381112554  0.38957860161884356  0.5473323169014108  1.0000
  H   H2        1.0  0.7324292549502119  0.5968906398183902  0.4131651067057475  1.0000
  H   H3        1.0  0.6359060072501705  0.5352530129851444  0.2712548058003392  1.0000
  H   H4        1.0  0.7271196087335454  0.5330392649243618  0.12835972279048488  1.0000
  H   H5        1.0  0.18073747245860985  0.41419934058072977  0.12014801479972448  1.0000
  H   H6        1.0  0.9125604283734461  0.4539234503831364  0.874543405578457  1.0000
  H   H7        1.0  0.3130490638800156  0.5831170830488545  0.7304122143779351  1.0000
  H   H8        1.0  0.24044514195392003  0.5647430810522635  0.873698917102395  1.0000
  H   H9        1.0  0.6359174736330218  0.1627792966662511  0.4573605983980966  1.0000
  H   H10       1.0  0.008824235710214678  0.4159258854586767  0.32565912045414785  1.0000
  H   H11       1.0  0.958627509473864  0.38895115940141517  0.23588258177917953  1.0000
  H   H12       1.0  0.06412023388044474  0.4916313541772865  0.6695997230686712  1.0000
  H   H13       1.0  0.14741470535048515  0.4490498781175702  0.7573718138327122  1.0000
  H   H14       1.0  0.47643067847182174  0.9093362878167139  0.55024032066855  1.0000
  H   H15       1.0  0.4540092444256487  0.7782935053144795  0.5433610725359372  1.0000
  C   C1        1.0  0.8284870409239532  0.3181704016192768  0.5035251292700522  1.0000
  C   C2        1.0  0.678741081938455  0.5332800968931649  0.6370674091701857  1.0000
  C   C3        1.0  0.1472569031294811  0.7109069747407589  0.4951841436759565  1.0000
  C   C4        1.0  0.31029166536607283  0.48928778800896566  0.36116264350584254  1.0000
  C   C5        1.0  0.35968637864940695  0.476778041634816  0.2773055843997908  1.0000
  C   C6        1.0  0.5393104467335944  0.5073904202132624  0.2372918869944627  1.0000
  C   C7        1.0  0.5909190740627183  0.5061277055811644  0.1581991398629299  1.0000
  C   C8        1.0  0.4571540711887465  0.4739409214335239  0.11506535181371184  1.0000
  C   C9        1.0  0.28157933486154724  0.44023122333410203  0.15344810747771478  1.0000
  C   C10       1.0  0.22860179185462232  0.44008572726382755  0.2344254693096985  1.0000
  C   C11       1.0  0.4986304388253161  0.4802677763413639  0.033701084426198194  1.0000
  C   C12       1.0  0.5359357841829747  0.491215844700406  0.963919183638744  1.0000
  C   C13       1.0  0.5738803544683576  0.505298053859505  0.8828757694814726  1.0000
  C   C14       1.0  0.7809124113505919  0.4827178015207136  0.8427905564981373  1.0000
  C   C15       1.0  0.8249709494402707  0.4951062878369327  0.761983943959464  1.0000
  C   C16       1.0  0.6494372063934365  0.529258903807168  0.7215838371137833  1.0000
  C   C17       1.0  0.44255152664409547  0.553869312975074  0.7630393313244781  1.0000
  C   C18       1.0  0.40133985575822373  0.5433842377119402  0.8422247586639671  1.0000
  C   C19       1.0  0.20093172527802508  0.8952750648016943  0.5188675792532393  1.0000
  C   C20       1.0  0.7872678042373593  0.13170992832112197  0.4770283209705965  1.0000
  C   C21       1.0  0.08727938103466235  0.8280569682594956  0.49514298785705785  1.0000
  C   C22       1.0  0.8956022002775017  0.19910466568940416  0.5005825519913782  1.0000
  C   C23       1.0  0.8994202905205952  0.021572463469276198  0.48216275253002283  1.0000
  C   C24       1.0  0.09022109387882438  0.0066904356223246985  0.5103887400833143  1.0000
  S   S1        1.0  0.8522199107142543  0.8999051178760171  0.4639811329036901  1.0000
  S   S2        1.0  0.1338361229690079  0.12897203147989697  0.52902038627564  1.0000
  N   N1        1.0  0.058114376193245276  0.40405356336069786  0.26848686358042767  1.0000
  N   N2        1.0  0.02937745826683625  0.4691726405767368  0.7256955580676274  1.0000
  N   N3        1.0  0.3819327219331541  0.8590662387722149  0.5488631999542689  1.0000
  O   O1        1.0  0.6390882374077336  0.36341989344717246  0.493607181831173  1.0000
  O   O2        1.0  0.8527397584571119  0.5497869419803365  0.6004103961599369  1.0000
  O   O3        1.0  0.01635939057069196  0.6611150838058035  0.47909389351417525  1.0000
  O   O4        1.0  0.4446204139844383  0.515195774246493  0.39508019017361556  1.0000
  O   O5        1.0  0.33158015574079525  0.6630191167021592  0.511313743249616  1.0000
  O   O6        1.0  0.13091255611177385  0.47611413412733583  0.39620444998425336  1.0000
  O   O7        1.0  0.9642427696360159  0.3667596527611038  0.5161361854599987  1.0000
  O   O8        1.0  0.5322714494818542  0.5173660701851475  0.6047499415374202  1.0000
  O   O9        1.0  0.24378279156834998  0.46760166532292397  0.5373325224081356  1.0000
  O   O10       1.0  0.7329983650376664  0.5575243030721209  0.4620052940029565  1.0000
