data_image0
_chemical_formula_structural       Cu2H8C12N4O20
_chemical_formula_sum              "Cu2 H8 C12 N4 O20"
_cell_length_a       6.977773556224368
_cell_length_b       8.8434644593386
_cell_length_c       9.464380236179261
_cell_angle_alpha    115.8666470109053
_cell_angle_beta     89.97024479364617
_cell_angle_gamma    113.286994082106

_space_group_name_H-M_alt    "P 1"
_space_group_IT_number       1

loop_
  _space_group_symop_operation_xyz
  'x, y, z'

loop_
  _atom_site_type_symbol
  _atom_site_label
  _atom_site_symmetry_multiplicity
  _atom_site_fract_x
  _atom_site_fract_y
  _atom_site_fract_z
  _atom_site_occupancy
  Cu  Cu1       1.0  0.0095489964672026  8.134691932330074e-05  0.750059523361834  1.0000
  Cu  Cu2       1.0  0.9904465707398699  0.9999183453298242  0.24995688382310977  1.0000
  H   H1        1.0  0.31364130342657154  0.020553577719077495  0.9103598801148389  1.0000
  H   H2        1.0  0.29279084097612446  0.9790791060983108  0.5892181743896925  1.0000
  H   H3        1.0  0.6863786649834084  0.9794404442851671  0.08962886411141818  1.0000
  H   H4        1.0  0.7071970163585917  0.020902289511497002  0.41075700126663145  1.0000
  H   H5        1.0  0.25593300317227363  0.1834450087031101  0.024652261270304593  1.0000
  H   H6        1.0  0.07181936087980029  0.8163753293818558  0.47514894690511505  1.0000
  H   H7        1.0  0.7440677880840596  0.8165364767349744  0.9753483067305948  1.0000
  H   H8        1.0  0.9281527165838172  0.18360891069605859  0.5248432344793484  1.0000
  C   C1        1.0  0.6258714373821803  0.6934912219286105  0.5372750667467725  1.0000
  C   C2        1.0  0.9327510250386339  0.3066938365484262  0.9628713478608899  1.0000
  C   C3        1.0  0.3741105434449636  0.30650710238640505  0.4627513540490681  1.0000
  C   C4        1.0  0.06726062458756124  0.693332223464722  0.037093412976794575  1.0000
  C   C5        1.0  0.6589260801514387  0.6187716966965909  0.6500692452887477  1.0000
  C   C6        1.0  0.04046573766668611  0.3814172342165917  0.8499928728818417  1.0000
  C   C7        1.0  0.341048711443328  0.38122656825232326  0.3499402472206297  1.0000
  C   C8        1.0  0.9594965664789612  0.6186047543583301  0.15001250948545672  1.0000
  C   C9        1.0  0.5314541913206128  0.42775990106646583  0.6056695366210931  1.0000
  C   C10       1.0  0.10357851777461487  0.5722361400067014  0.8942217428389013  1.0000
  C   C11       1.0  0.4685542175037796  0.5722454110671717  0.3943554874054625  1.0000
  C   C12       1.0  0.8964612702562818  0.42777743606158936  0.10576542025700059  1.0000
  N   N1        1.0  0.5614741549513766  0.3582022128790356  0.7117292144425419  1.0000
  N   N2        1.0  0.20290489819447535  0.6417019192749007  0.7880023853471768  1.0000
  N   N3        1.0  0.43852228710391467  0.6417849110470326  0.2882873773304765  1.0000
  N   N4        1.0  0.7971248967338056  0.3583088739371263  0.21198893375490968  1.0000
  O   O1        1.0  0.7479772818953165  0.8619568270392222  0.5777528659769898  1.0000
  O   O2        1.0  0.8866109672200153  0.1383778105724076  0.922554162461779  1.0000
  O   O3        1.0  0.2520097970809019  0.1380316174816443  0.42224207470113123  1.0000
  O   O4        1.0  0.11343675616095773  0.8616917255665014  0.07746098185732818  1.0000
  O   O5        1.0  0.8015936711681418  0.7351361430660855  0.7744894726436866  1.0000
  O   O6        1.0  0.06710088600929959  0.2651605221749094  0.7256544930144455  1.0000
  O   O7        1.0  0.19839542623158474  0.26486493822991247  0.22552538600999836  1.0000
  O   O8        1.0  0.9328896462801168  0.7348376810743248  0.2743348961935013  1.0000
  O   O9        1.0  0.6034506114655755  0.4637366660020489  0.8584362392894034  1.0000
  O   O10       1.0  0.1389337527283628  0.536060412718342  0.6413183782846373  1.0000
  O   O11       1.0  0.3965151177929228  0.536243507575868  0.1415933878151917  1.0000
  O   O12       1.0  0.8610430491441291  0.4639447034888349  0.35865162913722054  1.0000
  O   O13       1.0  0.5484196206139202  0.19600598143968279  0.6515793158682255  1.0000
  O   O14       1.0  0.3522480406716753  0.8038897064846324  0.8479765622131551  1.0000
  O   O15       1.0  0.4516145540959613  0.8040021334560307  0.3484457836704279  1.0000
  O   O16       1.0  0.6478049907320695  0.1960959223917982  0.15200454485741224  1.0000
  O   O17       1.0  0.2739193558551847  0.11732857207213947  0.9138447583289275  1.0000
  O   O18       1.0  0.15605262330139164  0.882493513969223  0.5859085594126723  1.0000
  O   O19       1.0  0.7260749655938029  0.8826543024128028  0.0861542611407131  1.0000
  O   O20       1.0  0.8439358498804098  0.11749771383949079  0.4140832836354135  1.0000
