data_image0
_chemical_formula_structural       Cd8H40C32O48
_chemical_formula_sum              "Cd8 H40 C32 O48"
_cell_length_a       6.3340886275743555
_cell_length_b       7.601038317710657
_cell_length_c       27.181011806031325
_cell_angle_alpha    89.99988693509574
_cell_angle_beta     90.00017074226264
_cell_angle_gamma    107.09635650851509

_space_group_name_H-M_alt    "P 1"
_space_group_IT_number       1

loop_
  _space_group_symop_operation_xyz
  'x, y, z'

loop_
  _atom_site_type_symbol
  _atom_site_label
  _atom_site_symmetry_multiplicity
  _atom_site_fract_x
  _atom_site_fract_y
  _atom_site_fract_z
  _atom_site_occupancy
  Cd  Cd1       1.0  0.09812240627363146  0.8130847444432372  0.7851056051487364  1.0000
  Cd  Cd2       1.0  0.4018754620818043  0.6869130814532552  0.28510412994560863  1.0000
  Cd  Cd3       1.0  0.901877172371691  0.18691425322386124  0.21489441217966748  1.0000
  Cd  Cd4       1.0  0.5981250869147843  0.31308866907755817  0.7148958873823689  1.0000
  Cd  Cd5       1.0  0.46844946311878727  0.7930809590092663  0.9570511485964064  1.0000
  Cd  Cd6       1.0  0.0315511900558931  0.7069188823159679  0.4570515977930116  1.0000
  Cd  Cd7       1.0  0.5315512092323119  0.20691666257913252  0.04294850082889921  1.0000
  Cd  Cd8       1.0  0.9684509378240448  0.2930828685672253  0.5429484195355487  1.0000
  H   H1        1.0  0.47098818794474084  0.1832574819732784  0.8825357001958596  1.0000
  H   H2        1.0  0.029005802966359736  0.3167348687746382  0.3825346137395656  1.0000
  H   H3        1.0  0.5290093266377197  0.8167401389111575  0.11746358132439384  1.0000
  H   H4        1.0  0.9709936523263919  0.6832682578340863  0.617466139395404  1.0000
  H   H5        1.0  0.05274471974349374  0.2902091353720734  0.857088708077676  1.0000
  H   H6        1.0  0.4472566503436325  0.20979158415904206  0.3570879890246419  1.0000
  H   H7        1.0  0.9472527948428464  0.7097884855107919  0.14291130925036555  1.0000
  H   H8        1.0  0.5527418345920336  0.7902087895883194  0.6429116603990794  1.0000
  H   H9        1.0  0.9001106411993901  0.16698452342306067  0.9356707495565078  1.0000
  H   H10       1.0  0.599889211171167  0.33301745097208607  0.4356700737919185  1.0000
  H   H11       1.0  0.09988845227030642  0.833013097812177  0.06432926777210923  1.0000
  H   H12       1.0  0.40011291670488447  0.6669842999126769  0.5643292077288609  1.0000
  H   H13       1.0  0.979688193853086  0.8342164661155206  0.9177360110083586  1.0000
  H   H14       1.0  0.5203008327174102  0.6657823810824792  0.41773500362791804  1.0000
  H   H15       1.0  0.02031089961660367  0.16578115511971694  0.08226400632025843  1.0000
  H   H16       1.0  0.4796976522201888  0.3342179926640937  0.5822650136996901  1.0000
  H   H17       1.0  0.4100126400330311  0.6007133113575662  0.7810853259576336  1.0000
  H   H18       1.0  0.08998724996131804  0.8992859085634989  0.2810846054108468  1.0000
  H   H19       1.0  0.5899869386122916  0.3992856863095255  0.21891469137077024  1.0000
  H   H20       1.0  0.9100143927410472  0.10071446588862189  0.7189150440140326  1.0000
  H   H21       1.0  0.5463394610200822  0.8071619768580333  0.7892612456947251  1.0000
  H   H22       1.0  0.9536597471812199  0.692838800232728  0.2892609088416692  1.0000
  H   H23       1.0  0.45366218168227584  0.19283839759408744  0.21073840373015434  1.0000
  H   H24       1.0  0.046340801817308395  0.3071629502972968  0.7107394763902024  1.0000
  H   H25       1.0  0.7793417446459114  0.502599075908364  0.8296499065145684  1.0000
  H   H26       1.0  0.720656434224736  0.9973973986723973  0.3296484904845159  1.0000
  H   H27       1.0  0.22065941288276036  0.4973999221111072  0.1703501108144111  1.0000
  H   H28       1.0  0.2793461788347146  0.002605728641071899  0.6703522626516121  1.0000
  H   H29       1.0  0.9973167972705211  0.5573097137083066  0.8656306036080327  1.0000
  H   H30       1.0  0.5026838253471977  0.9426879833440863  0.36562942653316827  1.0000
  H   H31       1.0  0.0026843602600976533  0.4426892843103757  0.13436978162484087  1.0000
  H   H32       1.0  0.49731830253467996  0.057313767538310884  0.6343709586992788  1.0000
  H   H33       1.0  0.1877687926651674  0.4972181383025643  0.007300612944895602  1.0000
  H   H34       1.0  0.3122315588727389  0.0027827056524501  0.5073005813862681  1.0000
  H   H35       1.0  0.8122329733956021  0.5027781072055644  0.9926994043850857  1.0000
  H   H36       1.0  0.6877705690091389  0.9972190452299469  0.4926998038461863  1.0000
  H   H37       1.0  0.35700057352458003  0.6001153675041949  0.04580841034366052  1.0000
  H   H38       1.0  0.14299634853288262  0.899883485027338  0.5458080298113901  1.0000
  H   H39       1.0  0.6430011925342357  0.3998808780047226  0.954191239082434  1.0000
  H   H40       1.0  0.8570037152900128  0.10011688907082567  0.4541923554206876  1.0000
  C   C1        1.0  0.31964920195135704  0.16607476107748903  0.8607255710870451  1.0000
  C   C2        1.0  0.18034759321881916  0.3339218128562818  0.36072458593638873  1.0000
  C   C3        1.0  0.6803483126311034  0.8339228598069466  0.13927371043320855  1.0000
  C   C4        1.0  0.8196513768963599  0.6660799373213635  0.6392757992949002  1.0000
  C   C5        1.0  0.17489406334021135  0.27288640396517383  0.8839987199805679  1.0000
  C   C6        1.0  0.3251055266576373  0.22711282337090916  0.3839982694064832  1.0000
  C   C7        1.0  0.825103451244189  0.7271112169184731  0.11600092944357243  1.0000
  C   C8        1.0  0.6748929582799618  0.7728875503756709  0.6160017479211322  1.0000
  C   C9        1.0  0.04903836772157178  0.13368989527403125  0.9237363803656893  1.0000
  C   C10       1.0  0.45095641978290496  0.36630778414828313  0.4237359433239335  1.0000
  C   C11       1.0  0.9509607257461781  0.8663077259619951  0.07626326905903373  1.0000
  C   C12       1.0  0.5490431588585379  0.633691213520393  0.5762633381966895  1.0000
  C   C13       1.0  0.9996844694033767  0.955195693342318  0.8939991929665471  1.0000
  C   C14       1.0  0.5003074644548775  0.5448032563599341  0.39399897521421695  1.0000
  C   C15       1.0  0.00031304518296338833  0.04480192754053998  0.10600082436148743  1.0000
  C   C16       1.0  0.499692599366078  0.45519711773901855  0.6060010421139739  1.0000
  C   C17       1.0  0.3936786916462509  0.22444889075210023  0.8086583514749253  1.0000
  C   C18       1.0  0.10632083521076642  0.2755437782447955  0.30865808086802826  1.0000
  C   C19       1.0  0.6063193081137825  0.775550106563408  0.19134129794900906  1.0000
  C   C20       1.0  0.8936760708473698  0.724456595147828  0.6913426722667853  1.0000
  C   C21       1.0  0.2944392671615788  0.4605788879998299  0.9049398001707306  1.0000
  C   C22       1.0  0.20556370158800516  0.0394202502284031  0.4049401039569319  1.0000
  C   C23       1.0  0.7055614051895204  0.5394187335885688  0.09505984925456802  1.0000
  C   C24       1.0  0.7944352685271737  0.9605814999492421  0.5950602812743571  1.0000
  C   C25       1.0  0.19384929633068276  0.14003806599590965  0.9690173067657643  1.0000
  C   C26       1.0  0.30614851823549566  0.35996217244430534  0.4690167670742796  1.0000
  C   C27       1.0  0.8061502823127  0.8599609316719777  0.030982342658752805  1.0000
  C   C28       1.0  0.6938515455835201  0.6400382016554358  0.530982882350024  1.0000
  C   C29       1.0  0.7890591067584083  0.9258550814446307  0.8629550257949393  1.0000
  C   C30       1.0  0.710940393933008  0.5741440031558226  0.3629567854845278  1.0000
  C   C31       1.0  0.21093889300356486  0.07414391587008848  0.137044991532882  1.0000
  C   C32       1.0  0.28905748247250773  0.4258591231020929  0.6370432318420856  1.0000
  O   O1        1.0  0.4110459178443192  0.7266086301762583  0.7727419662639508  1.0000
  O   O2        1.0  0.08895230522556812  0.773390625174052  0.27274168413552513  1.0000
  O   O3        1.0  0.5889536608010033  0.27339036749084034  0.22725805106445315  1.0000
  O   O4        1.0  0.9110498226563094  0.22661112570835223  0.7272587010969289  1.0000
  O   O5        1.0  0.19135931473360276  0.9744944642467244  0.8633675809339467  1.0000
  O   O6        1.0  0.3086341576569041  0.5255016485149538  0.36336612870317714  1.0000
  O   O7        1.0  0.8086392935585139  0.0255017805574411  0.13663206849098947  1.0000
  O   O8        1.0  0.6913622632217198  0.47449734844738595  0.6366338886240686  1.0000
  O   O9        1.0  0.9414464695898915  0.5528683092337797  0.8311561502801371  1.0000
  O   O10       1.0  0.5585506314672201  0.9471295349667627  0.33115464377623743  1.0000
  O   O11       1.0  0.05855310905737806  0.44713068843252296  0.16884423495215373  1.0000
  O   O12       1.0  0.44145198159029053  0.052873592347495384  0.6688457414559965  1.0000
  O   O13       1.0  0.349240229869352  0.10775295841863648  0.77383479332363  1.0000
  O   O14       1.0  0.15076244908561875  0.3922453660122897  0.2738322818311546  1.0000
  O   O15       1.0  0.6507598339496636  0.8922474156811048  0.22616485610067377  1.0000
  O   O16       1.0  0.8492350654987818  0.6077522548713571  0.726167367592993  1.0000
  O   O17       1.0  0.5087971752368078  0.39078678638247055  0.8016983408135305  1.0000
  O   O18       1.0  0.9912015100972482  0.1092075047014518  0.3016969751367925  1.0000
  O   O19       1.0  0.4911992456398764  0.6092122105806582  0.19830130860982825  1.0000
  O   O20       1.0  0.008793331901912824  0.8907914919069383  0.6983037779976514  1.0000
  O   O21       1.0  0.2580661144343992  0.6233435775529585  0.019665484897579702  1.0000
  O   O22       1.0  0.2419341746941938  0.8766567642345959  0.5196655580058478  1.0000
  O   O23       1.0  0.7419361368019964  0.3766540443870311  0.9803345324321955  1.0000
  O   O24       1.0  0.7580679531876838  0.12334498664780108  0.4803348272265995  1.0000
  O   O25       1.0  0.4946500616449683  0.4976383890556447  0.9181726302704052  1.0000
  O   O26       1.0  0.005356204512217701  0.0023606931245652  0.4181731760527968  1.0000
  O   O27       1.0  0.5053496403568117  0.5023564796682506  0.08182738705920663  1.0000
  O   O28       1.0  0.9946427656010145  0.9976410570538686  0.5818268412746052  1.0000
  O   O29       1.0  0.18282446399337715  0.5747021147836192  0.9103192176136263  1.0000
  O   O30       1.0  0.31718152639627545  0.9252965519420538  0.4103190169294353  1.0000
  O   O31       1.0  0.8171777872430183  0.42529550715637027  0.08968079971614884  1.0000
  O   O32       1.0  0.6828174437189035  0.07470519823559128  0.5896813683018537  1.0000
  O   O33       1.0  0.32115928155713647  0.037105081506887  0.9723090187157342  1.0000
  O   O34       1.0  0.17883869109859055  0.46289101387392134  0.4723079594440734  1.0000
  O   O35       1.0  0.6788413907939628  0.9628925400815118  0.02769063070956431  1.0000
  O   O36       1.0  0.8211613727204253  0.5371093602258198  0.5276916899802304  1.0000
  O   O37       1.0  0.19229891936293333  0.2562730729561408  0.002281737931248501  1.0000
  O   O38       1.0  0.3077056306869039  0.2437264171491265  0.5022815666445553  1.0000
  O   O39       1.0  0.8077012678125328  0.7437231722003972  0.9977179114942631  1.0000
  O   O40       1.0  0.6922955268398352  0.756272580871133  0.49771808278053714  1.0000
  O   O41       1.0  0.6136088932607675  0.9230880025794616  0.8855446290171546  1.0000
  O   O42       1.0  0.886380278792849  0.5769123591080286  0.3855450442437488  1.0000
  O   O43       1.0  0.3863897150294093  0.07690824222549247  0.11445465250388764  1.0000
  O   O44       1.0  0.11361978502810631  0.42308801499093096  0.614454973084442  1.0000
  O   O45       1.0  0.7990681111543693  0.9087813683873449  0.8164597084809632  1.0000
  O   O46       1.0  0.7009298051673197  0.5912192917071549  0.3164577721213108  1.0000
  O   O47       1.0  0.2009304971396944  0.09121487641602496  0.18354030884786715  1.0000
  O   O48       1.0  0.2990732930638771  0.40878521203975987  0.6835422452068233  1.0000
