data_image0
_chemical_formula_structural       K2H22C14S2O18
_chemical_formula_sum              "K2 H22 C14 S2 O18"
_cell_length_a       7.1697150411114965
_cell_length_b       7.240264037688156
_cell_length_c       11.93326254325015
_cell_angle_alpha    87.33424851367951
_cell_angle_beta     81.10738463480425
_cell_angle_gamma    73.12046781951268

_space_group_name_H-M_alt    "P 1"
_space_group_IT_number       1

loop_
  _space_group_symop_operation_xyz
  'x, y, z'

loop_
  _atom_site_type_symbol
  _atom_site_label
  _atom_site_symmetry_multiplicity
  _atom_site_fract_x
  _atom_site_fract_y
  _atom_site_fract_z
  _atom_site_occupancy
  K   K1        1.0  0.7226101805374014  0.5704262451714043  0.10280146685563102  1.0000
  K   K2        1.0  0.2773903859141883  0.42956595492135097  0.8971993058636374  1.0000
  H   H1        1.0  0.6500370755815297  0.2864290432179573  0.6439457563023157  1.0000
  H   H2        1.0  0.349961429773906  0.7135747144268049  0.356054893034454  1.0000
  H   H3        1.0  0.0833771981038893  0.3918430420242558  0.6550413675930076  1.0000
  H   H4        1.0  0.9166213226173098  0.608160718550053  0.3449576042749173  1.0000
  H   H5        1.0  0.8853683993252657  0.08339438735087158  0.2151589610719782  1.0000
  H   H6        1.0  0.11463838021057883  0.9166007621566763  0.784836987208401  1.0000
  H   H7        1.0  0.0005154593714707169  0.12367058492716858  0.39604427078474913  1.0000
  H   H8        1.0  0.9994792698101876  0.8763316990539988  0.6039550796161495  1.0000
  H   H9        1.0  0.28224637813592324  0.2611025166753577  0.3808522473209664  1.0000
  H   H10       1.0  0.7177604703302263  0.7388969665249191  0.6191477694260998  1.0000
  H   H11       1.0  0.257420587015794  0.9060368986036949  0.16145313618167736  1.0000
  H   H12       1.0  0.7425778109949236  0.09396251802446902  0.8385476383605168  1.0000
  H   H13       1.0  0.31233643113664306  0.7711927221627731  0.05447828742404683  1.0000
  H   H14       1.0  0.6876619745569527  0.22880669593016018  0.9455216483837322  1.0000
  H   H15       1.0  0.1243575478419743  0.18843699708175876  0.07564240280604653  1.0000
  H   H16       1.0  0.8756422432122191  0.811562427712218  0.9243599229058082  1.0000
  H   H17       1.0  0.1332206932442261  0.4089960198122639  0.2210249663875247  1.0000
  H   H18       1.0  0.866779113175731  0.5910034079112522  0.7789756818554852  1.0000
  H   H19       1.0  0.022152625055639426  0.1639948607350447  0.9723437642647712  1.0000
  H   H20       1.0  0.9778508655591407  0.8360017025650135  0.027656630650689445  1.0000
  H   H21       1.0  0.12612767608964506  0.6296415780865698  0.19714558939827503  1.0000
  H   H22       1.0  0.8738702882329008  0.3703592818486783  0.8028551855085058  1.0000
  C   C1        1.0  0.5761432505608681  0.17245909908739773  0.28630787074406083  1.0000
  C   C2        1.0  0.4238584133222645  0.8275388993539321  0.7136909733663261  1.0000
  C   C3        1.0  0.7791501616822103  0.13269315719756483  0.2910834883153728  1.0000
  C   C4        1.0  0.22085345164305187  0.8673077500486385  0.7089151039258115  1.0000
  C   C5        1.0  0.8439060587013216  0.15613152765642718  0.39139294863223756  1.0000
  C   C6        1.0  0.15609289570804916  0.8438707896108042  0.6086060228711007  1.0000
  C   C7        1.0  0.7070291726675391  0.2182261565788082  0.4898678328410997  1.0000
  C   C8        1.0  0.2929730399313685  0.7817747410368125  0.5101300469648536  1.0000
  C   C9        1.0  0.5022244427205251  0.2564157181736845  0.48514922342126726  1.0000
  C   C10       1.0  0.49777448095731797  0.743586593234447  0.5148531030197603  1.0000
  C   C11       1.0  0.4391915930735664  0.2326962345907475  0.382701151107412  1.0000
  C   C12       1.0  0.5608111375095888  0.7673075563400714  0.6172991193317899  1.0000
  C   C13       1.0  0.3605000831238883  0.3189895893281828  0.5886582602947997  1.0000
  C   C14       1.0  0.6394984145486616  0.6810141668518029  0.4113432277763921  1.0000
  S   S1        1.0  0.4995171178316511  0.14158986317460887  0.15592095760862187  1.0000
  S   S2        1.0  0.5004817215501234  0.8584081116112471  0.8440789778345635  1.0000
  O   O1        1.0  0.5184192356766603  0.30638553299716154  0.08108194581443233  1.0000
  O   O2        1.0  0.48158055537752625  0.6936138917968078  0.9189203798974293  1.0000
  O   O3        1.0  0.6251752547929286  0.9570420836761144  0.10898116050549336  1.0000
  O   O4        1.0  0.37482595235338323  0.04295735367797698  0.8910202001727543  1.0000
  O   O5        1.0  0.2878815641965673  0.1465284542549199  0.18588658050865095  1.0000
  O   O6        1.0  0.712117252136558  0.8534695161366198  0.8141158711378087  1.0000
  O   O7        1.0  0.7734650132971694  0.23853911265761238  0.5862143272207379  1.0000
  O   O8        1.0  0.22653817402279938  0.7614632393604452  0.4137834266506105  1.0000
  O   O9        1.0  0.17393597076681286  0.34662543760988734  0.5793364864126078  1.0000
  O   O10       1.0  0.8260638356531442  0.6533739901136286  0.420664161830402  1.0000
  O   O11       1.0  0.4179919697959135  0.34430142804475844  0.6796146848157323  1.0000
  O   O12       1.0  0.5820060865055865  0.6557037699775348  0.32038764235446854  1.0000
  O   O13       1.0  0.22928966922331281  0.7956970694631309  0.1294249769527838  1.0000
  O   O14       1.0  0.770705493646517  0.20430377121095233  0.8705743730835354  1.0000
  O   O15       1.0  0.012345061612343505  0.24923928353170768  0.0352447345819016  1.0000
  O   O16       1.0  0.9876546220971322  0.7507558002456634  0.9647577163353848  1.0000
  O   O17       1.0  0.046089339781062236  0.5420011377962693  0.22885068251586205  1.0000
  O   O18       1.0  0.9539118827310135  0.45799830248737544  0.7711490006935338  1.0000
