data_image0
_chemical_formula_structural       Tb4H88C132N4O40
_chemical_formula_sum              "Tb4 H88 C132 N4 O40"
_cell_length_a       8.51584337484389
_cell_length_b       17.96820132044698
_cell_length_c       26.43263225563861
_cell_angle_alpha    87.81809420572003
_cell_angle_beta     80.74345438552531
_cell_angle_gamma    76.26056121184656

_space_group_name_H-M_alt    "P 1"
_space_group_IT_number       1

loop_
  _space_group_symop_operation_xyz
  'x, y, z'

loop_
  _atom_site_type_symbol
  _atom_site_label
  _atom_site_symmetry_multiplicity
  _atom_site_fract_x
  _atom_site_fract_y
  _atom_site_fract_z
  _atom_site_occupancy
  Tb  Tb1       1.0  0.8817159197487571  0.5001032289031003  0.23631269193862178  1.0000
  Tb  Tb2       1.0  0.13216054753230852  0.9999486620591187  0.7363459882906724  1.0000
  Tb  Tb3       1.0  0.606251070353949  0.9999582633902975  0.788190459468467  1.0000
  Tb  Tb4       1.0  0.35584891878309577  0.5000748055210666  0.2881417900868684  1.0000
  H   H1        1.0  0.3541222054839893  0.6163978299621747  0.5094254781112184  1.0000
  H   H2        1.0  0.5907090829712801  0.24584099752951274  0.33342912611575315  1.0000
  H   H3        1.0  0.7021092186954194  0.7974487072651685  0.20342402431258222  1.0000
  H   H4        1.0  0.018987657902847968  0.16662659419593245  0.7242993592076061  1.0000
  H   H5        1.0  0.13264267880928332  0.10886383492685074  0.5769441932810153  1.0000
  H   H6        1.0  0.7776364055274386  0.12869089214471785  0.9806915160559696  1.0000
  H   H7        1.0  0.5431743789233822  0.9289144309044418  0.6654956060935575  1.0000
  H   H8        1.0  0.50166166537808  0.38125912911180393  0.10978960863781138  1.0000
  H   H9        1.0  0.5615115705239616  0.22698856664936787  0.720906751932347  1.0000
  H   H10       1.0  0.741123704086682  0.39533418268334947  0.3874319889313114  1.0000
  H   H11       1.0  0.8619217441694007  0.6288051124023256  0.4808529175873844  1.0000
  H   H12       1.0  0.24085509925986778  0.7273426191056986  0.2210445605729063  1.0000
  H   H13       1.0  0.9912002572573545  0.39124485735678866  0.07689065472685998  1.0000
  H   H14       1.0  0.36382608432318614  0.5968612963140318  0.416384691202154  1.0000
  H   H15       1.0  0.5396949897339812  0.3519221486678249  0.6763008098322912  1.0000
  H   H16       1.0  0.7247863615630264  0.6707187795023801  0.13412141639065567  1.0000
  H   H17       1.0  0.5761759907356492  0.6108882414092992  0.8114106178863024  1.0000
  H   H18       1.0  0.8015440282622209  0.3506992730867041  0.6570868369948286  1.0000
  H   H19       1.0  0.3724338040481216  0.09669543105781031  0.9165842448801698  1.0000
  H   H20       1.0  0.14627885040980723  0.8290086595208666  0.6340622784821618  1.0000
  H   H21       1.0  0.7917893207346155  0.07102860104832591  0.6654610711876003  1.0000
  H   H22       1.0  0.6354988746600938  0.29936585589577197  0.0769655285499482  1.0000
  H   H23       1.0  0.5885974980515555  0.3887798346089682  0.044022152797801084  1.0000
  H   H24       1.0  0.5026951470488754  0.4992068584530219  0.539179901840086  1.0000
  H   H25       1.0  0.456361357115085  0.8807569039902747  0.5241535548517575  1.0000
  H   H26       1.0  0.9572817616300143  0.5008754200988578  0.5391438765502912  1.0000
  H   H27       1.0  0.22667209292340834  0.8949188935286048  0.8875960965809284  1.0000
  H   H28       1.0  0.9533441546291852  0.30017558328069077  0.0635265844428048  1.0000
  H   H29       1.0  0.9353250294894053  0.8889468916924701  0.3115846378015519  1.0000
  H   H30       1.0  0.2505921062357786  0.7023258596753551  0.703433312998925  1.0000
  H   H31       1.0  0.7284951085403507  0.8889344813002753  0.5440054653007422  1.0000
  H   H32       1.0  0.2191547573584885  0.4036108793419403  0.4164576176074348  1.0000
  H   H33       1.0  0.752476942171313  0.11119852803045664  0.3116022839078738  1.0000
  H   H34       1.0  0.886289914221081  0.10508530709419264  0.8873174448993524  1.0000
  H   H35       1.0  0.20949118870851907  0.2946836191999652  0.5850778831835157  1.0000
  H   H36       1.0  0.9830777464247831  0.6998242998751396  0.06352169162070709  1.0000
  H   H37       1.0  0.9015018740875579  0.1493239072545975  0.1571256476880052  1.0000
  H   H38       1.0  0.2652145748442081  0.9554274711067096  0.19721090491059098  1.0000
  H   H39       1.0  0.3887481329757209  0.6184089242512841  0.1097372395075169  1.0000
  H   H40       1.0  0.07588350797138335  0.7543881430218351  0.3334051741167983  1.0000
  H   H41       1.0  0.08687399880002289  0.6191710214724113  0.0241686086877948  1.0000
  H   H42       1.0  0.5368243136980624  0.04457449835872751  0.1972655193128219  1.0000
  H   H43       1.0  0.7211919400847788  0.8835910421114195  0.009494841433379989  1.0000
  H   H44       1.0  0.046263589940466074  0.297504864580553  0.7033055807968297  1.0000
  H   H45       1.0  0.43338192043653845  0.8001150894090685  0.5634948412787537  1.0000
  H   H46       1.0  0.2879566747944721  0.7003866703771424  0.0769450514932117  1.0000
  H   H47       1.0  0.7573034972637556  0.8814386275453077  0.6097782946114094  1.0000
  H   H48       1.0  0.6567277629090074  0.3715220671742757  0.48076551186441213  1.0000
  H   H49       1.0  0.14076256712119328  0.32932031339563395  0.1342197890786139  1.0000
  H   H50       1.0  0.1823154296322756  0.8523688761691731  0.1764942220427415  1.0000
  H   H51       1.0  0.6134652139366996  0.38890812198964403  0.8115408824164376  1.0000
  H   H52       1.0  0.5378644947765352  0.2727018759768215  0.2211460194808694  1.0000
  H   H53       1.0  0.5862119326387829  0.2543421588306814  0.8333360439554839  1.0000
  H   H54       1.0  0.24135138463936584  0.871310360306815  0.9809496265934855  1.0000
  H   H55       1.0  0.2540850280517972  0.20534227649699233  0.08508401315561538  1.0000
  H   H56       1.0  0.13603903849082852  0.38368222259920526  0.5094443307782441  1.0000
  H   H57       1.0  0.25721500477839493  0.8332174614756342  0.7243709965730929  1.0000
  H   H58       1.0  0.7276338029561205  0.11133539708443153  0.5440227155149415  1.0000
  H   H59       1.0  0.738548803606186  0.7995014783627853  0.5769395982545902  1.0000
  H   H60       1.0  0.20529547866551226  0.705059244667801  0.5849456948606857  1.0000
  H   H61       1.0  0.6126417236311  0.4289448510164676  0.1655334463602856  1.0000
  H   H62       1.0  0.7523518522639563  0.0007359692677937001  0.03926058273225411  1.0000
  H   H63       1.0  0.931901748111656  0.6087330674168502  0.07688192260968658  1.0000
  H   H64       1.0  0.6848710391449657  0.20072456679973533  0.5770261576068236  1.0000
  H   H65       1.0  0.3673453384844836  0.6109529648023226  0.043974967561546  1.0000
  H   H66       1.0  0.6331808032047944  0.11877740564041524  0.6097989787680049  1.0000
  H   H67       1.0  0.8708000730663344  0.6051976996629876  0.38747139288088306  1.0000
  H   H68       1.0  0.2689912094053001  0.11647516950321801  0.009571151887001902  1.0000
  H   H69       1.0  0.9405759920841066  0.8506324233821945  0.1572919051498261  1.0000
  H   H70       1.0  0.718513027070813  0.7730508887345311  0.7210501946840395  1.0000
  H   H71       1.0  0.0035563657812859076  0.19997799468013974  0.5636332340901404  1.0000
  H   H72       1.0  0.7844666727545545  0.648007593303852  0.6765771641317216  1.0000
  H   H73       1.0  0.6408520492711604  0.14771538751025304  0.1765956585845885  1.0000
  H   H74       1.0  0.2908200448676156  0.8911832480880479  0.5768316726078808  1.0000
  H   H75       1.0  0.3326722020971146  0.4550902802867542  0.6972444715329119  1.0000
  H   H76       1.0  0.09393276031845234  0.20234021166950103  0.2032974059115347  1.0000
  H   H77       1.0  0.9703096441587321  0.5447606176316313  0.6972012210598919  1.0000
  H   H78       1.0  0.5819228176490304  0.7454722877427004  0.8331702269055441  1.0000
  H   H79       1.0  0.7113878374578347  0.9031587866068451  0.9164703083290675  1.0000
  H   H80       1.0  0.21972840968108207  0.17083511085762385  0.6343424256623961  1.0000
  H   H81       1.0  0.9356588360746517  0.3333198757640546  0.2242748757524637  1.0000
  H   H82       1.0  0.019906804360381673  0.11938671871901363  0.5242235430158928  1.0000
  H   H83       1.0  0.6604736855552035  0.794691555508571  0.0849980682774287  1.0000
  H   H84       1.0  0.22186028132398408  0.571053515186847  0.16550740178767848  1.0000
  H   H85       1.0  0.8397336155005847  0.6665765374045095  0.2244193509530206  1.0000
  H   H86       1.0  0.8888334323082603  0.3808064435455806  0.024194198181071182  1.0000
  H   H87       1.0  0.5414106865841718  0.6491957275388813  0.6571645376334346  1.0000
  H   H88       1.0  0.20821499795666643  0.9992548394411576  0.03916019274826971  1.0000
  C   C1        1.0  0.20715874379103405  0.07619746484561324  0.8421413844698193  1.0000
  C   C2        1.0  0.018140032097257158  0.1374664466646109  0.5636000126419347  1.0000
  C   C3        1.0  0.022309778057426403  0.06901995105319972  0.2397198413900767  1.0000
  C   C4        1.0  0.04677260966037984  0.081163014183943  0.0939704036619489  1.0000
  C   C5        1.0  0.7363409501324586  0.9455392160722623  0.18342860287675222  1.0000
  C   C6        1.0  0.9298789140221402  0.21440288815166045  0.7439608209842278  1.0000
  C   C7        1.0  0.7921836870411951  0.16059828125949593  0.2935070941968263  1.0000
  C   C8        1.0  0.6335173308776946  0.030273579202258812  0.11596968411522111  1.0000
  C   C9        1.0  0.3825351997523328  0.9017744812846546  0.09606936974417832  1.0000
  C   C10       1.0  0.48607362981232444  0.6918101502372809  0.17983816490021098  1.0000
  C   C11       1.0  0.8650157472973843  0.6869839737686335  0.6671977520934718  1.0000
  C   C12       1.0  0.4191321184631891  0.5689080251746718  0.7397540240927967  1.0000
  C   C13       1.0  0.5022713593357442  0.5994306099714282  0.6463008690835039  1.0000
  C   C14       1.0  0.8841006237949572  0.44566367972337423  0.683330068102613  1.0000
  C   C15       1.0  0.9917997897630716  0.7650261264168849  0.3054783288300271  1.0000
  C   C16       1.0  0.09616334429533424  0.3969762959504522  0.43108908023659603  1.0000
  C   C17       1.0  0.388093121477482  0.48921819216429446  0.6677991862223394  1.0000
  C   C18       1.0  0.5716567829535962  0.7799286171198506  0.1158684675230361  1.0000
  C   C19       1.0  0.7692980786659408  0.12326402822576916  0.788780762914584  1.0000
  C   C20       1.0  0.9137683280642861  0.839483346782693  0.293532571485791  1.0000
  C   C21       1.0  0.5050501444313794  0.6603529899656666  0.793353472296019  1.0000
  C   C22       1.0  0.4722042772492259  0.6034518376283204  0.4310509718192463  1.0000
  C   C23       1.0  0.45223628940114236  0.16806703623557692  0.1283339262707628  1.0000
  C   C24       1.0  0.8943558405436396  0.2855600119017937  0.2439329502560597  1.0000
  C   C25       1.0  0.48144791339322546  0.24275487961960357  0.6920832210549861  1.0000
  C   C26       1.0  0.7026367595877051  0.33947526955182644  0.7934608729927248  1.0000
  C   C27       1.0  0.9916668809751318  0.8703669987555928  0.05685157673505609  1.0000
  C   C28       1.0  0.9510986571282984  0.1295410678167387  0.056689538611337305  1.0000
  C   C29       1.0  0.43258457091500435  0.5542595062236587  0.6833737541279419  1.0000
  C   C30       1.0  0.30822980892358487  0.6378412512714322  0.081117667960676  1.0000
  C   C31       1.0  0.8516749850151301  0.9004275265341379  0.146405181839981  1.0000
  C   C32       1.0  0.1176316862197313  0.8912595529274018  0.914591665011784  1.0000
  C   C33       1.0  0.28992213886991186  0.2112124707582694  0.6423987670928355  1.0000
  C   C34       1.0  0.7841269832147122  0.7884554356218275  0.2319003596718048  1.0000
  C   C35       1.0  0.0010912226789230608  0.668065307780438  0.6282824761576721  1.0000
  C   C36       1.0  0.3337854807048047  0.743004499930507  0.1921134672009046  1.0000
  C   C37       1.0  0.3017654254641968  0.813248256848617  0.1671580697406014  1.0000
  C   C38       1.0  0.4678018362080679  0.6142113249926667  0.4830810157621173  1.0000
  C   C39       1.0  0.6062253711607826  0.7111717883642613  0.14223394676943  1.0000
  C   C40       1.0  0.3122311553852056  0.22011882987236223  0.11592012785359881  1.0000
  C   C41       1.0  0.0793244165716871  0.054370632336294016  0.1833319985448441  1.0000
  C   C42       1.0  0.9696495504354918  0.5303767612951447  0.6158860595002764  1.0000
  C   C43       1.0  0.12118875739010103  0.5821331280827878  0.1425771409602561  1.0000
  C   C44       1.0  0.9079066330570887  0.12142609166496501  0.9662794373382866  1.0000
  C   C45       1.0  0.41430908062834987  0.46956270228985625  0.6159305052787545  1.0000
  C   C46       1.0  0.9316216965603632  0.1483375628615136  0.2555873528420634  1.0000
  C   C47       1.0  0.841703053397218  0.4309467719679463  0.7397175924653041  1.0000
  C   C48       1.0  0.8873426282430403  0.8848291927159909  0.7055622298941131  1.0000
  C   C49       1.0  0.4151208665628019  0.6481946727992496  0.7555805969423873  1.0000
  C   C50       1.0  0.6243418290387692  0.5763859009520333  0.342081700716264  1.0000
  C   C51       1.0  0.4074562254675202  0.11521699985639344  0.7056968160862168  1.0000
  C   C52       1.0  0.8314026255150255  0.3704287318768636  0.5566831365100313  1.0000
  C   C53       1.0  0.6874819084777002  0.2650015713914301  0.805403199208385  1.0000
  C   C54       1.0  0.27271131724500464  0.3848402805348528  0.2056560917785859  1.0000
  C   C55       1.0  0.7512421640622338  0.29809845770653715  0.2801163703445582  1.0000
  C   C56       1.0  0.0012393186143029135  0.09950923258031713  0.1462652486127709  1.0000
  C   C57       1.0  0.13638061602463863  0.09815071004772594  0.8967961881985715  1.0000
  C   C58       1.0  0.03393085762301951  0.5983065689297221  0.596060426354299  1.0000
  C   C59       1.0  0.8270539674007298  0.7572702405142736  0.6920942580350767  1.0000
  C   C60       1.0  0.10175780332028954  0.7199335263148399  0.6158404950753252  1.0000
  C   C61       1.0  0.8887590386530134  0.37826145225811575  0.5011414064073065  1.0000
  C   C62       1.0  0.12559502410857018  0.8785476183209725  0.9664877579606852  1.0000
  C   C63       1.0  0.8586551613746426  0.9187872805407055  0.09409995727094163  1.0000
  C   C64       1.0  0.7367723097609372  0.9308846274943365  0.2398215066235707  1.0000
  C   C65       1.0  0.7026133602412229  0.23510252989125754  0.3054735352257651  1.0000
  C   C66       1.0  0.968462204047214  0.7019506447675213  0.28020065321625515  1.0000
  C   C67       1.0  0.6425753860227346  0.37679306262066353  0.2887761038608829  1.0000
  C   C68       1.0  0.03110097992377793  0.6373182863366298  0.0635353335769651  1.0000
  C   C69       1.0  0.251293228184977  0.28888381620136994  0.1423158109954699  1.0000
  C   C70       1.0  0.5215447193051406  0.6152732841703781  0.20556299852837157  1.0000
  C   C71       1.0  0.8785318172307301  0.4188467293608086  0.5939519936622446  1.0000
  C   C72       1.0  0.32383107926303756  0.7113283700525204  0.7318376144238741  1.0000
  C   C73       1.0  0.06863089967103526  0.6233177021300308  0.2888596940119541  1.0000
  C   C74       1.0  0.7228690636575694  0.13816755746034912  0.5811770308951267  1.0000
  C   C75       1.0  0.8514188491426183  0.40050863301212314  0.6462489879530011  1.0000
  C   C76       1.0  0.8263622412910794  0.8965730216598404  0.9311284095753435  1.0000
  C   C77       1.0  0.9448401196542165  0.2885334424114347  0.731794033510397  1.0000
  C   C78       1.0  0.7581760936089738  0.6087865254339778  0.4145000441214961  1.0000
  C   C79       1.0  0.5208686442380568  0.0982146069025589  0.0961548884748282  1.0000
  C   C80       1.0  0.1711241031634785  0.016171973714875804  0.07922209801142088  1.0000
  C   C81       1.0  0.37065412803308806  0.3318093815088617  0.6282873542126026  1.0000
  C   C82       1.0  0.2047264404644409  0.9893953508948531  0.167759579493584  1.0000
  C   C83       1.0  0.3268766247297209  0.7854355505187841  0.7439682565183503  1.0000
  C   C84       1.0  0.832693508422644  0.8857690499031676  0.9831633185885876  1.0000
  C   C85       1.0  0.42175063272855323  0.797877291782456  0.7800203934439908  1.0000
  C   C86       1.0  0.6266828755655497  0.010542284011215503  0.16782869257966126  1.0000
  C   C87       1.0  0.9042979971971268  0.08212031880813701  0.6425705661756638  1.0000
  C   C88       1.0  0.28232752499075536  0.2799071738660431  0.6159460674173048  1.0000
  C   C89       1.0  0.8268089571113394  0.3916132746672006  0.4144534945372201  1.0000
  C   C90       1.0  0.6107865965840276  0.3619218886856928  0.0811570032381752  1.0000
  C   C91       1.0  0.9834641099968097  0.21140356659000056  0.23177300898325368  1.0000
  C   C92       1.0  0.33376157137944057  0.30826905434802404  0.1799489301776305  1.0000
  C   C93       1.0  0.7361551218216676  0.41793111331803356  0.1425835521414101  1.0000
  C   C94       1.0  0.951345527999301  0.9236314709750391  0.8421484360873492  1.0000
  C   C95       1.0  0.033327836048627595  0.4239086054034615  0.34209137206672585  1.0000
  C   C96       1.0  0.8119902067017364  0.8516018621311405  0.25567443563063114  1.0000
  C   C97       1.0  0.3698574469533115  0.40159376056070073  0.5960878253155215  1.0000
  C   C98       1.0  0.2500617235849345  0.9697263622552019  0.11589377313605809  1.0000
  C   C99       1.0  0.799203804797074  0.20192939441661653  0.780102314620791  1.0000
  C   C100      1.0  0.45353289749004244  0.9178874413567686  0.6425766970176666  1.0000
  C   C101      1.0  0.6115182626250689  0.62959283732323  0.5567383458867141  1.0000
  C   C102      1.0  0.4829588292865524  0.5161026027151012  0.579244592663045  1.0000
  C   C103      1.0  0.016404353730052872  0.12180583204444424  0.0011369189172753984  1.0000
  C   C104      1.0  0.5272959182023695  0.5811272976148062  0.5939955068409546  1.0000
  C   C105      1.0  0.44280958644073865  0.8765656192803919  0.7886817041442811  1.0000
  C   C106      1.0  0.829941596834132  0.3516690235434369  0.7555816700548944  1.0000
  C   C107      1.0  0.9441485372808036  0.5106984327644711  0.6677467159665582  1.0000
  C   C108      1.0  0.04868821197356981  0.38595567784459217  0.48308983875663364  1.0000
  C   C109      1.0  0.3920540554030936  0.19174711167072192  0.6799627921131943  1.0000
  C   C110      1.0  0.1840666253759482  0.1142280734582002  0.9831507373533555  1.0000
  C   C111      1.0  0.984486057654557  0.40213010085300055  0.39677675861512535  1.0000
  C   C112      1.0  0.6182336880826398  0.5982672877853051  0.396774403577453  1.0000
  C   C113      1.0  0.8613096542452396  0.7143592615525592  0.24407627872710694  1.0000
  C   C114      1.0  0.9284041406445314  0.8082910612578049  0.679812296348004  1.0000
  C   C115      1.0  0.7534585498213674  0.621503055693886  0.4663955661598393  1.0000
  C   C116      1.0  0.06791537400599906  0.7887114209291471  0.6421958880495281  1.0000
  C   C117      1.0  0.9373994033718345  0.4839045861376548  0.5792009590026765  1.0000
  C   C118      1.0  0.4192293590863656  0.8319743099153954  0.1282798369358247  1.0000
  C   C119      1.0  0.24276667971494714  0.10330820136773163  0.931154500248276  1.0000
  C   C120      1.0  0.5084343398306219  0.7348153111273776  0.8052664920839447  1.0000
  C   C121      1.0  0.9680928704381421  0.10868765642605642  0.9144061156996557  1.0000
  C   C122      1.0  0.4683230808798985  0.31293990831217405  0.6670833964961389  1.0000
  C   C123      1.0  0.5307748438179944  0.18683641873217743  0.1672321112458093  1.0000
  C   C124      1.0  0.473823440378638  0.25706627623610967  0.1922110477668681  1.0000
  C   C125      1.0  0.6962682813823382  0.8620553300344512  0.5811374160954799  1.0000
  C   C126      1.0  0.7491762689130893  0.9838022691439008  0.07932515549801879  1.0000
  C   C127      1.0  0.41870277228374464  0.8626295146036683  0.5635173725308249  1.0000
  C   C128      1.0  0.7796793547170822  0.3787851264266849  0.4663300710880165  1.0000
  C   C129      1.0  0.6096849949989933  0.6218274580301398  0.5011807757495745  1.0000
  C   C130      1.0  0.9052971659338666  0.3626825399160794  0.06356004408683448  1.0000
  C   C131      1.0  0.9672008182180388  0.9017190232353729  0.8968349159070996  1.0000
  C   C132      1.0  0.9821928876617602  0.8781584401754757  0.0012787798687127943  1.0000
  N   N1        1.0  0.5200559528874961  0.8834752195300979  0.5973579393889068  1.0000
  N   N2        1.0  0.15340360996092534  0.6164739596762702  0.0973543536933548  1.0000
  N   N3        1.0  0.8829108154893109  0.11662144252945689  0.5973920231923628  1.0000
  N   N4        1.0  0.7492300364554864  0.38347177429596263  0.09738263287016478  1.0000
  O   O1        1.0  0.6853111735316239  0.6734858014195596  0.5725767711931127  1.0000
  O   O2        1.0  0.806162984023516  0.941756137232986  0.8316832478064029  1.0000
  O   O3        1.0  0.33659519200639226  0.4032777711033121  0.5521315692610926  1.0000
  O   O4        1.0  0.3867937195065352  0.9323698758560971  0.7594651945046564  1.0000
  O   O5        1.0  0.039434932589742254  0.06461227338616743  0.6582651302040717  1.0000
  O   O6        1.0  0.36278826319281193  0.05790742981248803  0.8317938209256256  1.0000
  O   O7        1.0  0.7534058613327662  0.5754620741373132  0.31050565323496926  1.0000
  O   O8        1.0  0.04607031767309173  0.015975777930805207  0.2706887593480616  1.0000
  O   O9        1.0  0.8127094000778217  0.4839277604995404  0.7707200697875294  1.0000
  O   O10       1.0  0.8173572412588399  0.1733415231665347  0.07249387395083322  1.0000
  O   O11       1.0  0.8538339991869607  0.43545179507434995  0.1582351712871173  1.0000
  O   O12       1.0  0.07946537454044038  0.9246788929111317  0.8105928487022283  1.0000
  O   O13       1.0  0.4580076219057998  0.9034327413347116  0.05211457204330119  1.0000
  O   O14       1.0  0.37652478006858564  0.4145626515939754  0.22215453766554558  1.0000
  O   O15       1.0  0.49747655983261296  0.5581327652769875  0.3316409552499664  1.0000
  O   O16       1.0  0.5275606599141371  0.8861493512939731  0.8221755637000071  1.0000
  O   O17       1.0  0.17082996735642547  0.44199061671241696  0.33169761344588977  1.0000
  O   O18       1.0  0.4176739178936517  0.5158821954952372  0.7707371713598334  1.0000
  O   O19       1.0  0.11074630978199454  0.075278108729897  0.810502438305548  1.0000
  O   O20       1.0  0.7372971342238656  0.9147415222654445  0.7220062876988607  1.0000
  O   O21       1.0  0.06883621450828772  0.567483112676854  0.259606741495972  1.0000
  O   O22       1.0  0.6698313008929302  0.5847350505320537  0.20790077559503567  1.0000
  O   O23       1.0  0.741688991504688  0.3265819238298989  0.5724896516907947  1.0000
  O   O24       1.0  0.5149312144128187  0.38642874978247493  0.3223320087913706  1.0000
  O   O25       1.0  0.005195647305207372  0.9151705777334488  0.7080388635454327  1.0000
  O   O26       1.0  0.9359420586838073  0.42484175483335224  0.310465462536797  1.0000
  O   O27       1.0  0.987750575767677  0.5647613255241027  0.15825287937126833  1.0000
  O   O28       1.0  0.28746403020458183  0.08468336110852452  0.7080169222203168  1.0000
  O   O29       1.0  0.8543168555285163  0.06745221728822771  0.7595310229805179  1.0000
  O   O30       1.0  0.4013462956975007  0.5855118162376983  0.2221077963767897  1.0000
  O   O31       1.0  0.48892743098735997  0.09648914924725462  0.0522453301637142  1.0000
  O   O32       1.0  0.5409383548793161  0.08546725484107752  0.7222495296186153  1.0000
  O   O33       1.0  0.3026959230291271  0.9353646287976435  0.6582554896391386  1.0000
  O   O34       1.0  0.10934255435899586  0.8264561127061756  0.0727168428716638  1.0000
  O   O35       1.0  0.6511687867793869  0.11369674308497224  0.8223121042268531  1.0000
  O   O36       1.0  0.6716214554233629  0.4325553240407843  0.2594772200380291  1.0000
  O   O37       1.0  0.12211948019612613  0.4154271030790184  0.2080283331815806  1.0000
  O   O38       1.0  0.6816617627735583  0.983909861093679  0.2707953318519927  1.0000
  O   O39       1.0  0.1629372260946055  0.6137838186021868  0.3223650144847809  1.0000
  O   O40       1.0  0.11109110479420532  0.5966389515749384  0.5521051224177569  1.0000
