data_image0
_chemical_formula_structural       Cd4H28C48N12O24
_chemical_formula_sum              "Cd4 H28 C48 N12 O24"
_cell_length_a       7.469595881898826
_cell_length_b       14.375152668108191
_cell_length_c       21.13999081500068
_cell_angle_alpha    90.0000283624404
_cell_angle_beta     89.99999250266852
_cell_angle_gamma    92.82879198775441

_space_group_name_H-M_alt    "P 1"
_space_group_IT_number       1

loop_
  _space_group_symop_operation_xyz
  'x, y, z'

loop_
  _atom_site_type_symbol
  _atom_site_label
  _atom_site_symmetry_multiplicity
  _atom_site_fract_x
  _atom_site_fract_y
  _atom_site_fract_z
  _atom_site_occupancy
  Cd  Cd1       1.0  0.48770758406180914  0.3949530593393291  0.5641100447192073  1.0000
  Cd  Cd2       1.0  0.5122960751976536  0.10504756981132603  0.06411025117501619  1.0000
  Cd  Cd3       1.0  0.5122966826253335  0.6050479713321837  0.43588958858250487  1.0000
  Cd  Cd4       1.0  0.48770685262854857  0.8949534597869476  0.935889855163829  1.0000
  H   H1        1.0  0.5080607324490533  0.3309790817615338  0.9033093293937496  1.0000
  H   H2        1.0  0.49193740598448  0.1690210910691975  0.4033090852841922  1.0000
  H   H3        1.0  0.4919367758463836  0.6690212470502529  0.09669030390800509  1.0000
  H   H4        1.0  0.5080641188935717  0.8309792409628259  0.5966905480174701  1.0000
  H   H5        1.0  0.49389285521773746  0.05953179163262233  0.8157917436732729  1.0000
  H   H6        1.0  0.5061066482120539  0.44046831919617807  0.3157915902242435  1.0000
  H   H7        1.0  0.506103314216759  0.9404685361059182  0.18420836266560767  1.0000
  H   H8        1.0  0.49389360189240966  0.5595327082552687  0.6842085161146655  1.0000
  H   H9        1.0  0.4832740613891105  0.13456618082045682  0.7099014550949929  1.0000
  H   H10       1.0  0.5167254095753722  0.36543315719877983  0.20990127590718538  1.0000
  H   H11       1.0  0.5167261246280007  0.8654341501383201  0.2900986512438023  1.0000
  H   H12       1.0  0.4832707598591243  0.6345671705397606  0.7900988304317025  1.0000
  H   H13       1.0  0.8268723606572197  0.5220295449300566  0.6158357192592304  1.0000
  H   H14       1.0  0.17313235268594707  0.9779688706235633  0.11583559395709386  1.0000
  H   H15       1.0  0.1731317778551471  0.47797009275630853  0.38416438707935896  1.0000
  H   H16       1.0  0.8268703187909882  0.022029373003718405  0.8841635663070804  1.0000
  H   H17       1.0  0.16972538985780264  0.5236205640534666  0.6158480338166682  1.0000
  H   H18       1.0  0.8302793234816195  0.9763778515091917  0.11584835036608608  1.0000
  H   H19       1.0  0.8302774738810471  0.47637976905214446  0.3841520725220631  1.0000
  H   H20       1.0  0.16972334799525163  0.02362039211826071  0.8841512829351926  1.0000
  H   H21       1.0  0.15145457312681299  0.2841860784576583  0.5058971420323457  1.0000
  H   H22       1.0  0.8485488471673079  0.21581172276752622  0.005897843106133398  1.0000
  H   H23       1.0  0.8485495012980667  0.7158128627363853  0.4941039103803248  1.0000
  H   H24       1.0  0.15145395248397625  0.7841879138459333  0.994103682343791  1.0000
  H   H25       1.0  0.8078647279346285  0.2834044295545652  0.5051738528633222  1.0000
  H   H26       1.0  0.19213741780203725  0.2165940665684191  0.005174111779041399  1.0000
  H   H27       1.0  0.1921379435420292  0.7165938140734057  0.494827199549263  1.0000
  H   H28       1.0  0.8078641070758013  0.783406265464116  0.9948269406339206  1.0000
  C   C1        1.0  0.4878212824378424  0.2739152036909617  0.7458291193938961  1.0000
  C   C2        1.0  0.5121769030240416  0.22608485564116884  0.2458288935379827  1.0000
  C   C3        1.0  0.5121788394919095  0.7260844307751598  0.2541709869447786  1.0000
  C   C4        1.0  0.4878166527761395  0.7739161664430301  0.7541707397639782  1.0000
  C   C5        1.0  0.4942810630332703  0.32748927311861564  0.8012733339908634  1.0000
  C   C6        1.0  0.5057184447321676  0.1725108272464908  0.3012730904126144  1.0000
  C   C7        1.0  0.5057191229838409  0.6725110578401684  0.19872677234792485  1.0000
  C   C8        1.0  0.49427644992887565  0.8274901959111248  0.6987265428893179  1.0000
  C   C9        1.0  0.5020637553186875  0.28784713220724717  0.8609346586448364  1.0000
  C   C10       1.0  0.49793707349087424  0.21215301223035962  0.36093490180322607  1.0000
  C   C11       1.0  0.4979350918376185  0.7121531976779496  0.13906497465688258  1.0000
  C   C12       1.0  0.5020631766136604  0.7878480152209167  0.6390647314985783  1.0000
  C   C13       1.0  0.5016155078733676  0.19067371588587181  0.8665193183405506  1.0000
  C   C14       1.0  0.498383916320215  0.30932573501062427  0.3665195941694178  1.0000
  C   C15       1.0  0.49838327519558606  0.8093259175066622  0.13348031496105509  1.0000
  C   C16       1.0  0.5016149949233722  0.6906752913674057  0.6334805121695195  1.0000
  C   C17       1.0  0.49398738405253806  0.13516887128169233  0.8119483299370953  1.0000
  C   C18       1.0  0.5060134593859615  0.3648312378503321  0.3119476780092113  1.0000
  C   C19       1.0  0.5060101242428348  0.8648314575302651  0.18805177640176393  1.0000
  C   C20       1.0  0.49398545185763265  0.6351697885276979  0.6880524283297331  1.0000
  C   C21       1.0  0.4877277313445776  0.17693011130406697  0.7525670435686818  1.0000
  C   C22       1.0  0.512270452105227  0.3230699528840476  0.25256637729941633  1.0000
  C   C23       1.0  0.5122697769507952  0.8230702175078904  0.24743306277017033  1.0000
  C   C24       1.0  0.4877257173293402  0.6769303748543296  0.7474332560023668  1.0000
  C   C25       1.0  0.4855286447777446  0.3158829830545572  0.6808607917512146  1.0000
  C   C26       1.0  0.5144722378073255  0.18411703160082032  0.18086102470642365  1.0000
  C   C27       1.0  0.5144728160130969  0.6841166524844625  0.3191378954761248  1.0000
  C   C28       1.0  0.48551997913191525  0.8158839894101464  0.8191390816326699  1.0000
  C   C29       1.0  0.5088912940635097  0.14932001424011793  0.9314417613713883  1.0000
  C   C30       1.0  0.49111085255135845  0.3506801820865562  0.43144205145205194  1.0000
  C   C31       1.0  0.4911089560410249  0.8506810132111512  0.06855787193041608  1.0000
  C   C32       1.0  0.5088919471001392  0.6493194545263921  0.5685580548865659  1.0000
  C   C33       1.0  0.9008622195383396  0.46981675954912583  0.5907898132898665  1.0000
  C   C34       1.0  0.09914251426527444  0.030181103932676513  0.09078954079227229  1.0000
  C   C35       1.0  0.09914185488660372  0.5301821816447473  0.4092107660857066  1.0000
  C   C36       1.0  0.9008614960724588  0.9698171407681928  0.9092100925089778  1.0000
  C   C37       1.0  0.08764732120050672  0.4705304967494328  0.5909071455760824  1.0000
  C   C38       1.0  0.9123561377944188  0.029468062236510703  0.0909077809832013  1.0000
  C   C39       1.0  0.912355478450991  0.5294691398635153  0.4090929607625283  1.0000
  C   C40       1.0  0.08764659776973364  0.9705308778837821  0.9090923253553026  1.0000
  C   C41       1.0  0.07711341654140821  0.33745508318967415  0.5297699161736061  1.0000
  C   C42       1.0  0.9228899966236528  0.16254273524084084  0.029770122821936695  1.0000
  C   C43       1.0  0.9228905937961188  0.6625431615117066  0.47023113623895074  1.0000
  C   C44       1.0  0.07711146416683332  0.8374569002990387  0.9702309295909114  1.0000
  C   C45       1.0  0.890533599611061  0.3369936222393762  0.5294368790063402  1.0000
  C   C46       1.0  0.10946847479258542  0.16300419487771484  0.029437123749048093  1.0000
  C   C47       1.0  0.10947041072653722  0.6630046224618341  0.4705637003691194  1.0000
  C   C48       1.0  0.890534324858777  0.8369954417355813  0.9705639286637645  1.0000
  N   N1        1.0  0.4901024923594407  0.4302054398182947  0.7998821492482261  1.0000
  N   N2        1.0  0.5098982905948974  0.06979396412507552  0.2998823439558578  1.0000
  N   N3        1.0  0.5098963547969364  0.5697948900667386  0.20011701101638824  1.0000
  N   N4        1.0  0.49009647589130634  0.930205666047563  0.7001182354200493  1.0000
  N   N5        1.0  0.8041788935636378  0.4035954195671537  0.5595532723851447  1.0000
  N   N6        1.0  0.19582457479462795  0.09640311682120742  0.059553017656689584  1.0000
  N   N7        1.0  0.19582384200043634  0.5964035205533024  0.4404473069904568  1.0000
  N   N8        1.0  0.8041768859960003  0.903596518718324  0.9404470886819565  1.0000
  N   N9        1.0  0.17397908045731472  0.40474142772377775  0.56002868956255  1.0000
  N   N10       1.0  0.8260256625323597  0.09525641358830941  0.06002935112917378  1.0000
  N   N11       1.0  0.8260249939676997  0.5952575134699246  0.43997141677591844  1.0000
  N   N12       1.0  0.17397713711906707  0.9047432230248095  0.9399712282465413  1.0000
  O   O1        1.0  0.5054575740211293  0.40465064992980615  0.6756607093515041  1.0000
  O   O2        1.0  0.4945459237512326  0.09534866663194208  0.17566091337248219  1.0000
  O   O3        1.0  0.4945492422131182  0.5953489899030445  0.32433845091281194  1.0000
  O   O4        1.0  0.5054529234050096  0.9046516632534322  0.8243391929663415  1.0000
  O   O5        1.0  0.4660515978903349  0.2620999943527381  0.633489901649426  1.0000
  O   O6        1.0  0.5339466211193696  0.23789998401483103  0.13349015179014856  1.0000
  O   O7        1.0  0.5339458463178205  0.7378996379662157  0.36650925861510325  1.0000
  O   O8        1.0  0.4660389015155177  0.762101031629058  0.8665099545491016  1.0000
  O   O9        1.0  0.5035314935239941  0.061156700293040024  0.9388447773188983  1.0000
  O   O10       1.0  0.4964706508801769  0.4388435013689575  0.43884462377272365  1.0000
  O   O11       1.0  0.4964687565804625  0.9388443271584068  0.06115532902001058  1.0000
  O   O12       1.0  0.5035294710495108  0.5611561330973346  0.5611559556030555  1.0000
  O   O13       1.0  0.5195311513739256  0.20548888990814623  0.9783296811990422  1.0000
  O   O14       1.0  0.48047091715151435  0.29451064371858854  0.4783294798421948  1.0000
  O   O15       1.0  0.4804703735040547  0.7945114421240479  0.021670425139717495  1.0000
  O   O16       1.0  0.5195318824999833  0.7054889928943597  0.5216706264964229  1.0000
  O   O17       1.0  0.6349264719545433  0.47479281066014783  0.8059715599902189  1.0000
  O   O18       1.0  0.3650770509904788  0.025207296311272415  0.30597127341533786  1.0000
  O   O19       1.0  0.365073714062703  0.5252075202982882  0.1940276002743673  1.0000
  O   O20       1.0  0.6349205854795914  0.9747944254860033  0.6940288329237416  1.0000
  O   O21       1.0  0.3408751923341243  0.4635727837465782  0.7966749667867956  1.0000
  O   O22       1.0  0.6591283333870027  0.03642731652497841  0.2966756163458299  1.0000
  O   O23       1.0  0.65912225187396  0.5364268485725461  0.20332466651483824  1.0000
  O   O24       1.0  0.3408704496818801  0.963572316867726  0.7033244899928801  1.0000
