data_image0
_chemical_formula_structural       Zn2H22C36N6O8
_chemical_formula_sum              "Zn2 H22 C36 N6 O8"
_cell_length_a       10.15110736504673
_cell_length_b       11.418803593000568
_cell_length_c       13.990422327037265
_cell_angle_alpha    90.00000704201167
_cell_angle_beta     101.83771947339739
_cell_angle_gamma    90.00003329420767

_space_group_name_H-M_alt    "P 1"
_space_group_IT_number       1

loop_
  _space_group_symop_operation_xyz
  'x, y, z'

loop_
  _atom_site_type_symbol
  _atom_site_label
  _atom_site_symmetry_multiplicity
  _atom_site_fract_x
  _atom_site_fract_y
  _atom_site_fract_z
  _atom_site_occupancy
  Zn  Zn1       1.0  0.6265941412164935  1.9187545059999998e-07  0.3969124056957297  1.0000
  Zn  Zn2       1.0  0.37340623200562834  0.9999998273911573  0.603088254139564  1.0000
  H   H1        1.0  0.08442350384771663  5.283241219999999e-08  0.41046770070810357  1.0000
  H   H2        1.0  0.9155765141003016  2.8109047889999995e-07  0.589532141503909  1.0000
  H   H3        1.0  0.8397405612779921  0.999999911350379  0.11992207438476037  1.0000
  H   H4        1.0  0.16025880660496483  1.8594128335e-06  0.8800770058427645  1.0000
  H   H5        1.0  0.27281025057283165  8.25845916e-08  0.1601703114208775  1.0000
  H   H6        1.0  0.7271891167193232  0.9999999366816965  0.8398294834932114  1.0000
  H   H7        1.0  0.46568249967467784  0.1971320024683365  0.28310238320209175  1.0000
  H   H8        1.0  0.5343176585777556  0.19713205298491937  0.7168974995940756  1.0000
  H   H9        1.0  0.534317874728103  0.8028688925466553  0.716896847259811  1.0000
  H   H10       1.0  0.46568271464467165  0.8028688420301863  0.28310316024130333  1.0000
  H   H11       1.0  0.45797153959362197  0.4138692423233792  0.27839901550058227  1.0000
  H   H12       1.0  0.5420287735071271  0.4138692975350722  0.7216001972292218  1.0000
  H   H13       1.0  0.5420288342186766  0.5861307769431789  0.7216009296479697  1.0000
  H   H14       1.0  0.4579726074154921  0.5861307217317062  0.2783991834670516  1.0000
  H   H15       1.0  0.7920088193248419  0.41171325467799136  0.5276671511694743  1.0000
  H   H16       1.0  0.2079914916511783  0.4117130996175503  0.47233277580318855  1.0000
  H   H17       1.0  0.20799155389696722  0.5882858888401329  0.47233350866572704  1.0000
  H   H18       1.0  0.7920078750504873  0.5882860439002967  0.5276677337975427  1.0000
  H   H19       1.0  0.7833879718452155  0.19468263393945756  0.5201947204519256  1.0000
  H   H20       1.0  0.21661117814372233  0.19468248446251124  0.4798050116054993  1.0000
  H   H21       1.0  0.21661139544693958  0.8053173853268305  0.4798050744621633  1.0000
  H   H22       1.0  0.7833881885582488  0.8053175348038265  0.5201954979953313  1.0000
  C   C1        1.0  0.3304703862256845  1.1253864330000004e-07  0.35940789733111694  1.0000
  C   C2        1.0  0.6695269650749723  0.9999990309788844  0.640595170547641  1.0000
  C   C3        1.0  0.19399126693645743  7.22411713e-08  0.29273874233558667  1.0000
  C   C4        1.0  0.8060097575317116  2.616819899e-07  0.7072612501108821  1.0000
  C   C5        1.0  0.07733445444379332  4.5036443899999995e-08  0.33154772866118515  1.0000
  C   C6        1.0  0.9226655640944017  2.888863904e-07  0.6684513988640928  1.0000
  C   C7        1.0  0.9499453099592615  2.6574407739999984e-07  0.2689927899859227  1.0000
  C   C8        1.0  0.05005370205941522  1.8196754680999997e-06  0.7310061873050626  1.0000
  C   C9        1.0  0.8253597165002946  0.9999999220926836  0.31121722755654696  1.0000
  C   C10       1.0  0.1746406579024935  9.729223152e-07  0.6887820029053557  1.0000
  C   C11       1.0  0.93885299345731  1.1309896806e-06  0.16794054922382878  1.0000
  C   C12       1.0  0.06114803101116452  7.868197119999998e-08  0.8320594432227394  1.0000
  C   C13       1.0  0.055926386123587704  2.4190839599999997e-08  0.12890799828973334  1.0000
  C   C14       1.0  0.9440729817584314  0.9999991193269084  0.8710910819375214  1.0000
  C   C15       1.0  0.18284890771268184  9.374473534999999e-07  0.19133594021621284  1.0000
  C   C16       1.0  0.81715146550944  0.9999990818192614  0.8086647196190737  1.0000
  C   C17       1.0  0.5355000063885812  0.24930999525844302  0.335924592281394  1.0000
  C   C18       1.0  0.4645001890007308  0.24931087746510633  0.6640753012569006  1.0000
  C   C19       1.0  0.4645003674237175  0.750690024008115  0.6640753528671581  1.0000
  C   C20       1.0  0.5355011907415276  0.7506891418017789  0.33592550881284916  1.0000
  C   C21       1.0  0.532545814203509  0.370896287434185  0.3343843282108025  1.0000
  C   C22       1.0  0.4674544677219501  0.3708962956516046  0.6656155903587616  1.0000
  C   C23       1.0  0.46745556553906215  0.6291046075811905  0.6656164818590398  1.0000
  C   C24       1.0  0.5325459060903412  0.6291037236149535  0.33438435478979045  1.0000
  C   C25       1.0  0.6245775836031058  0.4350589052750706  0.403496859366811  1.0000
  C   C26       1.0  0.37542374991900124  0.4350597312426316  0.596503937333395  1.0000
  C   C27       1.0  0.3754237967296491  0.5649419897402482  0.5965032360162963  1.0000
  C   C28       1.0  0.6245776298235696  0.564941163772744  0.4034968727364399  1.0000
  C   C29       1.0  0.7165707985594525  0.3695582016620377  0.4717001539951297  1.0000
  C   C30       1.0  0.28342948182375244  0.3695589697879739  0.5283004789857769  1.0000
  C   C31       1.0  0.2834275616217496  0.6304400661070559  0.5283002053710532  1.0000
  C   C32       1.0  0.7165718979178878  0.6304392979819297  0.47170033108379517  1.0000
  C   C33       1.0  0.7129826561746742  0.24786331462895816  0.4685506457384817  1.0000
  C   C34       1.0  0.2870165310743219  0.2478632093361313  0.5314498119541539  1.0000
  C   C35       1.0  0.2870167111174737  0.7521367046373301  0.5314491491756002  1.0000
  C   C36       1.0  0.7129828350371669  0.7521359341817729  0.4685514123333191  1.0000
  N   N1        1.0  0.057584561225610315  0.9999988265788816  0.027879818739755497  1.0000
  N   N2        1.0  0.942416169040513  0.9999991265343129  0.9721195146584163  1.0000
  N   N3        1.0  0.6236122698627611  0.18832902844461327  0.40210119240690995  1.0000
  N   N4        1.0  0.37638788212430546  0.18832897937303272  0.5978986885769542  1.0000
  N   N5        1.0  0.37638810453970717  0.8116709908218949  0.5978980380549073  1.0000
  N   N6        1.0  0.6236124910978093  0.8116710398935824  0.4021019712583324  1.0000
  O   O1        1.0  0.4320516904750775  1.3566484109999994e-07  0.3181664540994332  1.0000
  O   O2        1.0  0.5679476762268933  0.9999998836015039  0.6818340555013904  1.0000
  O   O3        1.0  0.3365982652634544  1.209915865e-07  0.4503062701961297  1.0000
  O   O4        1.0  0.6634017515042033  2.1293141120000001e-07  0.5496950013893596  1.0000
  O   O5        1.0  0.840034581867478  2.4760114309999995e-07  0.404642855257748  1.0000
  O   O6        1.0  0.1599644295603966  8.632147799999998e-08  0.5953568367198014  1.0000
  O   O7        1.0  0.7100234954767188  0.9999998880545249  0.255095374654381  1.0000
  O   O8        1.0  0.28997687833557967  1.3121203319999997e-07  0.7449045704941708  1.0000
