data_image0
_chemical_formula_structural       Co2H30C40S4N10O12
_chemical_formula_sum              "Co2 H30 C40 S4 N10 O12"
_cell_length_a       7.2331171069615845
_cell_length_b       11.161776132933424
_cell_length_c       14.218834116375183
_cell_angle_alpha    108.1558083625349
_cell_angle_beta     102.66098741143142
_cell_angle_gamma    96.40322588555011

_space_group_name_H-M_alt    "P 1"
_space_group_IT_number       1

loop_
  _space_group_symop_operation_xyz
  'x, y, z'

loop_
  _atom_site_type_symbol
  _atom_site_label
  _atom_site_symmetry_multiplicity
  _atom_site_fract_x
  _atom_site_fract_y
  _atom_site_fract_z
  _atom_site_occupancy
  Co  Co1       1.0  0.9999987852490759  9.471851853986221e-07  0.5000008126981541  1.0000
  Co  Co2       1.0  6.300339556721051e-06  0.500003683101184  0.5000001817733803  1.0000
  H   H1        1.0  0.4037921109155391  0.13492587796405076  0.5869398530498628  1.0000
  H   H2        1.0  0.5962045939852703  0.8650727129282104  0.4130578163878981  1.0000
  H   H3        1.0  0.6190042253841243  0.2588632699857527  0.7602134630689649  1.0000
  H   H4        1.0  0.380996466416839  0.7411343806767121  0.239784405088912  1.0000
  H   H5        1.0  0.4809646177442061  0.2999970989905236  0.9137994074361087  1.0000
  H   H6        1.0  0.5190335754030216  0.6999967003963407  0.08619723779805354  1.0000
  H   H7        1.0  0.9345115095337845  0.0836112340757467  0.7034045289144969  1.0000
  H   H8        1.0  0.06547963290276466  0.9163825188809083  0.2965948586644628  1.0000
  H   H9        1.0  0.4144392210009613  0.56187501095728  0.5946659852864045  1.0000
  H   H10       1.0  0.585566824940031  0.4381265002106645  0.4053348235959291  1.0000
  H   H11       1.0  0.6361809411649447  0.5855976916458375  0.7633968238571072  1.0000
  H   H12       1.0  0.3638211354769041  0.4144047550808097  0.2366051936744498  1.0000
  H   H13       1.0  0.4954376743975857  0.5643804573650967  0.9051068934740769  1.0000
  H   H14       1.0  0.5045677887855929  0.4356239230895369  0.09489667202755922  1.0000
  H   H15       1.0  0.9305589157538917  0.4928162518216012  0.6959622365293895  1.0000
  H   H16       1.0  0.06944592066896152  0.5071910095974701  0.3040405671682151  1.0000
  H   H17       1.0  0.8641007340939667  0.18272246251000715  0.9387725649296285  1.0000
  H   H18       1.0  0.1358951005202584  0.8172780412587741  0.06122618683109951  1.0000
  H   H19       1.0  0.8732660909913931  0.47645818013416635  0.9267947653629065  1.0000
  H   H20       1.0  0.1267382572786744  0.5235423653375619  0.07320491769205968  1.0000
  H   H21       1.0  0.7982055292690332  0.9092464094565429  0.7401532362701816  1.0000
  H   H22       1.0  0.20178958246665957  0.0907464079414169  0.2598449426595622  1.0000
  H   H23       1.0  0.46667476650707584  0.9054828230338714  0.639888867813866  1.0000
  H   H24       1.0  0.5333214249397003  0.0945138386891884  0.36011037882388314  1.0000
  H   H25       1.0  0.19033008034990223  0.881384673003474  0.7178711656054872  1.0000
  H   H26       1.0  0.8096680522940575  0.11861392250372664  0.2821273627326448  1.0000
  H   H27       1.0  0.5998598512099704  0.8596524523393967  0.9797170269608131  1.0000
  H   H28       1.0  0.4001300641074296  0.1403470555394861  0.020282948064085794  1.0000
  H   H29       1.0  0.9349757627750535  0.886246409563647  0.8912578080829974  1.0000
  H   H30       1.0  0.06501475290116332  0.11375022435744604  0.10874081769193822  1.0000
  C   C1        1.0  0.20410381143323522  0.7351749341904252  0.4769864334711613  1.0000
  C   C2        1.0  0.7959100344984904  0.2648343027719021  0.523014316951361  1.0000
  C   C3        1.0  0.847321113277964  0.7823732795341556  0.5635001716484496  1.0000
  C   C4        1.0  0.15268041360756973  0.21762246759399065  0.4364937994477955  1.0000
  C   C5        1.0  0.3483053035484005  0.15286601512083559  0.6541841096404326  1.0000
  C   C6        1.0  0.65169145415544  0.84713256175813  0.34581778190532486  1.0000
  C   C7        1.0  0.4677315133079887  0.2232078160244768  0.7518761670313622  1.0000
  C   C8        1.0  0.5322712241959452  0.7767869606240441  0.24812261814625466  1.0000
  C   C9        1.0  0.3916608002068926  0.24540798609386627  0.8361934416042373  1.0000
  C   C10       1.0  0.6083374193418508  0.7545858062863502  0.16380531468391976  1.0000
  C   C11       1.0  0.19589925566989308  0.19589614208999248  0.8188508596934696  1.0000
  C   C12       1.0  0.8040992514076278  0.8040986067003998  0.18114957089102285  1.0000
  C   C13       1.0  0.08610308474136019  0.12395761208956196  0.7189185016640636  1.0000
  C   C14       1.0  0.9138920445953358  0.8760352006372968  0.28108108463500503  1.0000
  C   C15       1.0  0.10479596716099591  0.2195109812647331  0.9056644410585689  1.0000
  C   C16       1.0  0.8952013645001456  0.7804847286630973  0.09433399018322318  1.0000
  C   C17       1.0  0.3579692398562173  0.5511229072691107  0.6570438506005658  1.0000
  C   C18       1.0  0.64203646685322  0.44888244127344723  0.3429578707740717  1.0000
  C   C19       1.0  0.4805140685158378  0.5642974555589149  0.7514570681712343  1.0000
  C   C20       1.0  0.5194864934780838  0.43570978967977675  0.24854386250991922  1.0000
  C   C21       1.0  0.40260615402527117  0.5524047020937956  0.8299804431393338  1.0000
  C   C22       1.0  0.5973981425420335  0.44760063716272214  0.1700218267042715  1.0000
  C   C23       1.0  0.2012914196040256  0.5268754220024829  0.8107470201853175  1.0000
  C   C24       1.0  0.7987128681627739  0.47312991958958855  0.18925454597361838  1.0000
  C   C25       1.0  0.08702059793125018  0.5134397141224267  0.7135710455846436  1.0000
  C   C26       1.0  0.912985648633736  0.48656755658268475  0.2864312096440074  1.0000
  C   C27       1.0  0.11307345616355495  0.5164987338907779  0.8938506359429182  1.0000
  C   C28       1.0  0.8869274538624123  0.48350467163775324  0.10615008593060789  1.0000
  C   C29       1.0  0.6747206519527891  0.897930089574025  0.7706936180666943  1.0000
  C   C30       1.0  0.3252712826660654  0.10206655129756112  0.2293051629239429  1.0000
  C   C31       1.0  0.4900468511874934  0.8970174892964734  0.7156815481544854  1.0000
  C   C32       1.0  0.5099501500426058  0.1029820556704237  0.2843184992642803  1.0000
  C   C33       1.0  0.33767306239971623  0.8842667533767777  0.7589505063716826  1.0000
  C   C34       1.0  0.6623213884738844  0.11573373409930811  0.24105090491200087  1.0000
  C   C35       1.0  0.3769750854763743  0.8728681082521134  0.8563436422813453  1.0000
  C   C36       1.0  0.6230179376540831  0.12713237460902596  0.1436569101019671  1.0000
  C   C37       1.0  0.566837628378117  0.8720455848343672  0.905345814118256  1.0000
  C   C38       1.0  0.4331534359541537  0.12795296891373203  0.09465404919534141  1.0000
  C   C39       1.0  0.22176966948388357  0.8600358386594635  0.9082251915848545  1.0000
  C   C40       1.0  0.7782219083024132  0.13996464425783733  0.09177309452875453  1.0000
  S   S1        1.0  0.2733610704482033  0.8681551935575769  0.4593661042952917  1.0000
  S   S2        1.0  0.7266495972664232  0.13185308710688298  0.5406284392914884  1.0000
  S   S3        1.0  0.7816218488232495  0.6512979994138846  0.5843340930101989  1.0000
  S   S4        1.0  0.21837997549183544  0.3487034815603849  0.4156690649636801  1.0000
  N   N1        1.0  0.1521448766458775  0.6402178854248958  0.49221438676453727  1.0000
  N   N2        1.0  0.8478691952110893  0.3597923242964497  0.5077831121616541  1.0000
  N   N3        1.0  0.8985811713414121  0.8782678671789057  0.5491620727309936  1.0000
  N   N4        1.0  0.1014228640986303  0.12173650866078838  0.4508406338702713  1.0000
  N   N5        1.0  0.1605129539244246  0.1021995557925166  0.6376163436368216  1.0000
  N   N6        1.0  0.8394823936372761  0.8977990118004088  0.36238609637789654  1.0000
  N   N7        1.0  0.16335268155697247  0.5250926626324883  0.6376036981783385  1.0000
  N   N8        1.0  0.8366518673370961  0.4749136423764071  0.36239743122293794  1.0000
  N   N9        1.0  0.7135554016784127  0.8847750494130651  0.863530291201613  1.0000
  N   N10       1.0  0.28643680286821643  0.11522255253979809  0.1364687567160274  1.0000
  O   O1        1.0  0.9153731068989686  0.17293616456712607  0.8755797100989041  1.0000
  O   O2        1.0  0.08462619236086513  0.8270614721381974  0.12442011389726557  1.0000
  O   O3        1.0  0.19688134358279546  0.27727207823178196  0.9957685262657989  1.0000
  O   O4        1.0  0.8031191046919092  0.7227246043427513  0.0042311860190694574  1.0000
  O   O5        1.0  0.9226917085912447  0.4796702797516445  0.8649652618700473  1.0000
  O   O6        1.0  0.07731486840479104  0.5203331559144002  0.13503537718163014  1.0000
  O   O7        1.0  0.2138908048742252  0.5401105647424272  0.9828792156850027  1.0000
  O   O8        1.0  0.78611524106676  0.45989094642551703  0.017121593197337876  1.0000
  O   O9        1.0  0.06841971990518657  0.9009843454418341  0.8716676118167541  1.0000
  O   O10       1.0  0.9315736424568187  0.09901230004469139  0.1283320280742544  1.0000
  O   O11       1.0  0.24609838603171139  0.8157539098773084  0.9792919542176649  1.0000
  O   O12       1.0  0.7538930351331103  0.18424080182506938  0.02070840397296084  1.0000
