data_image0
_chemical_formula_structural       Rb4H24C36Cl16O12
_chemical_formula_sum              "Rb4 H24 C36 Cl16 O12"
_cell_length_a       7.699387835820998
_cell_length_b       10.517486503837649
_cell_length_c       17.109827948002646
_cell_angle_alpha    90.0000159914417
_cell_angle_beta     90.00005707818632
_cell_angle_gamma    103.77814859030251

_space_group_name_H-M_alt    "P 1"
_space_group_IT_number       1

loop_
  _space_group_symop_operation_xyz
  'x, y, z'

loop_
  _atom_site_type_symbol
  _atom_site_label
  _atom_site_symmetry_multiplicity
  _atom_site_fract_x
  _atom_site_fract_y
  _atom_site_fract_z
  _atom_site_occupancy
  Rb  Rb1       1.0  0.4360093433848889  0.7972827884044804  0.2331784344743538  1.0000
  Rb  Rb2       1.0  0.06398881101405611  0.20271731638856488  0.7331774809237144  1.0000
  Rb  Rb3       1.0  0.5639883602586052  0.2027181535503785  0.7668202472185539  1.0000
  Rb  Rb4       1.0  0.9360114436742251  0.7972875457504285  0.2668182784730532  1.0000
  H   H1        1.0  0.3672486781984857  0.4714270822356922  0.3254323862297141  1.0000
  H   H2        1.0  0.13274970390704507  0.5285731030528991  0.8254309368170635  1.0000
  H   H3        1.0  0.6327497002404597  0.5285719061623267  0.6745715555978931  1.0000
  H   H4        1.0  0.8672571012035702  0.4714278693939988  0.17457242055321834  1.0000
  H   H5        1.0  0.2505324306078407  0.43187865488414445  0.4163999571258754  1.0000
  H   H6        1.0  0.2494675256070097  0.5681177026592934  0.9163979832333096  1.0000
  H   H7        1.0  0.7494656351183052  0.5681193545554349  0.5836016468639256  1.0000
  H   H8        1.0  0.7505403163687207  0.43187838371089504  0.08360303629913088  1.0000
  H   H9        1.0  0.1969305207633525  0.3228127047469655  0.3379964584684173  1.0000
  H   H10       1.0  0.30306596672663494  0.6771855292343429  0.8379962815015742  1.0000
  H   H11       1.0  0.8030682197510258  0.6771833511332229  0.6620045610619483  1.0000
  H   H12       1.0  0.6969372504661564  0.322816409102323  0.16200590694914743  1.0000
  H   H13       1.0  0.822840419437419  0.5086079188906393  0.3398329884551002  1.0000
  H   H14       1.0  0.6771570630287227  0.4913900124569252  0.8398292148311979  1.0000
  H   H15       1.0  0.17715702087036078  0.49138813263459685  0.6601697844532095  1.0000
  H   H16       1.0  0.3228468783185505  0.5086060608453593  0.16017005132211173  1.0000
  H   H17       1.0  0.8599686116573153  0.3483013057913383  0.3539804073300345  1.0000
  H   H18       1.0  0.6400305186492545  0.6516976212143957  0.8539783984398992  1.0000
  H   H19       1.0  0.140027528439532  0.6516947413774188  0.6460206121997414  1.0000
  H   H20       1.0  0.359979248954332  0.34830042742609624  0.14602203663373806  1.0000
  H   H21       1.0  0.9277927539458942  0.4657926518261134  0.4269233056630596  1.0000
  H   H22       1.0  0.5722046307722692  0.5342043765542639  0.9269194919024809  1.0000
  H   H23       1.0  0.07220307344177002  0.5342024163854758  0.5730782983259742  1.0000
  H   H24       1.0  0.427800610783045  0.4657917011034769  0.07307918979171288  1.0000
  C   C1        1.0  0.7862329869224283  0.9658937008231373  0.08521678384894217  1.0000
  C   C2        1.0  0.7137673562701464  0.0341108654209279  0.5852199598676504  1.0000
  C   C3        1.0  0.21376909465327287  0.03412094653334919  0.9147766377114477  1.0000
  C   C4        1.0  0.2862298206910907  0.9658802956708711  0.4147781373648697  1.0000
  C   C5        1.0  0.6874540992952947  0.9112711615623394  0.015213130407396094  1.0000
  C   C6        1.0  0.8125278681849152  0.08873328261961426  0.5152146075288895  1.0000
  C   C7        1.0  0.3125349308308357  0.08874735371353638  0.9847861357445066  1.0000
  C   C8        1.0  0.18746478273526188  0.9112559074919772  0.4847875809183149  1.0000
  C   C9        1.0  0.7105661249992395  0.9751439151647217  0.9445760810070494  1.0000
  C   C10       1.0  0.7894329655913026  0.024850200462203997  0.4445826765926099  1.0000
  C   C11       1.0  0.2894409434398852  0.0248619477092475  0.05541734055370278  1.0000
  C   C12       1.0  0.21056067282989946  0.9751380150484363  0.5554212652329723  1.0000
  C   C13       1.0  0.8339316868991345  0.1032860557499689  0.9344175432270274  1.0000
  C   C14       1.0  0.6660634286192463  0.8967119494190355  0.4344218984177174  1.0000
  C   C15       1.0  0.16606305424922851  0.8967178100105284  0.06558230738428958  1.0000
  C   C16       1.0  0.333936348771779  0.10327922038852218  0.5655861346254125  1.0000
  C   C17       1.0  0.9235861603711867  0.16137557986165516  0.005296595171081699  1.0000
  C   C18       1.0  0.5764117472202414  0.8386259754209815  0.5053010193429444  1.0000
  C   C19       1.0  0.07641341952886199  0.838631235836729  0.9946997486851143  1.0000
  C   C20       1.0  0.4235941691283571  0.16136814867915916  0.4947011691077135  1.0000
  C   C21       1.0  0.9017402730120168  0.09644157831344559  0.07608455522522917  1.0000
  C   C22       1.0  0.5982574472209451  0.9035629712504374  0.5760866629139016  1.0000
  C   C23       1.0  0.09825436939662778  0.903570110394497  0.9239141264679345  1.0000
  C   C24       1.0  0.40175169496643537  0.09643311947648667  0.4239166944564871  1.0000
  C   C25       1.0  0.09667248960572299  0.49481877480877057  0.3256555903309176  1.0000
  C   C26       1.0  0.40332558033736626  0.5051804317159351  0.825651337410221  1.0000
  C   C27       1.0  0.9033242759102151  0.5051792302745851  0.6743448447397566  1.0000
  C   C28       1.0  0.596680912057579  0.4948195617714998  0.17434734428460524  1.0000
  C   C29       1.0  0.2378991385449823  0.42772028303114246  0.3524051549172709  1.0000
  C   C30       1.0  0.26209868471676157  0.5722779678775965  0.8524037719544066  1.0000
  C   C31       1.0  0.7620960140530071  0.572276738739326  0.6475958646123628  1.0000
  C   C32       1.0  0.7379104080993173  0.4277220343225422  0.14759783203807328  1.0000
  C   C33       1.0  0.915524710159495  0.4536860745641816  0.363179820385433  1.0000
  C   C34       1.0  0.5844728299327713  0.5463118771545367  0.863176014328857  1.0000
  C   C35       1.0  0.08447371764497552  0.5463090023585834  0.6368211991447763  1.0000
  C   C36       1.0  0.4155333497522663  0.4536871373754749  0.13682266736580564  1.0000
  Cl  Cl1       1.0  0.5326557469463182  0.7651662628116823  0.027266388864838093  1.0000
  Cl  Cl2       1.0  0.9673409146600987  0.23483530728363175  0.5272679620254903  1.0000
  Cl  Cl3       1.0  0.46734602192596947  0.23484740558968298  0.972732292830116  1.0000
  Cl  Cl4       1.0  0.032652361677726664  0.7651558407420394  0.47273247304379123  1.0000
  Cl  Cl5       1.0  0.5882578602281966  0.9122633095732551  0.8636295879039434  1.0000
  Cl  Cl6       1.0  0.9117289666042223  0.08773362873831297  0.3636339122762988  1.0000
  Cl  Cl7       1.0  0.41172876695550537  0.08773955109476358  0.13636850932720523  1.0000
  Cl  Cl8       1.0  0.08826072182299077  0.9122584851796773  0.6363711984675573  1.0000
  Cl  Cl9       1.0  0.04501997547326649  0.32043725756611247  0.9970229221106944  1.0000
  Cl  Cl10      1.0  0.4549853312171592  0.6795630992251842  0.49702970815022923  1.0000
  Cl  Cl11      1.0  0.9549831923395685  0.6795685922407059  0.0029704994491765993  1.0000
  Cl  Cl12      1.0  0.5450192849255585  0.3204310205202603  0.5029748181377796  1.0000
  Cl  Cl13      1.0  0.9971576739238015  0.1703284436514494  0.16044954629658995  1.0000
  Cl  Cl14      1.0  0.5028447805946855  0.8296781505082222  0.6604551043934348  1.0000
  Cl  Cl15      1.0  0.0028401943142597696  0.8296852116799652  0.8395427063439269  1.0000
  Cl  Cl16      1.0  0.4971601482550553  0.17031694819362994  0.33954708405707373  1.0000
  O   O1        1.0  0.7638378371491824  0.907055124498761  0.14997896776623065  1.0000
  O   O2        1.0  0.7361561154799645  0.09295338794841256  0.6499815798551294  1.0000
  O   O3        1.0  0.23615836880394875  0.09296145899451595  0.8500156227118222  1.0000
  O   O4        1.0  0.2638413248227637  0.9070426635750407  0.35001710183728807  1.0000
  O   O5        1.0  0.8521372350757517  0.16223968096520736  0.8696682164754106  1.0000
  O   O6        1.0  0.647857671252815  0.8377621791802664  0.3696707996402821  1.0000
  O   O7        1.0  0.14785885564980117  0.8377602776767643  0.13033104967646375  1.0000
  O   O8        1.0  0.3521416946842563  0.16223583461578528  0.630332557728053  1.0000
  O   O9        1.0  0.12761312794989269  0.5798646308226123  0.2741775886606205  1.0000
  O   O10       1.0  0.3723866911890923  0.4201404045289577  0.774171553336657  1.0000
  O   O11       1.0  0.8723881636157599  0.42013534524400586  0.7258257687083185  1.0000
  O   O12       1.0  0.6276193897540594  0.5798664329477389  0.22582420606160974  1.0000
