data_image0
_chemical_formula_structural       Cd4H32C24I8N8
_chemical_formula_sum              "Cd4 H32 C24 I8 N8"
_cell_length_a       6.466727487031197
_cell_length_b       7.847985252600961
_cell_length_c       19.916046287772133
_cell_angle_alpha    100.97298044386078
_cell_angle_beta     89.99967989792506
_cell_angle_gamma    90.00020967124232

_space_group_name_H-M_alt    "P 1"
_space_group_IT_number       1

loop_
  _space_group_symop_operation_xyz
  'x, y, z'

loop_
  _atom_site_type_symbol
  _atom_site_label
  _atom_site_symmetry_multiplicity
  _atom_site_fract_x
  _atom_site_fract_y
  _atom_site_fract_z
  _atom_site_occupancy
  Cd  Cd1       1.0  0.29693358556480115  0.5613300867978311  0.7282830123656441  1.0000
  Cd  Cd2       1.0  0.7969396929905201  0.9386760495204098  0.771714473853848  1.0000
  Cd  Cd3       1.0  0.7030622048842046  0.4386704057413766  0.2717174723259532  1.0000
  Cd  Cd4       1.0  0.20306692213086558  0.0613283230561308  0.22828328654595964  1.0000
  H   H1        1.0  0.3845215348961801  0.20449362736138002  0.6787507823263539  1.0000
  H   H2        1.0  0.8845246012146148  0.29551986801049424  0.8212499839262366  1.0000
  H   H3        1.0  0.6154835338013028  0.7955081723252136  0.3212518079393761  1.0000
  H   H4        1.0  0.11548201388135482  0.7044845183617171  0.1787507901497563  1.0000
  H   H5        1.0  0.13006983864300278  0.2225324908674224  0.6796016295155951  1.0000
  H   H6        1.0  0.630074382748589  0.27747398245652727  0.8203990846307008  1.0000
  H   H7        1.0  0.8699305909142793  0.7774667152324782  0.3204012701043838  1.0000
  H   H8        1.0  0.3699291396057731  0.7225329951950102  0.17960087781820994  1.0000
  H   H9        1.0  0.2669399912382886  0.8522425775434356  0.6316906011039621  1.0000
  H   H10       1.0  0.7669353979793384  0.6477583111486354  0.868308056816673  1.0000
  H   H11       1.0  0.733058891948083  0.1477553260157265  0.36831119749408714  1.0000
  H   H12       1.0  0.23305884613078115  0.3522473570562425  0.13168929777874894  1.0000
  H   H13       1.0  0.2495428000099409  0.8732075920286988  0.5072702473796371  1.0000
  H   H14       1.0  0.7495452875250873  0.6267893618533122  0.9927271459972787  1.0000
  H   H15       1.0  0.7504529904285278  0.126794205348908  0.49273184061456743  1.0000
  H   H16       1.0  0.25044895657615024  0.3732059182285282  0.007268432323307601  1.0000
  H   H17       1.0  0.23861619993603966  0.5959844325495497  0.4197928769001039  1.0000
  H   H18       1.0  0.738611464635241  0.9040136891118777  0.0802058806267283  1.0000
  H   H19       1.0  0.761395054276676  0.404018662784793  0.5802093075455375  1.0000
  H   H20       1.0  0.26137968667769934  0.09598160936096181  0.9197937159313768  1.0000
  H   H21       1.0  0.24374764074769928  0.3130451147336046  0.45942872376249266  1.0000
  H   H22       1.0  0.7437534013862928  0.1869536853886515  0.04056895264293559  1.0000
  H   H23       1.0  0.7562543352315244  0.686960562676475  0.5405706399438445  1.0000
  H   H24       1.0  0.25623620356657983  0.8130468002462549  0.9594300252158094  1.0000
  H   H25       1.0  0.131596972342237  0.18500344388483816  0.5676018214885518  1.0000
  H   H26       1.0  0.6316013440212486  0.31499654523037884  0.93239891003266  1.0000
  H   H27       1.0  0.868406549967183  0.814991866097337  0.43240028645590917  1.0000
  H   H28       1.0  0.36840681744986625  0.68500914138329  0.0676024627858993  1.0000
  H   H29       1.0  0.4047011105756368  0.193097984662046  0.569118509203854  1.0000
  H   H30       1.0  0.9047085634100539  0.30690127558661123  0.9308811618164939  1.0000
  H   H31       1.0  0.5953008653545098  0.8068986255583541  0.43088419748579554  1.0000
  H   H32       1.0  0.09529805168364901  0.6930992146646416  0.06911882058659562  1.0000
  C   C1        1.0  0.26181073261655996  0.7367845292679007  0.5914210557634547  1.0000
  C   C2        1.0  0.7618090829662733  0.7632137436179249  0.9085754087805782  1.0000
  C   C3        1.0  0.7381927896801557  0.2632107876121097  0.40858255901910223  1.0000
  C   C4        1.0  0.23818825388752168  0.23678803306778917  0.0914221586980446  1.0000
  C   C5        1.0  0.2523459616922564  0.7471665970131909  0.5227174285580318  1.0000
  C   C6        1.0  0.7523461968593279  0.7528277576528097  0.9772777580348234  1.0000
  C   C7        1.0  0.7476591070114225  0.2528313019538828  0.4772833654760618  1.0000
  C   C8        1.0  0.24764804724201633  0.24717012060943233  0.022718515494155204  1.0000
  C   C9        1.0  0.24612958018338557  0.5932055880703544  0.4742985931918541  1.0000
  C   C10       1.0  0.7461257781094945  0.9067925447124807  0.025699147072124628  1.0000
  C   C11       1.0  0.7538801276305305  0.40678712603717315  0.5257033218183552  1.0000
  C   C12       1.0  0.2538669195912889  0.0932040471039812  0.9742995413904652  1.0000
  C   C13       1.0  0.24913982920313063  0.43542343742161194  0.4961691124580554  1.0000
  C   C14       1.0  0.7491379156996343  0.06457407373395091  0.0038279560930619006  1.0000
  C   C15       1.0  0.7508652395261706  0.5645796441105871  0.5038300583166375  1.0000
  C   C16       1.0  0.25085323563261847  0.9354277098431327  0.9961711182288798  1.0000
  C   C17       1.0  0.2588118253796381  0.4349647186884055  0.5663066792425795  1.0000
  C   C18       1.0  0.7588119331352559  0.06503552507628999  0.9336913257952519  1.0000
  C   C19       1.0  0.7411886042052203  0.5650357715563741  0.43369330316573956  1.0000
  C   C20       1.0  0.24118695007880575  0.9349662608081601  0.06630825079952271  1.0000
  C   C21       1.0  0.2645390075005096  0.26308789638193275  0.5904571358249556  1.0000
  C   C22       1.0  0.7645434061151092  0.23690847014615457  0.9095415746911257  1.0000
  C   C23       1.0  0.7354614220672102  0.7369074066991743  0.4095434652840312  1.0000
  C   C24       1.0  0.23546166259932017  0.7630933203433157  0.09045900645715221  1.0000
  I   I1        1.0  0.2621959832393301  0.46395099314397464  0.8594147582633341  1.0000
  I   I2        1.0  0.7622132784731831  0.03604795517969  0.6405821400149136  1.0000
  I   I3        1.0  0.7377905289485865  0.5360507973260908  0.1405858229006256  1.0000
  I   I4        1.0  0.2377871511304832  0.9639460292673477  0.35941384411528793  1.0000
  I   I5        1.0  0.2670765658208225  0.9338427728615102  0.7786182450391267  1.0000
  I   I6        1.0  0.7670663466667093  0.5661607073929672  0.7213796010256532  1.0000
  I   I7        1.0  0.7329269565269312  0.06615771278795529  0.2213807328078445  1.0000
  I   I8        1.0  0.23292480465914167  0.4338397805428258  0.2786198791111474  1.0000
  N   N1        1.0  0.2650916152943593  0.5836449421270229  0.6124656987489346  1.0000
  N   N2        1.0  0.7650941179012918  0.916352046584464  0.8875321706179734  1.0000
  N   N3        1.0  0.7349088142735597  0.4163555573148726  0.3875362927768364  1.0000
  N   N4        1.0  0.23490785807999967  0.0836523305857781  0.11246659434448965  1.0000
  N   N5        1.0  0.26387501215816656  0.27557827606550944  0.6648614807149968  1.0000
  N   N6        1.0  0.7638806098320005  0.22442977053970034  0.8351380991033537  1.0000
  N   N7        1.0  0.7361254174140939  0.724424819257507  0.33514070373980337  1.0000
  N   N8        1.0  0.23612291251379244  0.7755746135299972  0.16486217269589082  1.0000
