data_image0
_chemical_formula_structural       La2Ni2H32C24N6O24
_chemical_formula_sum              "La2 Ni2 H32 C24 N6 O24"
_cell_length_a       8.549007857425778
_cell_length_b       9.777071236229835
_cell_length_c       12.857053925354531
_cell_angle_alpha    67.65168316841034
_cell_angle_beta     81.00175872036144
_cell_angle_gamma    65.7310486399949

_space_group_name_H-M_alt    "P 1"
_space_group_IT_number       1

loop_
  _space_group_symop_operation_xyz
  'x, y, z'

loop_
  _atom_site_type_symbol
  _atom_site_label
  _atom_site_symmetry_multiplicity
  _atom_site_fract_x
  _atom_site_fract_y
  _atom_site_fract_z
  _atom_site_occupancy
  La  La1       1.0  0.7500350806770304  0.006063255902446961  0.9878031956951642  1.0000
  La  La2       1.0  0.24996509515960963  0.9939360584129485  0.012197000574431615  1.0000
  Ni  Ni1       1.0  0.25002330864349204  0.8369649157587344  0.3259447756433928  1.0000
  Ni  Ni2       1.0  0.749975687114997  0.16303529353305626  0.6740545174278904  1.0000
  H   H1        1.0  0.4127561094060895  0.8032195004044026  0.49831943746983126  1.0000
  H   H2        1.0  0.08721756482007972  0.6983704819832892  0.49838081286893726  1.0000
  H   H3        1.0  0.5872440641848871  0.196779038887726  0.5016815373841722  1.0000
  H   H4        1.0  0.9127814309384024  0.3016297273085085  0.5016184802023459  1.0000
  H   H5        1.0  0.6453342943215292  0.41267668433420107  0.2537654183635708  1.0000
  H   H6        1.0  0.8546090056757979  0.33359324561691733  0.25367990318417805  1.0000
  H   H7        1.0  0.35466774990650435  0.5873240709038255  0.7462345409017954  1.0000
  H   H8        1.0  0.1453906694132885  0.6664061994808463  0.7463213640222077  1.0000
  H   H9        1.0  0.5452554802564151  0.014777119811007796  0.37536774751110596  1.0000
  H   H10       1.0  0.9547899291646403  0.6097880624498941  0.37537176371156267  1.0000
  H   H11       1.0  0.4547441948326779  0.985222325286763  0.6246335196952798  1.0000
  H   H12       1.0  0.04521024891765545  0.39021202688876844  0.6246276539736254  1.0000
  H   H13       1.0  0.6237369546862228  0.816243005080075  0.3746102605977626  1.0000
  H   H14       1.0  0.8762508108685696  0.8090487657434334  0.37474418855286706  1.0000
  H   H15       1.0  0.3762655857980449  0.18375606932905691  0.6253901848996362  1.0000
  H   H16       1.0  0.1237488687118359  0.19095222940086393  0.6252555214846962  1.0000
  H   H17       1.0  0.19532335063538436  0.9972685063371639  0.5368365321354032  1.0000
  H   H18       1.0  0.30453968172830775  0.4657034145819237  0.5368929961422352  1.0000
  H   H19       1.0  0.8046768207099362  0.002729257931697728  0.46316522130301496  1.0000
  H   H20       1.0  0.6954609948558784  0.5342957689510965  0.4631061291905778  1.0000
  H   H21       1.0  0.2904712347377228  0.12733767980781602  0.43896163786718734  1.0000
  H   H22       1.0  0.20947329189694847  0.43362770039887977  0.43897019423641115  1.0000
  H   H23       1.0  0.7095265809426082  0.8726634244603769  0.5610367520057904  1.0000
  H   H24       1.0  0.7905280707548245  0.5663730440099145  0.5610285694782675  1.0000
  H   H25       1.0  0.8538811860109234  0.5473035976106145  0.06315081640173041  1.0000
  H   H26       1.0  0.6458816272552071  0.389598685067824  0.06319577201072239  1.0000
  H   H27       1.0  0.14611967364763973  0.45269650255728777  0.9368497968341527  1.0000
  H   H28       1.0  0.3541175493319956  0.6104016658355743  0.9368057875480459  1.0000
  H   H29       1.0  0.8086060385443047  0.5955582780684027  0.18611702737678112  1.0000
  H   H30       1.0  0.6911967660158923  0.21833733315715878  0.1861679621048466  1.0000
  H   H31       1.0  0.19139650193996285  0.4044407963407292  0.8138834181206177  1.0000
  H   H32       1.0  0.3088035973864438  0.7816644478396453  0.8138321648990041  1.0000
  C   C1        1.0  0.4840211254870186  0.9905565327281138  0.22945322942524626  1.0000
  C   C2        1.0  0.015860615667350114  0.7800006969229044  0.22947915844891034  1.0000
  C   C3        1.0  0.5159790548409403  0.009444331633815625  0.7705454096755345  1.0000
  C   C4        1.0  0.9841355169416205  0.22000065808078517  0.7705201777469524  1.0000
  C   C5        1.0  0.5112522257237945  0.9297662494885442  0.35612864701563024  1.0000
  C   C6        1.0  0.988683334669659  0.7140782905732762  0.3561640729563606  1.0000
  C   C7        1.0  0.48874677003468736  0.07023395980324672  0.64387064605566  1.0000
  C   C8        1.0  0.011316344910753364  0.2859227045710212  0.6438356370812028  1.0000
  C   C9        1.0  0.23774102959700372  0.0374591917349747  0.44896698470302693  1.0000
  C   C10       1.0  0.26219764680784885  0.5134881569080462  0.44900704825136717  1.0000
  C   C11       1.0  0.7622574609226193  0.9625395982926575  0.5510349364738686  1.0000
  C   C12       1.0  0.7378042143458077  0.4865116816951126  0.5509914231109361  1.0000
  C   C13       1.0  0.07588956530590006  0.11921348128124264  0.3773042185214165  1.0000
  C   C14       1.0  0.4240442495720487  0.5033464904045956  0.37736749716048473  1.0000
  C   C15       1.0  0.9241101097831931  0.8807859638165211  0.6226970486849693  1.0000
  C   C16       1.0  0.5759571085884048  0.49665270395767175  0.6226328237230163  1.0000
  C   C17       1.0  0.5897300118273491  0.6907206159410179  0.08314440998583439  1.0000
  C   C18       1.0  0.9100787714939359  0.22619431014485508  0.08311383137127137  1.0000
  C   C19       1.0  0.41027035157499386  0.30928116505577913  0.9168557170180163  1.0000
  C   C20       1.0  0.08992159415406344  0.7738082458752086  0.9168855170481648  1.0000
  C   C21       1.0  0.7600132931363177  0.5588260669932267  0.13136735753852946  1.0000
  C   C22       1.0  0.7397505863199572  0.3098289151893424  0.13138124370638585  1.0000
  C   C23       1.0  0.23998756427658935  0.44117325815140135  0.8686340342817613  1.0000
  C   C24       1.0  0.2602502755842695  0.6901719600018194  0.8686185909450825  1.0000
  N   N1        1.0  0.3668272859647603  0.8981152357490811  0.42414863573474537  1.0000
  N   N2        1.0  0.13314635736217897  0.6776715634954158  0.4241788739780217  1.0000
  N   N3        1.0  0.6331717053024023  0.10188342349618298  0.5758522145053602  1.0000
  N   N4        1.0  0.8668550007982745  0.3223276308668447  0.575821446905479  1.0000
  N   N5        1.0  0.7499167077673479  0.40143284881750657  0.1971360950431985  1.0000
  N   N6        1.0  0.2500846503931059  0.5985663455447607  0.8028642258403023  1.0000
  O   O1        1.0  0.5877903810649201  0.046200795456009275  0.16643961787654854  1.0000
  O   O2        1.0  0.9120773517776826  0.787407771055342  0.16646141776510595  1.0000
  O   O3        1.0  0.4122099778460967  0.9537994354942537  0.8335620662961173  1.0000
  O   O4        1.0  0.08792064697702538  0.21259424984771874  0.8335384600109348  1.0000
  O   O5        1.0  0.35994822736349613  0.9738808156514337  0.197791551711063  1.0000
  O   O6        1.0  0.1399305317943347  0.8283358086331843  0.19780247641348575  1.0000
  O   O7        1.0  0.6400514499712602  0.02611940446959683  0.8022089369109151  1.0000
  O   O8        1.0  0.8600691455404146  0.17166441148784625  0.8021980122084924  1.0000
  O   O9        1.0  0.04268395625985731  0.03904851472233873  0.3317239490958882  1.0000
  O   O10       1.0  0.45732008682684017  0.6290511734687526  0.3316934923223513  1.0000
  O   O11       1.0  0.9573162128397998  0.9609484745232562  0.6682785829269304  1.0000
  O   O12       1.0  0.5426817720811601  0.37094789011113966  0.6683057576243525  1.0000
  O   O13       1.0  0.9794601954484534  0.2613761948111062  0.3706742018167687  1.0000
  O   O14       1.0  0.5204409046850742  0.3677471822243063  0.3708259051816468  1.0000
  O   O15       1.0  0.020538297316825712  0.7386233702397855  0.6293269407757122  1.0000
  O   O16       1.0  0.4795587748953311  0.6322538129199909  0.6291738048559237  1.0000
  O   O17       1.0  0.5889334785788662  0.8332670200600845  0.04741936127999216  1.0000
  O   O18       1.0  0.9109248953260194  0.11933085476388065  0.047418994537132206  1.0000
  O   O19       1.0  0.4110666972577734  0.16673229425531141  0.9525808349896037  1.0000
  O   O20       1.0  0.08907478425439329  0.880670140380417  0.9525807155004382  1.0000
  O   O21       1.0  0.4590142060630174  0.665194396151051  0.07893559618288037  1.0000
  O   O22       1.0  0.040817512101654185  0.2559046710124945  0.07886664895891465  1.0000
  O   O23       1.0  0.5409854735173955  0.3348065989932465  0.921064113854683  1.0000
  O   O24       1.0  0.9591821652330954  0.7440955491085359  0.9211338396630635  1.0000
