data_image0
_chemical_formula_structural       Ag2H14C26N12O2
_chemical_formula_sum              "Ag2 H14 C26 N12 O2"
_cell_length_a       4.110227589314746
_cell_length_b       11.316305032682319
_cell_length_c       14.748797989752173
_cell_angle_alpha    87.81249491101633
_cell_angle_beta     87.84891486934865
_cell_angle_gamma    87.54033219273397

_space_group_name_H-M_alt    "P 1"
_space_group_IT_number       1

loop_
  _space_group_symop_operation_xyz
  'x, y, z'

loop_
  _atom_site_type_symbol
  _atom_site_label
  _atom_site_symmetry_multiplicity
  _atom_site_fract_x
  _atom_site_fract_y
  _atom_site_fract_z
  _atom_site_occupancy
  Ag  Ag1       1.0  0.28571570752448144  0.2621637996469772  0.3591618253545904  1.0000
  Ag  Ag2       1.0  0.7142457816787626  0.7378350926923928  0.6408351896892057  1.0000
  H   H1        1.0  0.5944204423974568  0.15229462735455707  0.16636820688142961  1.0000
  H   H2        1.0  0.4055843989690473  0.8477059596100104  0.8336372341929066  1.0000
  H   H3        1.0  0.8576439574644966  0.2367446240594404  0.9601420698124842  1.0000
  H   H4        1.0  0.14235619556903598  0.7632533271875273  0.03986552382615832  1.0000
  H   H5        1.0  0.8045047552611564  0.11027346826640638  0.03463117853591771  1.0000
  H   H6        1.0  0.19548991074961458  0.8897306929264915  0.9653769423245677  1.0000
  H   H7        1.0  0.2015498534948676  0.16377017383855016  0.0120296506307156  1.0000
  H   H8        1.0  0.7984406067729638  0.8362277964052112  0.9879766614133061  1.0000
  H   H9        1.0  0.2772515700959772  0.37338149813429306  0.051207462200110916  1.0000
  H   H10       1.0  0.722751016701345  0.6266181997815536  0.9487953118016393  1.0000
  H   H11       1.0  0.09781429521871132  0.41082878028267805  0.15926120078039221  1.0000
  H   H12       1.0  0.9021926539501238  0.5891762160319017  0.8407413744460686  1.0000
  H   H13       1.0  0.8859909647102812  0.44764029042033104  0.05819634852692702  1.0000
  H   H14       1.0  0.11401395990135656  0.5523611641444717  0.9418043184954288  1.0000
  C   C1        1.0  0.7038363766059919  0.239066500900698  0.1703741884548435  1.0000
  C   C2        1.0  0.29617050060073064  0.7609385028989307  0.8296304212647387  1.0000
  C   C3        1.0  0.943049473718233  0.19009274937939577  0.022065717275602005  1.0000
  C   C4        1.0  0.05694832737533053  0.809906075464511  0.9779371209945753  1.0000
  C   C5        1.0  0.0488432810933901  0.3814870661650501  0.09155797778871742  1.0000
  C   C6        1.0  0.9511590517045789  0.6185152869468737  0.9084447155089209  1.0000
  C   C7        1.0  0.9770329102248283  0.8684314998719526  0.3189123329301752  1.0000
  C   C8        1.0  0.0229750887905169  0.13156550091419922  0.6810823464361278  1.0000
  C   C9        1.0  0.797078054917968  0.8331692204675105  0.24464741558541195  1.0000
  C   C10       1.0  0.20293268125658412  0.1668251141358255  0.755345969472728  1.0000
  C   C11       1.0  0.7945009893043604  0.7077365621166861  0.2471157216983428  1.0000
  C   C12       1.0  0.20550961422900121  0.29225866254203947  0.7528789927871672  1.0000
  C   C13       1.0  0.972004933076363  0.6641220488327803  0.32322562975716823  1.0000
  C   C14       1.0  0.027998182864422516  0.33587584152709127  0.676767025581704  1.0000
  C   C15       1.0  0.08525205952454941  0.7636446560926516  0.36746879558583606  1.0000
  C   C16       1.0  0.914755878811711  0.23635322726383376  0.6325251787147226  1.0000
  C   C17       1.0  0.039957689822493606  0.9857583417624343  0.3376189085364274  1.0000
  C   C18       1.0  0.960050237230739  0.014238666508766996  0.6623778053229972  1.0000
  C   C19       1.0  0.632784269461638  0.9068102576017835  0.18093049306730796  1.0000
  C   C20       1.0  0.3672159526913745  0.09319119149130731  0.8190654641714872  1.0000
  C   C21       1.0  0.6344307843804418  0.6446220399752535  0.1828709265568165  1.0000
  C   C22       1.0  0.3655573944882137  0.35537854904598715  0.8171237946722628  1.0000
  C   C23       1.0  0.026521268726533317  0.5446991087071777  0.349725476093127  1.0000
  C   C24       1.0  0.9734814732780421  0.4553014493238551  0.6502704893635072  1.0000
  C   C25       1.0  0.2713713821968753  0.7595595181886028  0.4452768061669873  1.0000
  C   C26       1.0  0.728633842967554  0.24044102885568458  0.5547177842773652  1.0000
  N   N1        1.0  0.8981466143467715  0.26721554243621165  0.09871435026965972  1.0000
  N   N2        1.0  0.10186056483404828  0.732786801177312  0.9012889838252891  1.0000
  N   N3        1.0  0.08896033166925581  0.08467217833540988  0.3505701167125609  1.0000
  N   N4        1.0  0.9110523091256367  0.9153257104927874  0.649428567371551  1.0000
  N   N5        1.0  0.48515547721014235  0.9655034215579692  0.12848418544113122  1.0000
  N   N6        1.0  0.5148348602782068  0.0344980664920627  0.8715159155180389  1.0000
  N   N7        1.0  0.49250900192752317  0.6004059766247919  0.12680130948058385  1.0000
  N   N8        1.0  0.5074810095993599  0.39959817410636594  0.8732007452676029  1.0000
  N   N9        1.0  0.0677477004534097  0.4450588259082053  0.37187505931397175  1.0000
  N   N10       1.0  0.9322404431448492  0.554940890522765  0.6281230796383498  1.0000
  N   N11       1.0  0.4270940418485978  0.7568367080697056  0.5099799050977368  1.0000
  N   N12       1.0  0.5729139458837195  0.24315941763115484  0.4900175138274392  1.0000
  O   O1        1.0  0.6476011302415332  0.3045845186621037  0.23653627302556404  1.0000
  O   O2        1.0  0.3523959342626384  0.6954205166094097  0.7634704459212716  1.0000
