data_image0
_chemical_formula_structural       Zn4H47C72N20Cl
_chemical_formula_sum              "Zn4 H47 C72 N20 Cl1"
_cell_length_a       19.37414890266376
_cell_length_b       19.954977519164142
_cell_length_c       21.218734108128146
_cell_angle_alpha    114.62614956408181
_cell_angle_beta     94.85299289423021
_cell_angle_gamma    114.85385768523506

_space_group_name_H-M_alt    "P 1"
_space_group_IT_number       1

loop_
  _space_group_symop_operation_xyz
  'x, y, z'

loop_
  _atom_site_type_symbol
  _atom_site_label
  _atom_site_symmetry_multiplicity
  _atom_site_fract_x
  _atom_site_fract_y
  _atom_site_fract_z
  _atom_site_occupancy
  Zn  Zn1       1.0  0.12195729250898073  0.1257485431445247  0.5202129313824173  1.0000
  Zn  Zn2       1.0  0.9021346560510394  0.8838747279200304  0.5112232386789585  1.0000
  Zn  Zn3       1.0  0.01992232750951936  0.9037932826354053  0.4045620779945693  1.0000
  Zn  Zn4       1.0  0.0035248868606033183  0.1085749359292265  0.6272398609074158  1.0000
  H   H1        1.0  0.1717502172817618  0.16005661488277667  0.37840626682117307  1.0000
  H   H2        1.0  0.9050317573495194  0.7243722161970254  0.5315516929573291  1.0000
  H   H3        1.0  0.19369126274614965  0.8946298834337655  0.4026812347958781  1.0000
  H   H4        1.0  0.029048170810135346  0.10327136918583339  0.7880350902361284  1.0000
  H   H5        1.0  0.025713938929008945  0.8800955308494379  0.6243055814834334  1.0000
  H   H6        1.0  0.23580211247389835  0.09581839045850421  0.6158521189690871  1.0000
  H   H7        1.0  0.15144146564483663  0.15049914194630531  0.752345989131747  1.0000
  H   H8        1.0  0.11157389222449147  0.8212542434890152  0.46283323522029457  1.0000
  H   H9        1.0  0.9872404890500163  0.5152020901116572  0.624417023379621  1.0000
  H   H10       1.0  0.9706983451416991  0.3874637395484585  0.6266039998824837  1.0000
  H   H11       1.0  0.15974794832608555  0.3965881897343665  0.5311409586983231  1.0000
  H   H12       1.0  0.7210192622328648  0.8519744524701452  0.5289640808089402  1.0000
  H   H13       1.0  0.17663764309106267  0.524881369496498  0.5291498989727828  1.0000
  H   H14       1.0  0.1163140831117672  0.5648183729525156  0.46684703006389566  1.0000
  H   H15       1.0  0.08963298843934103  0.6596446043821659  0.43613570488626147  1.0000
  H   H16       1.0  0.022252479311148824  0.7460288064813907  0.630268988602971  1.0000
  H   H17       1.0  0.050505776262248475  0.6527234245944982  0.6620003228706111  1.0000
  H   H18       1.0  0.4950558253908639  0.8706613531405551  0.5808191956182184  1.0000
  H   H19       1.0  0.6199968473659184  0.8692896866864929  0.5715534909066236  1.0000
  H   H20       1.0  0.7246976859603366  0.11850772485061611  0.5922453848779412  1.0000
  H   H21       1.0  0.5999574465643321  0.12007087209971698  0.6026104496363799  1.0000
  H   H22       1.0  0.5059452467727894  0.12341022526236153  0.6677172485676336  1.0000
  H   H23       1.0  0.882860228429017  0.7417260816060466  0.24187485375924928  1.0000
  H   H24       1.0  0.38011122167814193  0.12318164675141224  0.6370663937465436  1.0000
  H   H25       1.0  0.2653322245778043  0.8572818589398352  0.47339003774560234  1.0000
  H   H26       1.0  0.3917600842237264  0.8584561478639188  0.5023439609150273  1.0000
  H   H27       1.0  0.7847298347238761  0.6078151359135758  0.16475350760000396  1.0000
  H   H28       1.0  0.6714908817941494  0.4806295917489649  0.05668056309090023  1.0000
  H   H29       1.0  0.5335315567195665  0.3667220658661705  0.8532644923296002  1.0000
  H   H30       1.0  0.41881857213347473  0.29293768893474237  0.7408231962453085  1.0000
  H   H31       1.0  0.6178197433937314  0.656384592888486  0.27241209439729636  1.0000
  H   H32       1.0  0.3699213373624559  0.3142053473873219  0.9733220575772915  1.0000
  H   H33       1.0  0.5048472232577411  0.5254081777578109  0.16466272379534536  1.0000
  H   H34       1.0  0.005283557569910618  0.2976598976176916  0.6681668429182394  1.0000
  H   H35       1.0  0.25489733397677133  0.2397332364552511  0.8619541701631659  1.0000
  H   H36       1.0  0.14811875904631933  0.1123090837694605  0.8645792035289828  1.0000
  H   H37       1.0  0.17551705604834922  0.09701809570872648  0.9732258782936327  1.0000
  H   H38       1.0  0.24760251059385033  0.1046094557651358  0.16791351335240984  1.0000
  H   H39       1.0  0.2128501195472694  0.10968101174998421  0.27911815588344513  1.0000
  H   H40       1.0  0.003505015478829533  0.838783094517929  0.7299835366453705  1.0000
  H   H41       1.0  0.0025136357115514056  0.9139681293220647  0.03762584276275056  1.0000
  H   H42       1.0  0.031508101101565114  0.8245492619696578  0.8393292284155291  1.0000
  H   H43       1.0  0.7353820662893471  0.7713454056641141  0.3822510077152543  1.0000
  H   H44       1.0  0.07981137516421202  0.23414629484920374  0.4746079373724469  1.0000
  H   H45       1.0  0.8493173283545163  0.1202724193025873  0.595375367893787  1.0000
  H   H46       1.0  0.9629967740595332  0.906643387463987  0.2692740243005502  1.0000
  H   H47       1.0  0.30907962551310675  0.2763478538127018  0.6557261261273906  1.0000
  C   C1        1.0  0.12062457341905741  0.0986190370255997  0.36281142480721934  1.0000
  C   C2        1.0  0.7537190918036245  0.9886833099697512  0.567932652943604  1.0000
  C   C3        1.0  0.7781844403111151  0.7217210783739035  0.2861886235176954  1.0000
  C   C4        1.0  0.04887574631571571  0.3009565859317433  0.5734514766566008  1.0000
  C   C5        1.0  0.2596515279632286  0.2407441953460676  0.6703062156643468  1.0000
  C   C6        1.0  0.950720004379903  0.7553972180998373  0.5112031763204286  1.0000
  C   C7        1.0  0.19269938890978724  0.9439808446676566  0.4502732056922055  1.0000
  C   C8        1.0  0.02351395751803414  0.050667336078788594  0.7386747955111586  1.0000
  C   C9        1.0  0.020497303775975684  0.9359496709507482  0.6548675407990528  1.0000
  C   C10       1.0  0.21438380621543018  0.047322043753084096  0.5587563590818688  1.0000
  C   C11       1.0  0.1787922932471561  0.17693037183651944  0.7196097928246485  1.0000
  C   C12       1.0  0.7638493878043632  0.9173128681424032  0.544879184517569  1.0000
  C   C13       1.0  0.05563178643899385  0.8042509888911127  0.4753553027837397  1.0000
  C   C14       1.0  0.26051812031366955  0.229123806386589  0.7313764796655562  1.0000
  C   C15       1.0  0.021362802172575402  0.7527472631593711  0.5060234586107555  1.0000
  C   C16       1.0  0.243879298527638  0.9933993920435428  0.5227359616105289  1.0000
  C   C17       1.0  0.04216928596518701  0.9873181021975485  0.7309714139034824  1.0000
  C   C18       1.0  0.026450159160177105  0.4904682876266904  0.6049820421407474  1.0000
  C   C19       1.0  0.01679045587891178  0.41785751197799925  0.6059291353078179  1.0000
  C   C20       1.0  0.06227813050267629  0.3804094381046781  0.5769777934216833  1.0000
  C   C21       1.0  0.12082116156253164  0.421764944484906  0.5506761484851523  1.0000
  C   C22       1.0  0.13042351097981006  0.49444143948584707  0.5497180666690227  1.0000
  C   C23       1.0  0.8578972631239741  0.7596494315221707  0.2859249661196372  1.0000
  C   C24       1.0  0.081916278497836  0.5292842791286816  0.5750916700198019  1.0000
  C   C25       1.0  0.09683507059229876  0.6054053668841491  0.5037488467536733  1.0000
  C   C26       1.0  0.08143577167181354  0.6586940644847489  0.4860848261046229  1.0000
  C   C27       1.0  0.049692943711036594  0.7064229946771758  0.5287666695432731  1.0000
  C   C28       1.0  0.04155741876262904  0.7050464787586961  0.5935550333292666  1.0000
  C   C29       1.0  0.05752143253153726  0.6523666671587308  0.611413972551368  1.0000
  C   C30       1.0  0.08163703123735624  0.5979954710518526  0.5649272976547194  1.0000
  C   C31       1.0  0.5451390549513421  0.925052589042224  0.5827910112918316  1.0000
  C   C32       1.0  0.615846794666588  0.9242984283629099  0.5773466835328518  1.0000
  C   C33       1.0  0.6817553580363693  0.992686881311812  0.5788964824474973  1.0000
  C   C34       1.0  0.021845184991434497  0.26971814698089247  0.6202862705596244  1.0000
  C   C35       1.0  0.6749970785698381  0.0641115684725051  0.5905668549265427  1.0000
  C   C36       1.0  0.6045812334470642  0.06529583412164192  0.5968377227603269  1.0000
  C   C37       1.0  0.5371971557636074  0.9948613767155338  0.5909414290513553  1.0000
  C   C38       1.0  0.453479624953559  0.0650554418576945  0.6242642733691283  1.0000
  C   C39       1.0  0.3823249332057371  0.0647722781308957  0.6073337064181243  1.0000
  C   C40       1.0  0.3143282144284569  0.9913181457943735  0.5501519370049336  1.0000
  C   C41       1.0  0.3182762188445381  0.9162372517923743  0.5157031254958113  1.0000
  C   C42       1.0  0.38927965476219833  0.9165184888481548  0.5327564173468814  1.0000
  C   C43       1.0  0.4594725809711591  0.9919756454203182  0.5850148800001448  1.0000
  C   C44       1.0  0.32824405615126306  0.26417903807810467  0.7938119075585774  1.0000
  C   C45       1.0  0.782742672428725  0.7756030733571606  0.3574021470074272  1.0000
  C   C46       1.0  0.31594763490605976  0.2675703125028903  0.8595928224714483  1.0000
  C   C47       1.0  0.37967077568573876  0.3087970726411911  0.9220078145727013  1.0000
  C   C48       1.0  0.4587725718385157  0.347908722971404  0.9204368565838051  1.0000
  C   C49       1.0  0.471810880589196  0.3381914300877256  0.8537986063023124  1.0000
  C   C50       1.0  0.4075080035449048  0.2975993817729261  0.7916069937117595  1.0000
  C   C51       1.0  0.660621890339968  0.5193805208850009  0.10437493177879281  1.0000
  C   C52       1.0  0.7233982851284609  0.5911794561262553  0.16466895557671538  1.0000
  C   C53       1.0  0.5810379018602633  0.4965688965095509  0.10362010999516971  1.0000
  C   C54       1.0  0.710076156875644  0.6437745607251628  0.2259162091239943  1.0000
  C   C55       1.0  0.6303194294674342  0.6178136198080895  0.22585180447126166  1.0000
  C   C56       1.0  0.06113539031402129  0.23789872446921834  0.5222656627216153  1.0000
  C   C57       1.0  0.5669062512941849  0.5448435857999809  0.16599202786884584  1.0000
  C   C58       1.0  0.08691104641313532  0.0187214833578935  0.22394182698133844  1.0000
  C   C59       1.0  0.028850135868459855  0.9625308135071364  0.15371350267729167  1.0000
  C   C60       1.0  0.04847305411286826  0.9563160403911651  0.0908811628713693  1.0000
  C   C61       1.0  0.1274010581149483  0.0079387681761318  0.09549329265968957  1.0000
  C   C62       1.0  0.18638988934358033  0.0645675917279505  0.16433993765240723  1.0000
  C   C63       1.0  0.16614083836267923  0.0679026173993478  0.22620409759559826  1.0000
  C   C64       1.0  0.1389099797938372  0.041190671825965794  0.9193798175609512  1.0000
  C   C65       1.0  0.1225891300618828  0.04900007113884189  0.8588164681170478  1.0000
  C   C66       1.0  0.10340099750926869  0.9598777631898797  0.9129306934601613  1.0000
  C   C67       1.0  0.8290981672256735  0.0538263333393303  0.5781235029927885  1.0000
  C   C68       1.0  0.07107113206288315  0.9767372820438283  0.7900498747395658  1.0000
  C   C69       1.0  0.04267059218203438  0.8954670386526616  0.7828329174284789  1.0000
  C   C70       1.0  0.057902524165563  0.8870695693067391  0.8435096147162469  1.0000
  C   C71       1.0  0.013417007109410364  0.9697073189367702  0.30707987289197564  1.0000
  C   C72       1.0  0.07155763252318792  0.028357431071370297  0.29246421109964155  1.0000
  N   N1        1.0  0.09424344001990906  0.0813484683245989  0.4136620578219519  1.0000
  N   N2        1.0  0.9441436414047502  0.8046660974366375  0.4856675546702291  1.0000
  N   N3        1.0  0.1380861161136694  0.9675749119630341  0.4437493880975368  1.0000
  N   N4        1.0  0.992625033467597  0.037008175162561906  0.6724645210757458  1.0000
  N   N5        1.0  0.9908585769495488  0.9658985113478025  0.6199547803397606  1.0000
  N   N6        1.0  0.15129177763750337  0.0320404396541321  0.5113396743637679  1.0000
  N   N7        1.0  0.13323380749977795  0.1590246043761283  0.6571352642625427  1.0000
  N   N8        1.0  0.00958418872075131  0.8359862553087964  0.46410806011292743  1.0000
  N   N9        1.0  0.5275138301605935  0.403637871102589  0.9824611573756455  1.0000
  N   N10       1.0  0.512689556188441  0.4322354777575512  0.042411789601189354  1.0000
  N   N11       1.0  0.14727266100877764  0.0125339602448591  0.03477779621518099  1.0000
  N   N12       1.0  0.8392327427262742  0.9395124799546509  0.5433147908782061  1.0000
  N   N13       1.0  0.09967741422605764  0.9474536979224977  0.9733041447581028  1.0000
  N   N14       1.0  0.9047771123600582  0.8287119425750331  0.35156547767551405  1.0000
  N   N15       1.0  0.020024947674855333  0.1951467199638515  0.5987441465319775  1.0000
  N   N16       1.0  0.8591311481498072  0.8393011179468817  0.396455956015437  1.0000
  N   N17       1.0  0.043893872713717  0.17467348324447574  0.5379228130346119  1.0000
  N   N18       1.0  0.8801520653540464  0.0238957290351109  0.5635810824559682  1.0000
  N   N19       1.0  0.02818647851560743  0.001346709823650396  0.379780570922314  1.0000
  N   N20       1.0  0.18361330411561036  0.19923220205141232  0.626816651899162  1.0000
  Cl  Cl1       1.0  0.9282640205795545  0.9005745596119183  0.14247623718932084  1.0000
