data_image0
_chemical_formula_structural       Cu6H8C10N6Cl4
_chemical_formula_sum              "Cu6 H8 C10 N6 Cl4"
_cell_length_a       3.574038161488001
_cell_length_b       6.80684211807914
_cell_length_c       17.030260441144268
_cell_angle_alpha    89.99990294155977
_cell_angle_beta     89.99969864036065
_cell_angle_gamma    88.27206410413686

_space_group_name_H-M_alt    "P 1"
_space_group_IT_number       1

loop_
  _space_group_symop_operation_xyz
  'x, y, z'

loop_
  _atom_site_type_symbol
  _atom_site_label
  _atom_site_symmetry_multiplicity
  _atom_site_fract_x
  _atom_site_fract_y
  _atom_site_fract_z
  _atom_site_occupancy
  Cu  Cu1       1.0  0.4492751333417785  0.25100352858945746  0.6759393527008655  1.0000
  Cu  Cu2       1.0  0.4492713367669551  0.25101238184245744  0.8240580505009236  1.0000
  Cu  Cu3       1.0  0.5507305418580444  0.7490000478884369  0.3240597731358932  1.0000
  Cu  Cu4       1.0  0.5507198008361412  0.7490044848967514  0.1759428368892628  1.0000
  Cu  Cu5       1.0  0.22096955375461388  0.8939892458672104  0.749999211340537  1.0000
  Cu  Cu6       1.0  0.7790412343938511  0.10602606333321062  0.2500010888449822  1.0000
  H   H1        1.0  0.3610797046762642  0.3386328833148724  0.37639243582557924  1.0000
  H   H2        1.0  0.3610777902547395  0.33863769800744603  0.12360475738279321  1.0000
  H   H3        1.0  0.6389238982542194  0.6613530689794018  0.6236037541027744  1.0000
  H   H4        1.0  0.6389139525880408  0.6613644714892928  0.8763967172303353  1.0000
  H   H5        1.0  0.7114237241983331  0.835799203456837  0.4945095512376767  1.0000
  H   H6        1.0  0.7114029656530789  0.8358105446249339  0.0054917802549497  1.0000
  H   H7        1.0  0.2885800603076305  0.16418233965700324  0.5054860515104522  1.0000
  H   H8        1.0  0.2885973544818299  0.16418717807120234  0.9945102815504613  1.0000
  C   C1        1.0  0.4342834624779995  0.46338693578510254  0.749998232377564  1.0000
  C   C2        1.0  0.5657193536207643  0.5366181229675533  0.25000148064854244  1.0000
  C   C3        1.0  0.4217996273951455  0.4112109052835963  0.4317671752775568  1.0000
  C   C4        1.0  0.42177602588281354  0.41121029553563193  0.06823251172651373  1.0000
  C   C5        1.0  0.5782346387903983  0.5887778484999728  0.5682313633764622  1.0000
  C   C6        1.0  0.5782017846001607  0.5887904669858627  0.9317718988530785  1.0000
  C   C7        1.0  0.3851058770668842  0.3145170632799861  0.5030934081405078  1.0000
  C   C8        1.0  0.38510082070573753  0.3145205805294609  0.996903237360556  1.0000
  C   C9        1.0  0.6149142752136922  0.6854746926437016  0.49690219456930146  1.0000
  C   C10       1.0  0.6148854460346697  0.685478674611524  0.0030988244543337005  1.0000
  N   N1        1.0  0.4128407077493107  0.6383098150793317  0.7499966799203579  1.0000
  N   N2        1.0  0.587152925812134  0.36171438772822745  0.2500030330706764  1.0000
  N   N3        1.0  0.537742327461906  0.597325008116684  0.42827227683417857  1.0000
  N   N4        1.0  0.537734879330081  0.5973390907782986  0.0717286983337502  1.0000
  N   N5        1.0  0.46224758522779996  0.402653658255673  0.5717221515531321  1.0000
  N   N6        1.0  0.46225400441164055  0.4026645609931948  0.9282733634687335  1.0000
  Cl  Cl1       1.0  0.9630306701722016  0.0306246400485932  0.6394707656590768  1.0000
  Cl  Cl2       1.0  0.9630382701762983  0.0306209503702419  0.8605296280919745  1.0000
  Cl  Cl3       1.0  0.03695255589992999  0.9693805065298379  0.3605307089551459  1.0000
  Cl  Cl4       1.0  0.036952867426798285  0.9693959163689598  0.1394712592982046  1.0000
