data_image0
_chemical_formula_structural       Zn8H24C36N12O26
_chemical_formula_sum              "Zn8 H24 C36 N12 O26"
_cell_length_a       16.02994596343884
_cell_length_b       15.89851495879472
_cell_length_c       18.253314386939373
_cell_angle_alpha    65.72250656777796
_cell_angle_beta     68.94345242896506
_cell_angle_gamma    64.36127752019988

_space_group_name_H-M_alt    "P 1"
_space_group_IT_number       1

loop_
  _space_group_symop_operation_xyz
  'x, y, z'

loop_
  _atom_site_type_symbol
  _atom_site_label
  _atom_site_symmetry_multiplicity
  _atom_site_fract_x
  _atom_site_fract_y
  _atom_site_fract_z
  _atom_site_occupancy
  Zn  Zn1       1.0  0.10316929041432846  0.993763091771335  0.9081333865882967  1.0000
  Zn  Zn2       1.0  0.9141700076549667  0.9283991639694591  0.9953942258412666  1.0000
  Zn  Zn3       1.0  0.8978282477063148  0.1515592067062954  0.9042106656500764  1.0000
  Zn  Zn4       1.0  0.9683173597430181  0.0390369981483687  0.07609522234157137  1.0000
  Zn  Zn5       1.0  0.3495557617905762  0.6036790910090701  0.484649032825132  1.0000
  Zn  Zn6       1.0  0.5257982290108175  0.5783670387369142  0.537672916748697  1.0000
  Zn  Zn7       1.0  0.5486651166630381  0.5777017321177808  0.3562817288517054  1.0000
  Zn  Zn8       1.0  0.5121282949351312  0.39363777482490997  0.5108674541546279  1.0000
  H   H1        1.0  0.09311502963922184  0.6886413099865721  0.8886000562984507  1.0000
  H   H2        1.0  0.20263096157123783  0.6851024742142044  0.896869040084816  1.0000
  H   H3        1.0  0.1298837327065243  0.8378615197085183  0.602894097081922  1.0000
  H   H4        1.0  0.3233682153314846  0.6619116853316812  0.7680321989558863  1.0000
  H   H5        1.0  0.03614744394263878  0.26509819362244974  0.6483709013668459  1.0000
  H   H6        1.0  0.15052120188865814  0.17053872446354024  0.6483624059908236  1.0000
  H   H7        1.0  0.11113669780723977  0.4992467758176886  0.6788450562656863  1.0000
  H   H8        1.0  0.28187022501817455  0.2364246419587275  0.6052629263024442  1.0000
  H   H9        1.0  0.24184091045409425  0.0350672431086991  0.08878401494114029  1.0000
  H   H10       1.0  0.32187703186513533  0.9596264008879914  0.023581270838221348  1.0000
  H   H11       1.0  0.15870991199479795  0.758159348589281  0.30342674453053325  1.0000
  H   H12       1.0  0.4085554164537514  0.8320466678247412  0.14288958830744036  1.0000
  H   H13       1.0  0.6156981043658902  0.0844706887331697  0.9541240035516977  1.0000
  H   H14       1.0  0.6721590736412039  0.0353861231269477  0.8701047884696463  1.0000
  H   H15       1.0  0.5662889844104626  0.41696528786584264  0.7969952730120511  1.0000
  H   H16       1.0  0.6529521455623667  0.1555962146299237  0.7283785656011972  1.0000
  H   H17       1.0  0.9845252400571669  0.7623655506621603  0.2773823376241893  1.0000
  H   H18       1.0  0.9840007729478368  0.6955716027837228  0.21853630820376688  1.0000
  H   H19       1.0  0.700807378873755  0.7753318685530745  0.45910374858840414  1.0000
  H   H20       1.0  0.8184862135059062  0.675516175434055  0.24304404960939519  1.0000
  H   H21       1.0  0.67034590165116  0.31484568069934943  0.05936159008380318  1.0000
  H   H22       1.0  0.7475069705461479  0.3741433970045873  0.04808410127816389  1.0000
  H   H23       1.0  0.6169648870411847  0.18159047830599206  0.3486865817529647  1.0000
  H   H24       1.0  0.7083426226159517  0.42425442982855793  0.1696576178753588  1.0000
  C   C1        1.0  0.08996215063071834  0.8219280024755166  0.8953320352324708  1.0000
  C   C2        1.0  0.14162088266390788  0.7298836442211466  0.8677119344506607  1.0000
  C   C3        1.0  0.1633057375480149  0.8000982341467875  0.6552581960704841  1.0000
  C   C4        1.0  0.2590940654368339  0.7395416802730493  0.656427468799464  1.0000
  C   C5        1.0  0.2644757633061943  0.7100985698103769  0.738185018680845  1.0000
  C   C6        1.0  0.3336673311828165  0.7012123105141511  0.591652959316754  1.0000
  C   C7        1.0  0.06143024437909621  0.17245791832733906  0.7687353282833767  1.0000
  C   C8        1.0  0.09659112304310469  0.22514103423519316  0.6782935924313733  1.0000
  C   C9        1.0  0.13825425330084326  0.42897988102433265  0.6678207045591691  1.0000
  C   C10       1.0  0.23078010726803913  0.3825707839095783  0.6267462800501064  1.0000
  C   C11       1.0  0.22814154066798412  0.29481844722452877  0.6297455954627721  1.0000
  C   C12       1.0  0.3082067772685662  0.4231171818284736  0.5830670699230112  1.0000
  C   C13       1.0  0.17254371991366918  0.995527834271897  0.032813259104131055  1.0000
  C   C14       1.0  0.25490269076502164  0.9726141998537942  0.06946122728672324  1.0000
  C   C15       1.0  0.20921051502892146  0.7897686203895231  0.25387653957385947  1.0000
  C   C16       1.0  0.30780376211366445  0.7618327749471374  0.24739650777451777  1.0000
  C   C17       1.0  0.3388145976670174  0.8253082356840765  0.17275117184943406  1.0000
  C   C18       1.0  0.3630732794286474  0.6890103891612824  0.3090675643561339  1.0000
  C   C19       1.0  0.7632818418235204  0.06619701190150809  0.9110788229010608  1.0000
  C   C20       1.0  0.6669993652321368  0.090461560206613  0.8945623614845316  1.0000
  C   C21       1.0  0.5899567073455785  0.3425343659828001  0.795312990174878  1.0000
  C   C22       1.0  0.604816876981019  0.31186910539916823  0.727413210207999  1.0000
  C   C23       1.0  0.6334689025394836  0.2102318646760821  0.7580740509416161  1.0000
  C   C24       1.0  0.5874249053025267  0.3737929071722307  0.644961192095927  1.0000
  C   C25       1.0  0.9317349421942185  0.8515117493865246  0.16634815021328114  1.0000
  C   C26       1.0  0.9447448502722439  0.7594679967681018  0.24128734710794938  1.0000
  C   C27       1.0  0.7432024252540117  0.7579928069976916  0.4023365030812159  1.0000
  C   C28       1.0  0.7269276105464684  0.7094646461301936  0.3613353599956852  1.0000
  C   C29       1.0  0.8013155538370997  0.7060540749085576  0.2920514140641117  1.0000
  C   C30       1.0  0.6529210533835014  0.6653479593256933  0.3896473989663176  1.0000
  C   C31       1.0  0.8152297926467752  0.22535804773811208  0.04908886092183459  1.0000
  C   C32       1.0  0.7310994146205875  0.3058050284310596  0.07997647702772769  1.0000
  C   C33       1.0  0.6445559355861687  0.2324731608612822  0.29379294231173253  1.0000
  C   C34       1.0  0.6511843897375937  0.32198686751095107  0.28642517359082836  1.0000
  C   C35       1.0  0.6912676994438627  0.3574527609158481  0.20349969178557356  1.0000
  C   C36       1.0  0.6144920475869143  0.3760516802137984  0.3462747825237286  1.0000
  N   N1        1.0  0.17666188543470437  0.751425111860705  0.7795311923734473  1.0000
  N   N2        1.0  0.11330374467970472  0.8074791195229095  0.7299030277122044  1.0000
  N   N3        1.0  0.13894028628315175  0.29389531177885436  0.6694006072406252  1.0000
  N   N4        1.0  0.08265459107040841  0.37510907880363226  0.6939287662505293  1.0000
  N   N5        1.0  0.261456918640768  0.884803315667  0.14046026911248788  1.0000
  N   N6        1.0  0.18112029133351365  0.8642958929511907  0.18905092875542104  1.0000
  N   N7        1.0  0.6339738007994455  0.1866572979408545  0.838204841274745  1.0000
  N   N8        1.0  0.6068745970788855  0.2666970960431527  0.862657790057561  1.0000
  N   N9        1.0  0.855812423748965  0.7491110901148447  0.29571786570086545  1.0000
  N   N10       1.0  0.8209754414777846  0.7825655903336467  0.362368620817506  1.0000
  N   N11       1.0  0.7056175352002826  0.291706885503551  0.16740418129849377  1.0000
  N   N12       1.0  0.6763618418317562  0.21479958430527551  0.22144994460182224  1.0000
  O   O1        1.0  0.971345984248714  0.026527094644116303  0.9716046646237474  1.0000
  O   O2        1.0  0.0077145673335863325  0.8284404206434246  0.9412921762839941  1.0000
  O   O3        1.0  0.1355628724483111  0.8802132754678952  0.8720199094141847  1.0000
  O   O4        1.0  0.4168162274504681  0.6535857725568448  0.6062257868879541  1.0000
  O   O5        1.0  0.3095479670965702  0.7147448251891434  0.5267574886341818  1.0000
  O   O6        1.0  0.9727378511597423  0.20438565462180944  0.7971935131504039  1.0000
  O   O7        1.0  0.12360936189404731  0.10114827913191958  0.806119900827632  1.0000
  O   O8        1.0  0.3902115451402253  0.36610863055299353  0.5580865293125115  1.0000
  O   O9        1.0  0.28551758284992707  0.5146013677558443  0.5723712508918268  1.0000
  O   O10       1.0  0.0921955415717335  0.0497996493140462  0.06187297539145929  1.0000
  O   O11       1.0  0.19266236313402646  0.9589967936108932  0.9756713976946898  1.0000
  O   O12       1.0  0.4527689493773294  0.6713317727615052  0.2893242322786307  1.0000
  O   O13       1.0  0.3153724907549105  0.6505202164784548  0.3787813971496163  1.0000
  O   O14       1.0  0.8045462358639597  0.12918500592897428  0.8731762007703169  1.0000
  O   O15       1.0  0.7920324936824915  0.9826708935335944  0.9632412996381985  1.0000
  O   O16       1.0  0.5807136812510622  0.33316700742548727  0.600452350962179  1.0000
  O   O17       1.0  0.5795504394390109  0.4634599829570263  0.6254053992806516  1.0000
  O   O18       1.0  0.9572094016984779  0.9179646810736485  0.16398791025640955  1.0000
  O   O19       1.0  0.8984872957742455  0.8509613712299  0.11288458913175946  1.0000
  O   O20       1.0  0.6415685748610896  0.637655220923435  0.33821477519246906  1.0000
  O   O21       1.0  0.6065670027752504  0.6574377501138925  0.4643996235374246  1.0000
  O   O22       1.0  0.865984951987656  0.1570240089906321  0.09810450838221393  1.0000
  O   O23       1.0  0.8250349912945866  0.23829224246796343  0.9732183890366668  1.0000
  O   O24       1.0  0.6206037461017998  0.4620002727070728  0.31775665347837634  1.0000
  O   O25       1.0  0.5779455876249174  0.3348479121974606  0.4204758608677253  1.0000
  O   O26       1.0  0.4866868137009277  0.5355604705591973  0.4723450390515254  1.0000
