data_image0
_chemical_formula_structural       Ag4H32C32S2N6O12
_chemical_formula_sum              "Ag4 H32 C32 S2 N6 O12"
_cell_length_a       8.891281685562404
_cell_length_b       10.497559353632042
_cell_length_c       11.818389370187303
_cell_angle_alpha    85.86352995090256
_cell_angle_beta     69.16245522556132
_cell_angle_gamma    65.0363584270944

_space_group_name_H-M_alt    "P 1"
_space_group_IT_number       1

loop_
  _space_group_symop_operation_xyz
  'x, y, z'

loop_
  _atom_site_type_symbol
  _atom_site_label
  _atom_site_symmetry_multiplicity
  _atom_site_fract_x
  _atom_site_fract_y
  _atom_site_fract_z
  _atom_site_occupancy
  Ag  Ag1       1.0  0.32582985607888987  0.7224588076788907  0.7734096572834944  1.0000
  Ag  Ag2       1.0  0.6741681926177632  0.27754832365248927  0.22658969360796288  1.0000
  Ag  Ag3       1.0  0.4019748081770018  0.04235228446250972  0.6263517713514233  1.0000
  Ag  Ag4       1.0  0.5980200088844466  0.9576495955029148  0.37364876955776793  1.0000
  H   H1        1.0  0.8744790367937012  0.6140101659344452  0.49215599527445875  1.0000
  H   H2        1.0  0.12552394178825205  0.3859853793491084  0.5078410190116716  1.0000
  H   H3        1.0  0.13544086379854284  0.587941923314311  0.30767366553850917  1.0000
  H   H4        1.0  0.8645586803501996  0.4120578395833689  0.6923248740556077  1.0000
  H   H5        1.0  0.972341897923151  0.8958771449624695  0.6729448737457064  1.0000
  H   H6        1.0  0.0276634683545893  0.1041162360735228  0.3270566995484074  1.0000
  H   H7        1.0  0.953373357439929  0.7433882411559339  0.8871906318505723  1.0000
  H   H8        1.0  0.046632471525498334  0.25660198734178863  0.11281015821674603  1.0000
  H   H9        1.0  0.5416936160652311  0.8990906239073339  0.1455714210568432  1.0000
  H   H10       1.0  0.4583106308182109  0.10090486754348399  0.8544303296200014  1.0000
  H   H11       1.0  0.6542956286797972  0.7117836193904951  0.1351140332865413  1.0000
  H   H12       1.0  0.34570679699108076  0.28821080227210427  0.8648908136315825  1.0000
  H   H13       1.0  0.6518630839199272  0.7988092523376481  0.0006275214044109873  1.0000
  H   H14       1.0  0.3481387612946988  0.20118624083186631  0.9993757265098682  1.0000
  H   H15       1.0  0.9980360495079876  0.9164755983224782  0.2379081072862733  1.0000
  H   H16       1.0  0.001963789262596497  0.08353262724637739  0.7620856158210929  1.0000
  H   H17       1.0  0.35350802480112953  0.8836751809306804  0.9393002222623112  1.0000
  H   H18       1.0  0.646494515445724  0.11632567127025341  0.060692362852798  1.0000
  H   H19       1.0  0.40103828548397746  0.7480378114427424  0.0368748444027744  1.0000
  H   H20       1.0  0.5989624127911879  0.2519619872694748  0.9631191492583966  1.0000
  H   H21       1.0  0.28105973002356394  0.9264791801903061  0.09906542155943748  1.0000
  H   H22       1.0  0.718946428295844  0.0735216572079622  0.9009261834709295  1.0000
  H   H23       1.0  0.6093949798462217  0.6687045095196  0.5231227743554856  1.0000
  H   H24       1.0  0.39060308960954143  0.3313026055122776  0.4768782642311822  1.0000
  H   H25       1.0  0.24344992636421373  0.49186150257001776  0.7910691613300429  1.0000
  H   H26       1.0  0.7565487131682428  0.5081445491046921  0.20893263241286772  1.0000
  H   H27       1.0  0.23232019128682418  0.3671924080099274  0.7020514192290294  1.0000
  H   H28       1.0  0.7676808706735583  0.6328136256465839  0.2979505649716571  1.0000
  H   H29       1.0  0.09454140675828158  0.5492059116032807  0.7106717289574221  1.0000
  H   H30       1.0  0.9054541847783144  0.45079909151693437  0.289331800026467  1.0000
  H   H31       1.0  0.38877347995350675  0.7781987505317574  0.30319548483099373  1.0000
  H   H32       1.0  0.611227311737629  0.2218009748326963  0.6968061034586271  1.0000
  C   C1        1.0  0.9043473085097061  0.759478720201301  0.5936496339319179  1.0000
  C   C2        1.0  0.09565380374797877  0.24051361721441825  0.40635400129809107  1.0000
  C   C3        1.0  0.9507969647141934  0.6729139920785769  0.4902540203848744  1.0000
  C   C4        1.0  0.04920784186639785  0.3270804441648281  0.5097476416006047  1.0000
  C   C5        1.0  0.09591132265160938  0.6585235614309185  0.3867319853919541  1.0000
  C   C6        1.0  0.9040899213476691  0.3414730195450134  0.6132679758232699  1.0000
  C   C7        1.0  0.19795399694258697  0.7316051935842582  0.3846768624138975  1.0000
  C   C8        1.0  0.8020461069032974  0.26839351410600903  0.615321588488847  1.0000
  C   C9        1.0  0.15476869682731817  0.8163466827029068  0.48981542955789364  1.0000
  C   C10       1.0  0.8452261202341234  0.18365519726251728  0.510185111351298  1.0000
  C   C11       1.0  0.00668359481587517  0.8294782493957984  0.5928997052268061  1.0000
  C   C12       1.0  0.9933170132359093  0.17051727315719495  0.4071013378395707  1.0000
  C   C13       1.0  0.268491828835586  0.8851683462420681  0.4943521920052732  1.0000
  C   C14       1.0  0.7315059495918208  0.11483247679725389  0.5056467629751181  1.0000
  C   C15       1.0  0.9654804792797761  0.7807453740770782  0.9657802459818614  1.0000
  C   C16       1.0  0.034521873734242106  0.21924910463378208  0.03421869400302311  1.0000
  C   C17       1.0  0.8247759775992732  0.8172747044607859  0.0778894902499304  1.0000
  C   C18       1.0  0.17522760219802783  0.18271975301634313  0.922110810735255  1.0000
  C   C19       1.0  0.6582915925271133  0.8063999882423831  0.0904989802111161  1.0000
  C   C20       1.0  0.3417120080292904  0.19359445293525113  0.9095030084692727  1.0000
  C   C21       1.0  0.9909354825267298  0.8758649708529377  0.15854304199244507  1.0000
  C   C22       1.0  0.009065420146889372  0.12413901437123091  0.8414531845871807  1.0000
  C   C23       1.0  0.132533626786575  0.8400464661716214  0.046573643458735596  1.0000
  C   C24       1.0  0.8674666191804546  0.15995647692911064  0.9534219772768325  1.0000
  C   C25       1.0  0.3001373449631542  0.8514616447949025  0.02982058356167276  1.0000
  C   C26       1.0  0.6998639996390565  0.14853920419050584  0.9701731720959547  1.0000
  C   C27       1.0  0.3701341636942244  0.48733769359105145  0.599862827011812  1.0000
  C   C28       1.0  0.629861483333613  0.5126694394590173  0.4001380211170797  1.0000
  C   C29       1.0  0.5625353552634632  0.5917941682602647  0.5113088459432973  1.0000
  C   C30       1.0  0.43746029176437407  0.40821296478980434  0.4886920021855873  1.0000
  C   C31       1.0  0.22781163360392032  0.47285964865852065  0.7066190498998923  1.0000
  C   C32       1.0  0.7721845731210591  0.5271464291841426  0.29338170953763404  1.0000
  S   S1        1.0  0.7246697736058036  0.7704905061191598  0.7291639976474829  1.0000
  S   S2        1.0  0.2753332568739069  0.22950499841563496  0.2708372358766696  1.0000
  N   N1        1.0  0.11665210668033413  0.7918975479725319  0.9501463358086398  1.0000
  N   N2        1.0  0.8833503122044704  0.2080990525184419  0.049850767168855684  1.0000
  N   N3        1.0  0.840041027971161  0.8648396070485231  0.17457220467561288  1.0000
  N   N4        1.0  0.15996053140905522  0.13516542029908152  0.8254246277480705  1.0000
  N   N5        1.0  0.43592590525116737  0.5793287030012735  0.6090153107497472  1.0000
  N   N6        1.0  0.5640697417766702  0.4206784300487953  0.39098553737914443  1.0000
  O   O1        1.0  0.5761258614233851  0.7916246952509951  0.6876410926059011  1.0000
  O   O2        1.0  0.42386585375140845  0.20838766172210652  0.3123664326079734  1.0000
  O   O3        1.0  0.7855342481720984  0.6352537933550548  0.7815691607522197  1.0000
  O   O4        1.0  0.2144505222785113  0.36473974491049443  0.21843037172698132  1.0000
  O   O5        1.0  0.6858969004007772  0.8916811364173046  0.8063745559489562  1.0000
  O   O6        1.0  0.31411855240555286  0.10830689822752501  0.19362883295686842  1.0000
  O   O7        1.0  0.33649460132743036  0.7175305337042845  0.2822346999263133  1.0000
  O   O8        1.0  0.6635061592250507  0.2824692161094191  0.7177643568204958  1.0000
  O   O9        1.0  0.4013168972435961  0.8706281424595589  0.39539478392018174  1.0000
  O   O10       1.0  0.5986814720196136  0.1293716009230863  0.6046066139116562  1.0000
  O   O11       1.0  0.23378218724108263  0.9486074356305282  0.5937238253381596  1.0000
  O   O12       1.0  0.7662085594396613  0.05139760352608393  0.4062793227301641  1.0000
