data_image0
_chemical_formula_structural       Fe2Hg2H32C48S8Br4N4
_chemical_formula_sum              "Fe2 Hg2 H32 C48 S8 Br4 N4"
_cell_length_a       9.828181205786008
_cell_length_b       9.82771336704354
_cell_length_c       14.681179176179818
_cell_angle_alpha    104.20767149217293
_cell_angle_beta     106.0511036625771
_cell_angle_gamma    102.72984726849208

_space_group_name_H-M_alt    "P 1"
_space_group_IT_number       1

loop_
  _space_group_symop_operation_xyz
  'x, y, z'

loop_
  _atom_site_type_symbol
  _atom_site_label
  _atom_site_symmetry_multiplicity
  _atom_site_fract_x
  _atom_site_fract_y
  _atom_site_fract_z
  _atom_site_occupancy
  Fe  Fe1       1.0  0.9999966018444868  0.9999996650448894  0.9999991644587995  1.0000
  Fe  Fe2       1.0  0.5000007631824063  5.453580484985323e-07  0.5000004312742021  1.0000
  Hg  Hg1       1.0  0.7993541584713171  0.5494693820652401  0.24995725170388994  1.0000
  Hg  Hg2       1.0  0.2006445592331332  0.4505302777203752  0.7500423071957841  1.0000
  H   H1        1.0  0.0564541608439626  0.7428636185304358  0.9074359025172143  1.0000
  H   H2        1.0  0.33543491035374734  0.1489611507976747  0.5924884650198194  1.0000
  H   H3        1.0  0.943544904791516  0.25713712991134946  0.09256253274040926  1.0000
  H   H4        1.0  0.6645673120810403  0.8510429036580406  0.40751108742272624  1.0000
  H   H5        1.0  0.2437127064868037  0.008147534401665298  0.9320760524751037  1.0000
  H   H6        1.0  0.5762902727234334  0.3116809035381465  0.5680962325236508  1.0000
  H   H7        1.0  0.7562849348701662  0.9918554645687725  0.06792588156282879  1.0000
  H   H8        1.0  0.423713371611754  0.6883209381428301  0.4319032325304093  1.0000
  H   H9        1.0  0.2892741119198022  0.19507468517755916  0.1143459493015868  1.0000
  H   H10       1.0  0.5811810943479259  0.17503598214815952  0.38584568118351115  1.0000
  H   H11       1.0  0.7107189502618425  0.8049272281044682  0.8856556372182709  1.0000
  H   H12       1.0  0.4188204501666917  0.8249625659908092  0.6141542284628017  1.0000
  H   H13       1.0  0.13185066686645544  0.046752845056900603  0.2047602076321482  1.0000
  H   H14       1.0  0.34239140044656585  0.9272655741171508  0.2952539164854572  1.0000
  H   H15       1.0  0.8681410083473012  0.9532446380926202  0.7952390506722651  1.0000
  H   H16       1.0  0.6576115489778118  0.07273407514991703  0.7047464312959663  1.0000
  H   H17       1.0  0.4681958255879054  0.5103537400156953  0.20775108128989223  1.0000
  H   H18       1.0  0.8026891875692928  0.260709504786739  0.2924654990054876  1.0000
  H   H19       1.0  0.5318046605211109  0.4896448183036953  0.7922493134143452  1.0000
  H   H20       1.0  0.19731129949096268  0.7392890384310887  0.7075335311420191  1.0000
  H   H21       1.0  0.48074528329078  0.3812956564797645  0.33416215633274504  1.0000
  H   H22       1.0  0.5473539412084278  0.1469104019712546  0.16595482350540183  1.0000
  H   H23       1.0  0.5192552023426131  0.6187029093904072  0.6658389206498541  1.0000
  H   H24       1.0  0.452645486970603  0.8530881589777694  0.8340453739783913  1.0000
  H   H25       1.0  0.2778137678881692  0.3380076349480988  0.4036806938029898  1.0000
  H   H26       1.0  0.4346121063306185  0.8744417997199961  0.09623083871682779  1.0000
  H   H27       1.0  0.7221849493406652  0.6619920323882981  0.596319547375046  1.0000
  H   H28       1.0  0.565389437708376  0.1255567559697539  0.9037697532078468  1.0000
  H   H29       1.0  0.05641703799564371  0.42153067773819697  0.3471670454647722  1.0000
  H   H30       1.0  0.5746551910609483  0.7095192526611458  0.15265500338183102  1.0000
  H   H31       1.0  0.9435827376387921  0.578468979417778  0.6528327106553391  1.0000
  H   H32       1.0  0.42534635345366933  0.290479295477823  0.8473449062644747  1.0000
  C   C1        1.0  0.06301203165181592  0.8535452070885442  0.06327862063161399  1.0000
  C   C2        1.0  0.29041960296736846  0.999823334632019  0.4366266648889407  1.0000
  C   C3        1.0  0.9369831652829106  0.14645335682823912  0.9367201056920678  1.0000
  C   C4        1.0  0.7095812310726687  0.00017631234354100017  0.5633726061732461  1.0000
  C   C5        1.0  0.09917943658694381  0.8406902335048018  0.9733278474954831  1.0000
  C   C6        1.0  0.36748474878156406  0.12586693205666685  0.5266398265587995  1.0000
  C   C7        1.0  0.9008192806418902  0.15930943383159504  0.026672393682552763  1.0000
  C   C8        1.0  0.632516779218044  0.8741349224343582  0.47335992633274776  1.0000
  C   C9        1.0  0.19788164871101094  0.9804134774981038  0.9868453836121776  1.0000
  C   C10       1.0  0.49384896195812905  0.21108878968676958  0.5132851951795631  1.0000
  C   C11       1.0  0.802115992645966  0.0195895214723336  0.013156550425755106  1.0000
  C   C12       1.0  0.5061532765160522  0.788911965967671  0.48671519629610327  1.0000
  C   C13       1.0  0.2227672758180432  0.07944200790446843  0.0839126931048426  1.0000
  C   C14       1.0  0.49591576971198487  0.13896264130894315  0.4162213929778673  1.0000
  C   C15       1.0  0.7772275561950224  0.9205587812589897  0.9160876823844859  1.0000
  C   C16       1.0  0.5040836424276591  0.8610392184413557  0.5837779654728052  1.0000
  C   C17       1.0  0.1397604888491202  0.0021324950412733  0.1316970497194276  1.0000
  C   C18       1.0  0.3707718482775846  0.008220667661390704  0.3683150775823094  1.0000
  C   C19       1.0  0.8602329392054173  0.997867177892516  0.8683015230780599  1.0000
  C   C20       1.0  0.6292311011468001  0.9917789816056769  0.6316852701991208  1.0000
  C   C21       1.0  0.052914492880773864  0.6365356117175125  0.14407366921423656  1.0000
  C   C22       1.0  0.9925905959399941  0.9090217977763047  0.3559281545697175  1.0000
  C   C23       1.0  0.9470845892697142  0.36346183037220925  0.8559249227981525  1.0000
  C   C24       1.0  0.007410949525862501  0.0909767352611013  0.6440703905198646  1.0000
  C   C25       1.0  0.25566347487433927  0.5395191475896015  0.20746858309082236  1.0000
  C   C26       1.0  0.832290891003183  0.0484515660224858  0.29252980290338837  1.0000
  C   C27       1.0  0.7443359537803147  0.4604794058086413  0.7925309321146159  1.0000
  C   C28       1.0  0.16771134842223742  0.9515491745303923  0.7074692240155473  1.0000
  C   C29       1.0  0.3793539898026381  0.4921293431579414  0.2384521213293382  1.0000
  C   C30       1.0  0.7538567950256905  0.1411582934093829  0.2616560095563543  1.0000
  C   C31       1.0  0.6206454388520157  0.5078692102403083  0.7615473938760928  1.0000
  C   C32       1.0  0.2461436920345719  0.858840249808438  0.7383430205911523  1.0000
  C   C33       1.0  0.384151744704866  0.41737093978976253  0.3080371132889256  1.0000
  C   C34       1.0  0.6095767499692997  0.07642313100879511  0.1920168856152458  1.0000
  C   C35       1.0  0.6158476834741649  0.5826276211592615  0.6919630841948745  1.0000
  C   C36       1.0  0.39042373661533963  0.9235754197598144  0.8079828268106297  1.0000
  C   C37       1.0  0.2686804422458309  0.39194229453408275  0.3466819893929625  1.0000
  C   C38       1.0  0.5455638747192708  0.9223186894692147  0.15320702073065456  1.0000
  C   C39       1.0  0.7313193329129818  0.6080573701726807  0.6533184490055177  1.0000
  C   C40       1.0  0.4544394221605189  0.07768205600480371  0.846792885687087  1.0000
  C   C41       1.0  0.14422804937905914  0.43759091196972844  0.31517956259286  1.0000
  C   C42       1.0  0.6227173522653473  0.8293352019473376  0.18465159572773623  1.0000
  C   C43       1.0  0.8557731302138977  0.5624098614159154  0.6848219962190996  1.0000
  C   C44       1.0  0.3772855976346534  0.1706644397689558  0.8153480697753255  1.0000
  C   C45       1.0  0.13645081390910718  0.5107443746527025  0.2439209105355289  1.0000
  C   C46       1.0  0.76707872339  0.8927640557981392  0.255950948613723  1.0000
  C   C47       1.0  0.8635489617253285  0.4892552825032725  0.7560788455845823  1.0000
  C   C48       1.0  0.23292351555980417  0.10723669230551991  0.7440487605835813  1.0000
  S   S1        1.0  0.22109770802574497  0.6391206341467353  0.125738728717522  1.0000
  S   S2        1.0  0.013572714304146397  0.0955693553540584  0.3743202098105344  1.0000
  S   S3        1.0  0.7789024315791054  0.3608768128641345  0.8742607427936662  1.0000
  S   S4        1.0  0.9864284662400494  0.9044314029300224  0.6256799844447016  1.0000
  S   S5        1.0  0.9335520142330651  0.7189420257272657  0.08256613465611905  1.0000
  S   S6        1.0  0.13651885454808615  0.8510923332795599  0.41735693318071293  1.0000
  S   S7        1.0  0.0664456625320398  0.28105432278513837  0.9174327014995143  1.0000
  S   S8        1.0  0.8634830364706971  0.14890732616792954  0.5826438996586418  1.0000
  Br  Br1       1.0  0.606710274140994  0.4000661399156372  0.07715943325790421  1.0000
  Br  Br2       1.0  0.8227743497892844  0.5295794265462774  0.4227366856638994  1.0000
  Br  Br3       1.0  0.3932894845028089  0.5999368311431824  0.9228408483858105  1.0000
  Br  Br4       1.0  0.177225773300556  0.4704213268166555  0.5772626290925302  1.0000
  N   N1        1.0  0.02311302531916231  0.5661007304877402  0.20531125606690642  1.0000
  N   N2        1.0  0.8609843303972227  0.8179976981135083  0.29457309335141696  1.0000
  N   N3        1.0  0.9768867503152735  0.4338989266682418  0.794688500053212  1.0000
  N   N4        1.0  0.1390165036428144  0.18200194886205173  0.7054261777107699  1.0000
