data_image0
_chemical_formula_structural       Cu8H32C32N16
_chemical_formula_sum              "Cu8 H32 C32 N16"
_cell_length_a       7.82977613718327
_cell_length_b       8.896480783999289
_cell_length_c       14.477874422167778
_cell_angle_alpha    76.54807314248055
_cell_angle_beta     88.29254593410118
_cell_angle_gamma    88.53440377433607

_space_group_name_H-M_alt    "P 1"
_space_group_IT_number       1

loop_
  _space_group_symop_operation_xyz
  'x, y, z'

loop_
  _atom_site_type_symbol
  _atom_site_label
  _atom_site_symmetry_multiplicity
  _atom_site_fract_x
  _atom_site_fract_y
  _atom_site_fract_z
  _atom_site_occupancy
  Cu  Cu1       1.0  0.21105800518084547  0.3781578033467098  0.6173106227511198  1.0000
  Cu  Cu2       1.0  0.788944426270923  0.6218474827834511  0.3826926671265696  1.0000
  Cu  Cu3       1.0  0.46466342674679584  0.8884206686614744  0.5698522014177243  1.0000
  Cu  Cu4       1.0  0.5353415478539104  0.11158460080069688  0.4301475935945618  1.0000
  Cu  Cu5       1.0  0.18647101765422747  0.5956318357110744  0.8061261744702152  1.0000
  Cu  Cu6       1.0  0.8135265154962282  0.4043630416184384  0.1938773236034663  1.0000
  Cu  Cu7       1.0  0.4435926204066191  0.0932064105966433  0.7978627782140464  1.0000
  Cu  Cu8       1.0  0.5564035644148575  0.9067907500466246  0.2021341963782177  1.0000
  H   H1        1.0  0.5604608788637008  0.3405220426551309  0.6353812323238515  1.0000
  H   H2        1.0  0.4395377311826677  0.6594820723788145  0.3646188390449652  1.0000
  H   H3        1.0  0.8400353555819178  0.45982375010244414  0.5746614463806735  1.0000
  H   H4        1.0  0.15996325693345875  0.5401803681429129  0.42533931519439244  1.0000
  H   H5        1.0  0.0953480846815253  0.12387603954894634  0.7750406410953588  1.0000
  H   H6        1.0  0.904649293509898  0.8761257606680102  0.2249590955265504  1.0000
  H   H7        1.0  0.9379772334387652  0.9136037552893723  0.8721538906019787  1.0000
  H   H8        1.0  0.06201891042869789  0.08639572689917688  0.1278448210667733  1.0000
  H   H9        1.0  0.7168078173475009  0.8932488806401722  0.852667274022245  1.0000
  H   H10       1.0  0.28318825150944343  0.10675406620350708  0.14733024712687381  1.0000
  H   H11       1.0  0.757903094374974  0.9241642055976409  0.017746291273788063  1.0000
  H   H12       1.0  0.24209816048035282  0.07583527536907297  0.9822523327266381  1.0000
  H   H13       1.0  0.6390722177439869  0.08387648066257469  0.9520087999160225  1.0000
  H   H14       1.0  0.3609277401218732  0.9161241629879411  0.047991059642853946  1.0000
  H   H15       1.0  0.8585975497820754  0.10461197094804928  0.9726932598599944  1.0000
  H   H16       1.0  0.14140370754225265  0.8953875132300837  0.027306054346681218  1.0000
  H   H17       1.0  0.540692983244014  0.6329282638984991  0.7364781326567923  1.0000
  H   H18       1.0  0.4593094792857642  0.3670746878407273  0.2635206593194184  1.0000
  H   H19       1.0  0.9098827664304776  0.41268643805377536  0.8573048472283203  1.0000
  H   H20       1.0  0.09011343320499779  0.5873107418579833  0.1426962686014406  1.0000
  H   H21       1.0  0.6839241888638126  0.41412239561549297  0.8429594268087116  1.0000
  H   H22       1.0  0.3160731794516137  0.5858793917558031  0.1570375489882068  1.0000
  H   H23       1.0  0.7506427568158782  0.43598720970278737  0.006619384432589514  1.0000
  H   H24       1.0  0.24935083402665012  0.5640122763080909  0.993380061276568  1.0000
  H   H25       1.0  0.6454807137181503  0.6073245477194434  0.9447397139766593  1.0000
  H   H26       1.0  0.35451545432982084  0.39267377851358276  0.05525916446322301  1.0000
  H   H27       1.0  0.8702104860714711  0.6054816313536262  0.9600823803018129  1.0000
  H   H28       1.0  0.12978438498702619  0.3945178575632155  0.03991773369651952  1.0000
  H   H29       1.0  0.8392300075739951  0.9713077203686777  0.5641492616968335  1.0000
  H   H30       1.0  0.16078022309760334  0.02869061213855419  0.435851446273908  1.0000
  H   H31       1.0  0.10052233524782388  0.8567117350211428  0.6546799356878594  1.0000
  H   H32       1.0  0.8994827508888931  0.1432889298874542  0.3453246676464373  1.0000
  C   C1        1.0  0.37559874046891645  0.08309408828500858  0.5747551021061952  1.0000
  C   C2        1.0  0.6243999055934706  0.9169076987808251  0.4252418517736346  1.0000
  C   C3        1.0  0.28823076897899813  0.5777211351191126  0.5898819998422553  1.0000
  C   C4        1.0  0.7117677784018496  0.42228646062704894  0.4101203320381686  1.0000
  C   C5        1.0  0.3507202850063534  0.8994947015027035  0.8179069773838492  1.0000
  C   C6        1.0  0.6492810833445121  0.10049899005217355  0.1820904098534797  1.0000
  C   C7        1.0  0.27917118745839514  0.39928987198140925  0.82169345849789  1.0000
  C   C8        1.0  0.7208251187751029  0.6007026969539452  0.17831108524137562  1.0000
  C   C9        1.0  0.6800388273822334  0.2928481841371777  0.667707333799342  1.0000
  C   C10       1.0  0.3199674683884409  0.7071547666856686  0.33229139242562405  1.0000
  C   C11       1.0  0.8349334244049514  0.35859373355657437  0.6338651305555061  1.0000
  C   C12       1.0  0.16506277769952496  0.641403449566603  0.3661366754804972  1.0000
  C   C13       1.0  0.9748045345449792  0.17353247361524635  0.7448234296614871  1.0000
  C   C14       1.0  0.02519036069402599  0.8264658593460722  0.2551768511079686  1.0000
  C   C15       1.0  0.8198446812874065  0.10791981028697957  0.7811195974566942  1.0000
  C   C16       1.0  0.1801539721819836  0.8920819864131032  0.21887942704188387  1.0000
  C   C17       1.0  0.8130420997096405  0.9738704646745262  0.8654010615600924  1.0000
  C   C18       1.0  0.1869539957968129  0.026131329425055593  0.1345973165663992  1.0000
  C   C19       1.0  0.7647051751696522  0.024654276015425598  0.9572896661753562  1.0000
  C   C20       1.0  0.23529477775821303  0.9753463612122599  0.042708812971028506  1.0000
  C   C21       1.0  0.6664305251361282  0.6832585198735613  0.7183823902884043  1.0000
  C   C22       1.0  0.3335719615741581  0.31674327591014867  0.2816165684589294  1.0000
  C   C23       1.0  0.809360082058255  0.6184429298977675  0.7698628593498782  1.0000
  C   C24       1.0  0.19064370657950747  0.3815577096249639  0.2301362442515043  1.0000
  C   C25       1.0  0.7921520620755371  0.4841291449754335  0.8534672057245488  1.0000
  C   C26       1.0  0.20784794168233126  0.5158691835526382  0.14653229717033872  1.0000
  C   C27       1.0  0.7630828972693563  0.5367469975354452  0.9465680985252333  1.0000
  C   C28       1.0  0.23691196885114607  0.4632524849585592  0.053430635060600216  1.0000
  C   C29       1.0  0.831659460337839  0.8698469751710859  0.6231524603782006  1.0000
  C   C30       1.0  0.16834823902033239  0.1301502019915475  0.3768484581978342  1.0000
  C   C31       1.0  0.9747562762487901  0.8066657691801775  0.6728830828029757  1.0000
  C   C32       1.0  0.02524884590394549  0.19333256776030075  0.32711840304233414  1.0000
  N   N1        1.0  0.31117571366106483  0.19516677556983802  0.592113278119207  1.0000
  N   N2        1.0  0.6888241065287559  0.804840813448038  0.4078876514316363  1.0000
  N   N3        1.0  0.34471556238055706  0.7027237274921345  0.5750860498360594  1.0000
  N   N4        1.0  0.6552894462766473  0.297280398860181  0.4249166727723477  1.0000
  N   N5        1.0  0.28538368028027594  0.7791470417375804  0.8257443747199815  1.0000
  N   N6        1.0  0.7146202657855126  0.22084667810911898  0.1742591805394227  1.0000
  N   N7        1.0  0.3448488804128686  0.27751231672261406  0.8245296038738559  1.0000
  N   N8        1.0  0.6551460824296524  0.7224825419493256  0.17546979679649166  1.0000
  N   N9        1.0  0.6709277783563293  0.16879818428875376  0.7416757819098052  1.0000
  N   N10       1.0  0.32906704434115835  0.8312036165391202  0.258323998546267  1.0000
  N   N11       1.0  0.9836528058536088  0.29912270039978484  0.672222611239647  1.0000
  N   N12       1.0  0.0163484055787109  0.700879098900792  0.32777705963101766  1.0000
  N   N13       1.0  0.6763226868025143  0.8072580440545135  0.6452767342966155  1.0000
  N   N14       1.0  0.32368491336463723  0.19274375371876568  0.3547228269886418  1.0000
  N   N15       1.0  0.9651891255397302  0.6804743381038278  0.7457710835702046  1.0000
  N   N16       1.0  0.03481347023758019  0.31952284991488966  0.2542319932928976  1.0000
