data_image0
_chemical_formula_structural       Cu12H72C108N28
_chemical_formula_sum              "Cu12 H72 C108 N28"
_cell_length_a       28.91870136560842
_cell_length_b       29.483639683814435
_cell_length_c       29.71837958535259
_cell_angle_alpha    89.97078562304957
_cell_angle_beta     89.97794950184509
_cell_angle_gamma    89.95978826248955

_space_group_name_H-M_alt    "P 1"
_space_group_IT_number       1

loop_
  _space_group_symop_operation_xyz
  'x, y, z'

loop_
  _atom_site_type_symbol
  _atom_site_label
  _atom_site_symmetry_multiplicity
  _atom_site_fract_x
  _atom_site_fract_y
  _atom_site_fract_z
  _atom_site_occupancy
  Cu  Cu1       1.0  0.37475006242881637  0.5812413295306413  0.6671661082796232  1.0000
  Cu  Cu2       1.0  0.3295811833874041  0.6253274869162194  0.5799343992140891  1.0000
  Cu  Cu3       1.0  0.4181030669463154  0.6702122203322531  0.6251849651722381  1.0000
  Cu  Cu4       1.0  0.626516502910853  0.9165560650961806  0.1690679925553056  1.0000
  Cu  Cu5       1.0  0.6691739031345705  0.8749655368126027  0.0799484429715847  1.0000
  Cu  Cu6       1.0  0.5802182795409578  0.8298213135562945  0.12448185805352098  1.0000
  Cu  Cu7       1.0  0.8735583596737654  0.41758753077003513  0.8315475333234019  1.0000
  Cu  Cu8       1.0  0.8295352040531582  0.37411783118032815  0.9193367161142019  1.0000
  Cu  Cu9       1.0  0.9184958002444147  0.32961806657237264  0.8748930510121296  1.0000
  Cu  Cu10      1.0  0.12606986129105738  0.0837715252416942  0.3314025179528243  1.0000
  Cu  Cu11      1.0  0.16905894445394404  0.1257717329509802  0.41998258227312135  1.0000
  Cu  Cu12      1.0  0.08011297142308388  0.1709804025029271  0.37544285729795485  1.0000
  H   H1        1.0  0.30788981669625304  0.49763529867778544  0.6820872867735941  1.0000
  H   H2        1.0  0.24687579052338995  0.5569136547722522  0.5626349432039888  1.0000
  H   H3        1.0  0.5001540558396654  0.6883841826432828  0.6937583316545994  1.0000
  H   H4        1.0  0.4424320391557117  0.5650286193058918  0.7496292860887832  1.0000
  H   H5        1.0  0.3130327156959253  0.6929522823296917  0.498523928546497  1.0000
  H   H6        1.0  0.4353201154504802  0.752328266686355  0.5584488405720336  1.0000
  H   H7        1.0  0.6955201994984533  0.9984376164501114  0.1860169604132977  1.0000
  H   H8        1.0  0.7519134181169844  0.9434035709205092  0.06246264886807039  1.0000
  H   H9        1.0  0.49774144070778437  0.8120628811400225  0.19286425454324524  1.0000
  H   H10       1.0  0.5597935427865436  0.9314651071387914  0.2523773034038328  1.0000
  H   H11       1.0  0.6850519066695071  0.8086159035135337  0.9974333216699305  1.0000
  H   H12       1.0  0.5624983976006985  0.7488435004802907  0.0565959917008172  1.0000
  H   H13       1.0  0.8050747548204596  0.5000128376655654  0.8155124311351399  1.0000
  H   H14       1.0  0.7472587628148657  0.44296181227795  0.9375191252961699  1.0000
  H   H15       1.0  0.0010126116274805  0.3120369213052144  0.806858972212595  1.0000
  H   H16       1.0  0.941690986758253  0.4339868476479083  0.7494871187922241  1.0000
  H   H17       1.0  0.8127068121208081  0.30665003814472414  0.0007354307608764999  1.0000
  H   H18       1.0  0.9364676036893441  0.24818641817423534  0.9425236079041281  1.0000
  H   H19       1.0  0.19498922560104145  0.0017242829801845001  0.3145230976423149  1.0000
  H   H20       1.0  0.25175653226922623  0.057216338605066086  0.437635764205936  1.0000
  H   H21       1.0  0.997336849077392  0.18838985184608245  0.3074630741109985  1.0000
  H   H22       1.0  0.05920240618200269  0.0685634248624609  0.24835807068966884  1.0000
  H   H23       1.0  0.18494229170095614  0.1922138941148717  0.50227670791498  1.0000
  H   H24       1.0  0.0627179653234222  0.2524066697029355  0.4427838985774101  1.0000
  H   H25       1.0  0.7875576386209742  0.019188046440497396  0.0523083208408153  1.0000
  H   H26       1.0  0.7713045634699965  0.034439061750312285  0.19575099353303216  1.0000
  H   H27       1.0  0.8296650003381811  0.09528723264119779  0.1954960807911732  1.0000
  H   H28       1.0  0.8468068262535764  0.07928501965580637  0.05244245678957779  1.0000
  H   H29       1.0  0.2169901031725202  0.47525527719852073  0.5503483576777908  1.0000
  H   H30       1.0  0.22697372257295706  0.4682310209270355  0.6948813449037274  1.0000
  H   H31       1.0  0.16794307885629675  0.4078726115573162  0.6959127928898139  1.0000
  H   H32       1.0  0.1568137996126779  0.41594247849329247  0.5515752800756883  1.0000
  H   H33       1.0  0.27112476857983125  0.9658424733204994  0.30459998581578407  1.0000
  H   H34       1.0  0.28725909494023216  0.9814554761753271  0.4479918703272928  1.0000
  H   H35       1.0  0.34672133077922496  0.9214681776040123  0.4479867224075632  1.0000
  H   H36       1.0  0.3297201294816645  0.9051103233409492  0.30496269412976307  1.0000
  H   H37       1.0  0.7227601225273972  0.5284581479962611  0.804318139983941  1.0000
  H   H38       1.0  0.7189365719430609  0.525913260170178  0.9492439349257182  1.0000
  H   H39       1.0  0.6592906289184125  0.5857509519822841  0.9487624030267412  1.0000
  H   H40       1.0  0.6643177618432715  0.589390753105441  0.8038768004211504  1.0000
  H   H41       1.0  0.9695998422227418  0.2013975460360626  0.22456264391021108  1.0000
  H   H42       1.0  0.9770440141026879  0.0555055967616838  0.22015046353981657  1.0000
  H   H43       1.0  0.9185125963330378  0.0545435014050355  0.15978341444221658  1.0000
  H   H44       1.0  0.9100290928146105  0.20034996676003658  0.1651813571200975  1.0000
  H   H45       1.0  0.5179397391827861  0.5547941563672298  0.7854513743626298  1.0000
  H   H46       1.0  0.5354999628685845  0.6990893925352281  0.7691868599365961  1.0000
  H   H47       1.0  0.5949300663856717  0.6987531518078355  0.8287153916258133  1.0000
  H   H48       1.0  0.5764752673770486  0.5548577826832856  0.8457193134802309  1.0000
  H   H49       1.0  0.030135837173908393  0.29992678000862577  0.7258027200185636  1.0000
  H   H50       1.0  0.023445764355550097  0.44582408052458067  0.7201484894140221  1.0000
  H   H51       1.0  0.08202144590387658  0.4460341902845998  0.6598101346270865  1.0000
  H   H52       1.0  0.08987166631540329  0.30024824847829024  0.6664880263569444  1.0000
  H   H53       1.0  0.4701872562262252  0.7988954620124813  0.27638086115167226  1.0000
  H   H54       1.0  0.47712274680240085  0.944809202977531  0.28009514250984313  1.0000
  H   H55       1.0  0.4184778423563245  0.945985279260924  0.3403621239223114  1.0000
  H   H56       1.0  0.4105083096780432  0.8001321488216319  0.3356774915675942  1.0000
  H   H57       1.0  0.8006711100064621  0.22392267271798258  0.028307945486368193  1.0000
  H   H58       1.0  0.9495929599942412  0.22180651601124166  0.0248406061228863  1.0000
  H   H59       1.0  0.9501872508061806  0.1626129660120412  0.08357312924620428  1.0000
  H   H60       1.0  0.8012996623633908  0.1656707082942077  0.08801440474181989  1.0000
  H   H61       1.0  0.30041500784628267  0.7761935129714318  0.47153615236886987  1.0000
  H   H62       1.0  0.4492898930295083  0.7787518325163983  0.4759913372833536  1.0000
  H   H63       1.0  0.4500659301319772  0.8381350636933007  0.4174504612618293  1.0000
  H   H64       1.0  0.30123146959407154  0.8346511044350678  0.4120364158921319  1.0000
  H   H65       1.0  0.5491993091771475  0.7220457344110258  0.974103493543552  1.0000
  H   H66       1.0  0.6980803644226441  0.7259610400928622  0.970226044651447  1.0000
  H   H67       1.0  0.6981201487265166  0.6673397227462203  0.9110454451929327  1.0000
  H   H68       1.0  0.5493152386378881  0.6624506987641396  0.9157676303377185  1.0000
  H   H69       1.0  0.19794937321948675  0.2731604920288504  0.5307663680375398  1.0000
  H   H70       1.0  0.049274184717738485  0.28039599612604604  0.5241524214283757  1.0000
  H   H71       1.0  0.049466153889575495  0.33959491602161757  0.5829142640313306  1.0000
  H   H72       1.0  0.1979785819178161  0.33137754396395275  0.5904535575270415  1.0000
  C   C1        1.0  0.29819896140617885  0.5180244308839832  0.6531728109051826  1.0000
  C   C2        1.0  0.2620062332198144  0.5118053772491535  0.6222872939397703  1.0000
  C   C3        1.0  0.2675692746187933  0.5477310186827467  0.5917137622733648  1.0000
  C   C4        1.0  0.48037600659743857  0.6582901586617779  0.7021819604701491  1.0000
  C   C5        1.0  0.4867392950647086  0.6268573633912028  0.7372188147048817  1.0000
  C   C6        1.0  0.45136175201271556  0.5949631535755844  0.7302387603593558  1.0000
  C   C7        1.0  0.3426485118825012  0.702260687453972  0.5189371508408555  1.0000
  C   C8        1.0  0.37434861315935547  0.7378833097733803  0.5132840584970139  1.0000
  C   C9        1.0  0.4056060845103388  0.7320023727761438  0.5489841500192084  1.0000
  C   C10       1.0  0.7040497388085143  0.9792677812089253  0.15596747276677544  1.0000
  C   C11       1.0  0.7392913963786609  0.986462788173924  0.12415157977075347  1.0000
  C   C12       1.0  0.7323915089349028  0.9516379186637991  0.09257241286456257  1.0000
  C   C13       1.0  0.5186816381789896  0.8411280467169107  0.20211925480574414  1.0000
  C   C14       1.0  0.5135025178314122  0.8715951146945642  0.23810406575795887  1.0000
  C   C15       1.0  0.5498285825228847  0.9025991341370767  0.23192669901514043  1.0000
  C   C16       1.0  0.6553644056399219  0.7991605587364178  0.017721888682501692  1.0000
  C   C17       1.0  0.6236856584550239  0.763582519591253  0.011732648772039096  1.0000
  C   C18       1.0  0.592270236683319  0.7692146770699748  0.047359053062926586  1.0000
  C   C19       1.0  0.796211000590297  0.48019285560113195  0.8450583878019059  1.0000
  C   C20       1.0  0.7608021817128898  0.4869754210777586  0.8767247115626302  1.0000
  C   C21       1.0  0.7672162804377505  0.45162366364196765  0.9077961063623403  1.0000
  C   C22       1.0  0.9806914342553625  0.3416955710493994  0.7980478276861261  1.0000
  C   C23       1.0  0.9867828131827564  0.37290858502463914  0.7628285178058147  1.0000
  C   C24       1.0  0.950939376593311  0.40442439107208367  0.7693112701970859  1.0000
  C   C25       1.0  0.8426892202966696  0.2975222154898986  0.9807075579761458  1.0000
  C   C26       1.0  0.8747364190844349  0.262260288268898  0.9869044501008232  1.0000
  C   C27       1.0  0.9063839924585224  0.26824986001143  0.9515379671672759  1.0000
  C   C28       1.0  0.2036131616296331  0.0210069875159462  0.3444569805027341  1.0000
  C   C29       1.0  0.23896480417272406  0.013931873318462398  0.3761573774921203  1.0000
  C   C30       1.0  0.2321530057688506  0.048880117007975295  0.4076323232692474  1.0000
  C   C31       1.0  0.0182489996066266  0.1592374806282919  0.29829134390368484  1.0000
  C   C32       1.0  0.013023604823857197  0.1286307845256758  0.2624637121161086  1.0000
  C   C33       1.0  0.04929427260763929  0.09754530882465667  0.2687021506772282  1.0000
  C   C34       1.0  0.1553465280991233  0.2017691830891479  0.4819247530894444  1.0000
  C   C35       1.0  0.12371074031654666  0.2374515750150294  0.48781377242884355  1.0000
  C   C36       1.0  0.09242125716718869  0.23194958207358238  0.4521102169327803  1.0000
  C   C37       1.0  0.7967147244452943  0.0354993813079076  0.08402077992970897  1.0000
  C   C38       1.0  0.7745345382894298  0.0219829749971368  0.1240206211803851  1.0000
  C   C39       1.0  0.787406439034825  0.044239884350155  0.1639969033500819  1.0000
  C   C40       1.0  0.8203783695965965  0.078525484811145  0.16408546679043204  1.0000
  C   C41       1.0  0.842284211520386  0.09168200880673541  0.12394437246978637  1.0000
  C   C42       1.0  0.8300661254381791  0.06948007646302298  0.08386055052835667  1.0000
  C   C43       1.0  0.20612277909203405  0.46092072096161024  0.5825218535719614  1.0000
  C   C44       1.0  0.2267004881769452  0.4764068427142618  0.6225504249132641  1.0000
  C   C45       1.0  0.21206036193956382  0.4565934894013921  0.6632081082050121  1.0000
  C   C46       1.0  0.17870949093318694  0.4227098252263488  0.663985073827824  1.0000
  C   C47       1.0  0.15819674224989191  0.4076612318653402  0.6238202685068046  1.0000
  C   C48       1.0  0.1723361632633384  0.42737992179250023  0.583009920170305  1.0000
  C   C49       1.0  0.2872466256576587  0.9561268681518698  0.33636312578114047  1.0000
  C   C50       1.0  0.2742870840740537  0.9784372944039248  0.3763118847890823  1.0000
  C   C51       1.0  0.2964895065919961  0.9650590097872183  0.4163187582300409  1.0000
  C   C52       1.0  0.32995612080993186  0.931132207816887  0.41654646722284366  1.0000
  C   C53       1.0  0.34226998604117387  0.908865494728829  0.3765039650497428  1.0000
  C   C54       1.0  0.32034301627476214  0.921904955589248  0.3363459805078718  1.0000
  C   C55       1.0  0.709354683479006  0.5412317051697784  0.836215865112301  1.0000
  C   C56       1.0  0.7255757315161233  0.522503027787387  0.8767939296966742  1.0000
  C   C57       1.0  0.706786274094206  0.5393677545126677  0.9171374934819665  1.0000
  C   C58       1.0  0.6732917510268803  0.573237241079724  0.9170440979738641  1.0000
  C   C59       1.0  0.6576290863055405  0.5919720463922004  0.876289276853754  1.0000
  C   C60       1.0  0.6762736749461167  0.5754430841056005  0.8357881617107024  1.0000
  C   C61       1.0  0.95825209016008  0.16894743798020784  0.21081060206118  1.0000
  C   C62       1.0  0.9779770857723873  0.128496303435476  0.22705305560521785  1.0000
  C   C63       1.0  0.9627828948380779  0.08748912616938749  0.20793929287753335  1.0000
  C   C64       1.0  0.9296947680978035  0.08675959601266921  0.17406265974941698  1.0000
  C   C65       1.0  0.9100109958391512  0.12734065420193016  0.15823398812484868  1.0000
  C   C66       1.0  0.9247551065892025  0.1685387545706121  0.17722719265306347  1.0000
  C   C67       1.0  0.534322669843945  0.5866976066817314  0.7949707951399673  1.0000
  C   C68       1.0  0.5218272334548644  0.6269782600077531  0.7726047516163062  1.0000
  C   C69       1.0  0.544366657426977  0.6671725749306036  0.7856594588323131  1.0000
  C   C70       1.0  0.5777954827506804  0.6672203796313453  0.8193161384441366  1.0000
  C   C71       1.0  0.5897069015633748  0.6268284402062465  0.8415578557663819  1.0000
  C   C72       1.0  0.567377995807625  0.5865032354022405  0.8289135784412378  1.0000
  C   C73       1.0  0.0416542777793936  0.33220503428801607  0.711759801765801  1.0000
  C   C74       1.0  0.022047729625235497  0.3728631680507846  0.7276097431268836  1.0000
  C   C75       1.0  0.037510839674879996  0.41365663220027915  0.7082108821051704  1.0000
  C   C76       1.0  0.07063962609615966  0.4139699818244935  0.6743202170314218  1.0000
  C   C77       1.0  0.09008910227554168  0.37316092423969843  0.6588251428215912  1.0000
  C   C78       1.0  0.0752032509635967  0.3322029935149046  0.6782152362626945  1.0000
  C   C79       1.0  0.45873061089390876  0.831403657081168  0.2899640680413142  1.0000
  C   C80       1.0  0.4783787306244703  0.871791159373906  0.2735226559574285  1.0000
  C   C81       1.0  0.4629721787204629  0.912850904323264  0.2924480351098281  1.0000
  C   C82       1.0  0.4297913006916757  0.9136948021801601  0.3262920035991641  1.0000
  C   C83       1.0  0.41019878634436674  0.8731692414035738  0.34231788099486227  1.0000
  C   C84       1.0  0.42515357856959907  0.8319219153922146  0.32351678319396626  1.0000
  C   C85       1.0  0.8336705313803275  0.2108964655363366  0.04057765164454709  1.0000
  C   C86       1.0  0.875076740876956  0.22746540973850668  0.021945354147298698  1.0000
  C   C87       1.0  0.9168508827802526  0.20931872301728294  0.03825136418095809  1.0000
  C   C88       1.0  0.9173632113209534  0.1760882525809748  0.07145547121413638  1.0000
  C   C89       1.0  0.8757750843396009  0.15996293100991477  0.09001330011851387  1.0000
  C   C90       1.0  0.8338431939790495  0.1779468235172104  0.0740762969661333  1.0000
  C   C91       1.0  0.33345349542414476  0.7893661729992659  0.4595326712249701  1.0000
  C   C92       1.0  0.3747820628662096  0.7728455641347052  0.4783813373070983  1.0000
  C   C93       1.0  0.41659641062354064  0.7911834298895143  0.46241074898896517  1.0000
  C   C94       1.0  0.4172089142815166  0.82453030300983  0.4293117040650428  1.0000
  C   C95       1.0  0.37571060063742584  0.8405648711513579  0.4104880007221041  1.0000
  C   C96       1.0  0.33373239779778163  0.8224260748694264  0.4261271612057697  1.0000
  C   C97       1.0  0.5820841453132887  0.7099565020376631  0.9606378540309349  1.0000
  C   C98       1.0  0.6236212018180183  0.7286973866482852  0.9767706260618707  1.0000
  C   C99       1.0  0.6652124458012594  0.7125319000370209  0.9581091064563052  1.0000
  C   C100      1.0  0.6654211833202479  0.6793831926221969  0.9248498139228827  1.0000
  C   C101      1.0  0.6237241963203671  0.6606799690514009  0.9091993378981938  1.0000
  C   C102      1.0  0.5819574679077276  0.6765001602748412  0.927655586537405  1.0000
  C   C103      1.0  0.16514828328570264  0.28728263692168804  0.5423595904291358  1.0000
  C   C104      1.0  0.12360941581379589  0.2721849774408227  0.5228545079812079  1.0000
  C   C105      1.0  0.08211830612892607  0.29170642308921657  0.5382841138699348  1.0000
  C   C106      1.0  0.0820301667888259  0.32493178710048903  0.5714820294665299  1.0000
  C   C107      1.0  0.12374218831477177  0.3396085370511415  0.5908213193851493  1.0000
  C   C108      1.0  0.16536276268728753  0.3201644507961491  0.5758589584603796  1.0000
  N   N1        1.0  0.3041834207733416  0.5733623872857976  0.6037161005786442  1.0000
  N   N2        1.0  0.3233055311423668  0.5548253871534  0.641760388571562  1.0000
  N   N3        1.0  0.42602512950031707  0.6066357401226482  0.693929257793279  1.0000
  N   N4        1.0  0.4441272835138007  0.6458709433829952  0.6764139091154105  1.0000
  N   N5        1.0  0.39330968662064686  0.6956969107107723  0.5739329052811897  1.0000
  N   N6        1.0  0.35434135121342064  0.6771300433432685  0.5551619740272073  1.0000
  N   N7        1.0  0.6959626445481175  0.9258387511549413  0.10479409230958227  1.0000
  N   N8        1.0  0.6782599758503521  0.9430918412724978  0.1440830459157922  1.0000
  N   N9        1.0  0.5746659550562967  0.8913461526900478  0.1951354597949475  1.0000
  N   N10       1.0  0.5552073937131965  0.8532956576754955  0.17651867869670207  1.0000
  N   N11       1.0  0.6045024714125232  0.8053100893124777  0.072592880363672  1.0000
  N   N12       1.0  0.6435632637540819  0.8240255248626481  0.05408874267834558  1.0000
  N   N13       1.0  0.803590891666701  0.42579246803602194  0.8953777929318534  1.0000
  N   N14       1.0  0.8217040681631858  0.443645347097707  0.8565530620202819  1.0000
  N   N15       1.0  0.9255119630487839  0.3927004949589231  0.8055647829078083  1.0000
  N   N16       1.0  0.9440983952561905  0.35388384140192386  0.823514913164473  1.0000
  N   N17       1.0  0.8939428331647858  0.3042737841676341  0.9262524651086037  1.0000
  N   N18       1.0  0.854533820808214  0.3225636016274365  0.9444814286964771  1.0000
  N   N19       1.0  0.19567645659018496  0.07465795873020649  0.3954360090215232  1.0000
  N   N20       1.0  0.17785107121064664  0.057256050711281085  0.356296388713197  1.0000
  N   N21       1.0  0.07417548096898227  0.1089088900551829  0.30539536820597857  1.0000
  N   N22       1.0  0.05478530261654409  0.1470901863958218  0.3238620599839734  1.0000
  N   N23       1.0  0.10467462886511208  0.1958097376283021  0.42693590456354963  1.0000
  N   N24       1.0  0.14361889305620676  0.17695921819878885  0.4455390278362329  1.0000
  N   N25       1.0  0.8760580208502727  0.1264536865973795  0.1240448355302775  1.0000
  N   N26       1.0  0.123983004673704  0.3734329194531368  0.6245418962331684  1.0000
  N   N27       1.0  0.3761583052746642  0.8741250328474093  0.3764831287952218  1.0000
  N   N28       1.0  0.6237776730719701  0.6265527371417007  0.8757919747225384  1.0000
