data_image0
_chemical_formula_structural       K2V2H26C18N10O10
_chemical_formula_sum              "K2 V2 H26 C18 N10 O10"
_cell_length_a       8.467095637293074
_cell_length_b       9.056200241158233
_cell_length_c       9.667802614898022
_cell_angle_alpha    95.70861174177719
_cell_angle_beta     94.974884340697
_cell_angle_gamma    117.18830450324046

_space_group_name_H-M_alt    "P 1"
_space_group_IT_number       1

loop_
  _space_group_symop_operation_xyz
  'x, y, z'

loop_
  _atom_site_type_symbol
  _atom_site_label
  _atom_site_symmetry_multiplicity
  _atom_site_fract_x
  _atom_site_fract_y
  _atom_site_fract_z
  _atom_site_occupancy
  K   K1        1.0  0.19716443468323053  0.46845566537322714  0.915867122007768  1.0000
  K   K2        1.0  0.802836290545237  0.5315461018724648  0.08413573474445003  1.0000
  V   V1        1.0  0.15114213553444236  0.8271506132763095  0.828643159461642  1.0000
  V   V2        1.0  0.8488537504024478  0.172848652484987  0.17135497238154335  1.0000
  H   H1        1.0  0.0084839877292211  0.061025281343710006  0.7257889679572502  1.0000
  H   H2        1.0  0.9915196318520502  0.9389752125846799  0.2742098407094603  1.0000
  H   H3        1.0  0.10335631544525366  0.925487315848258  0.0828317474333318  1.0000
  H   H4        1.0  0.8966443028282426  0.0745119307264659  0.9171667256700364  1.0000
  H   H5        1.0  0.39892550833439344  0.36504088369277093  0.15210466228030844  1.0000
  H   H6        1.0  0.6010722155862993  0.6349596361992554  0.8478978589085672  1.0000
  H   H7        1.0  0.19682027101039518  0.20069981668151365  0.18644298051527392  1.0000
  H   H8        1.0  0.8031785290394707  0.799298177742898  0.8135552423398026  1.0000
  H   H9        1.0  0.7880922300391758  0.9016835525201258  0.42636386795270204  1.0000
  H   H10       1.0  0.2119120493817945  0.09831820083073951  0.5736402795190116  1.0000
  H   H11       1.0  0.6692620295080403  0.20007385738188785  0.8068523670002464  1.0000
  H   H12       1.0  0.33073858876545603  0.7999253891928362  0.19314610610312147  1.0000
  H   H13       1.0  0.9313730555739923  0.17669341559565047  0.5322372537844517  1.0000
  H   H14       1.0  0.06862766471442673  0.8233083511549353  0.4677645681934167  1.0000
  H   H15       1.0  0.8428581214892362  0.26534244141395663  0.655960768125482  1.0000
  H   H16       1.0  0.15714378682338287  0.734659321035096  0.3440421739417873  1.0000
  H   H17       1.0  0.11610836757817809  0.5109756533531992  0.47372917269502324  1.0000
  H   H18       1.0  0.8838923428301512  0.48902611240718136  0.5262705797341456  1.0000
  H   H19       1.0  0.23286070974641154  0.42956979632096903  0.5743442500496841  1.0000
  H   H20       1.0  0.7671430069097411  0.5704332172881836  0.4256568727171769  1.0000
  H   H21       1.0  0.2545391344069969  0.4377011248955682  0.39374741209259423  1.0000
  H   H22       1.0  0.7454651153736976  0.5623006254846745  0.6062505267330138  1.0000
  H   H23       1.0  0.4608113176067262  0.34046594963325577  0.8596042313491526  1.0000
  H   H24       1.0  0.5391862220442859  0.6595295318874503  0.1403957311881285  1.0000
  H   H25       1.0  0.4637254155823882  0.3804125450559681  0.7018805272987978  1.0000
  H   H26       1.0  0.5362745823717745  0.6195854460571155  0.2981208851943792  1.0000
  C   C1        1.0  0.3084707664466677  0.12869903840594787  0.0315289407477408  1.0000
  C   C2        1.0  0.6915328580746446  0.871301456017548  0.9684709026933194  1.0000
  C   C3        1.0  0.40220738360596897  0.7897090187713472  0.6418419241435417  1.0000
  C   C4        1.0  0.5977885994058029  0.21029276667070465  0.358158521799787  1.0000
  C   C5        1.0  0.3997372628579185  0.6761660603722104  0.5282260323877567  1.0000
  C   C6        1.0  0.6002652608339929  0.32383695704337606  0.4717729355153538  1.0000
  C   C7        1.0  0.6805732348710976  0.8732705891168422  0.49016601659573683  1.0000
  C   C8        1.0  0.3194280234819119  0.12672991489993993  0.5098336562152286  1.0000
  C   C9        1.0  0.6949548110233222  0.994156119315278  0.5977321497168475  1.0000
  C   C10       1.0  0.30504346084205025  0.0058431388331428  0.4022702918538316  1.0000
  C   C11       1.0  0.5490711558792964  0.9543348367912046  0.6749934441674412  1.0000
  C   C12       1.0  0.4509295446489432  0.0456669279789708  0.3250042387130208  1.0000
  C   C13       1.0  0.5512511664975861  0.0760506850763534  0.7832418776847377  1.0000
  C   C14       1.0  0.44875009185543036  0.9239498189404287  0.21675779512622742  1.0000
  C   C15       1.0  0.8669317272047152  0.15759375916379534  0.6278222790193767  1.0000
  C   C16       1.0  0.13306716497999815  0.842406754446273  0.37217722316149354  1.0000
  C   C17       1.0  0.24268996290921038  0.504509825851933  0.48964137384569995  1.0000
  C   C18       1.0  0.7573101123596473  0.4954906829614955  0.5103582136502213  1.0000
  N   N1        1.0  0.1869587933037805  0.9657111186910896  0.008935984749825775  1.0000
  N   N2        1.0  0.8130430080538602  0.0342881230869949  0.9910625736685934  1.0000
  N   N3        1.0  0.4447024524500591  0.1816053745079387  0.9533743974328318  1.0000
  N   N4        1.0  0.5553011671312047  0.8183951194204508  0.04662441123387846  1.0000
  N   N5        1.0  0.4197845950340664  0.049962904439738096  0.8556367448024249  1.0000
  N   N6        1.0  0.5802172162036712  0.9500363383285446  0.1443638831646936  1.0000
  N   N7        1.0  0.30013876443344156  0.2405309564388318  0.12837920456366456  1.0000
  N   N8        1.0  0.6998588574723215  0.7594670432773328  0.8716199677507179  1.0000
  N   N9        1.0  0.5369500916925742  0.7202790771758953  0.45458578873614647  1.0000
  N   N10       1.0  0.463048088037965  0.2797176617868757  0.5454153735087388  1.0000
  O   O1        1.0  0.2650071237662884  0.7338190717460691  0.7136699251079791  1.0000
  O   O2        1.0  0.7349862989274101  0.26617768392775787  0.2863257220049605  1.0000
  O   O3        1.0  0.9897865730469422  0.1623432125021154  0.7441659060258349  1.0000
  O   O4        1.0  0.010214680366026014  0.8376572910195604  0.2558327320107807  1.0000
  O   O5        1.0  0.021628774501927146  0.6513370164671528  0.8874750109719259  1.0000
  O   O6        1.0  0.978371228392284  0.3486609751410299  0.11252743629560062  1.0000
  O   O7        1.0  0.025294275402089245  0.8809780150004798  0.7241354289322788  1.0000
  O   O8        1.0  0.9747065945756931  0.1190287866556972  0.27586170827672873  1.0000
  O   O9        1.0  0.4568267707883535  0.4244504545125949  0.8010904272012741  1.0000
  O   O10       1.0  0.5431672245502526  0.5755450418931501  0.19891031416522514  1.0000
