data_image0
_chemical_formula_structural       Pr2CuH20C32N4O28
_chemical_formula_sum              "Pr2 Cu1 H20 C32 N4 O28"
_cell_length_a       10.55670868594795
_cell_length_b       10.68980646721443
_cell_length_c       11.397893824199596
_cell_angle_alpha    83.87542032804049
_cell_angle_beta     74.6149034199029
_cell_angle_gamma    69.44352391884804

_space_group_name_H-M_alt    "P 1"
_space_group_IT_number       1

loop_
  _space_group_symop_operation_xyz
  'x, y, z'

loop_
  _atom_site_type_symbol
  _atom_site_label
  _atom_site_symmetry_multiplicity
  _atom_site_fract_x
  _atom_site_fract_y
  _atom_site_fract_z
  _atom_site_occupancy
  Pr  Pr1       1.0  0.5933485282830944  0.6038945641149525  0.6262841166572386  1.0000
  Pr  Pr2       1.0  0.4066508865851049  0.39610996026293327  0.3737186596183263  1.0000
  Cu  Cu1       1.0  8.446067170436593e-07  0.5000006796208183  0.49999929516715  1.0000
  H   H1        1.0  0.3521170980976295  0.9874829887057287  0.4716095128196542  1.0000
  H   H2        1.0  0.6478794268266982  0.012518520267967398  0.5283916836108914  1.0000
  H   H3        1.0  0.9677837415679775  0.17398554539456515  0.36015237958998364  1.0000
  H   H4        1.0  0.03221670869579907  0.8260158779174988  0.6398408270220202  1.0000
  H   H5        1.0  0.18345714713804293  0.7500576657604299  0.31588668176153323  1.0000
  H   H6        1.0  0.8165426747075057  0.24994281749457053  0.6841120493029678  1.0000
  H   H7        1.0  0.687307972873889  0.4591503060761325  0.9444886261088072  1.0000
  H   H8        1.0  0.31269016789595855  0.5408521780561982  0.05551030510777367  1.0000
  H   H9        1.0  0.9308821083509285  0.30753099168077824  0.210026654419714  1.0000
  H   H10       1.0  0.06911514815700313  0.6924825036357874  0.7899739215794596  1.0000
  H   H11       1.0  0.1366633902004538  0.3418232349129298  0.833107366472447  1.0000
  H   H12       1.0  0.8633363957407029  0.6581632448593027  0.16689027786387808  1.0000
  H   H13       1.0  0.6445961313378847  0.7794829467791616  0.8061740838971898  1.0000
  H   H14       1.0  0.35541423101307873  0.22051559718622832  0.19383012504280828  1.0000
  H   H15       1.0  0.5181593590906601  0.7289907032719114  0.8632386636148296  1.0000
  H   H16       1.0  0.4818557618471645  0.27099985175649977  0.13676611127954882  1.0000
  H   H17       1.0  0.8133882807268905  0.5469174810316132  0.37353988847137737  1.0000
  H   H18       1.0  0.18660396695675985  0.4530850844956902  0.6264666468953521  1.0000
  H   H19       1.0  0.7193862366345982  0.4574122933051542  0.3751277809970901  1.0000
  H   H20       1.0  0.2806099445117454  0.5425902619164802  0.6248777734753402  1.0000
  C   C1        1.0  0.2781956222746943  0.8560753145399145  0.39778319070335033  1.0000
  C   C2        1.0  0.7218042016016711  0.14392518755407482  0.6022172925922149  1.0000
  C   C3        1.0  0.2715427793095203  0.9811189218866121  0.4317427589697544  1.0000
  C   C4        1.0  0.7284563448260004  0.018883559669305296  0.5682559270232516  1.0000
  C   C5        1.0  0.16095198875117234  0.09589043292799458  0.4169878171805975  1.0000
  C   C6        1.0  0.8390462111564216  0.9041090186514044  0.583007922404704  1.0000
  C   C7        1.0  0.056890954137791994  0.08626462955341911  0.36771257832375426  1.0000
  C   C8        1.0  0.9431088636461309  0.9137358160236038  0.6322826482786396  1.0000
  C   C9        1.0  0.06887196085263986  0.9628424875655172  0.3291403762068085  1.0000
  C   C10       1.0  0.9311285576875362  0.03715598796907929  0.670857523813673  1.0000
  C   C11       1.0  0.17753711158963628  0.846482614558511  0.34385218550505664  1.0000
  C   C12       1.0  0.8224653746972876  0.1535158652427455  0.6561461001837968  1.0000
  C   C13       1.0  0.3903284930149271  0.7319394420320292  0.4255303179780796  1.0000
  C   C14       1.0  0.6096706372130286  0.2680630960408551  0.5744736247080908  1.0000
  C   C15       1.0  0.1508682630153118  0.23204279844254927  0.4491329401420643  1.0000
  C   C16       1.0  0.8491348547360575  0.767956649674261  0.5508624494408778  1.0000
  C   C17       1.0  0.9105688771392408  0.40852211068240507  0.8752798903219626  1.0000
  C   C18       1.0  0.08942742126718173  0.5914743700138702  0.12471840477237349  1.0000
  C   C19       1.0  0.7886357048315703  0.4211629343927115  0.9666275776980199  1.0000
  C   C20       1.0  0.2113640527992046  0.5788405343177417  0.033369964420124625  1.0000
  C   C21       1.0  0.795194158597937  0.384945850512473  0.08728065273129458  1.0000
  C   C22       1.0  0.20480519205548847  0.6150616593208582  0.9127209345979139  1.0000
  C   C23       1.0  0.924333075965457  0.3353026205322323  0.11681973620794392  1.0000
  C   C24       1.0  0.07566395707079478  0.6647058747654028  0.883180566801606  1.0000
  C   C25       1.0  0.04484357116982102  0.32100636277505146  0.023687688164088207  1.0000
  C   C26       1.0  0.9551559018207102  0.6789951196304075  0.976311020364669  1.0000
  C   C27       1.0  0.04054672554991615  0.35621865811394565  0.9033584872156765  1.0000
  C   C28       1.0  0.9594528738393534  0.6437768345416116  0.09664084697473632  1.0000
  C   C29       1.0  0.9018024757571724  0.449818676304588  0.7472142706233668  1.0000
  C   C30       1.0  0.09819325032255935  0.550173803523208  0.2527837289456015  1.0000
  C   C31       1.0  0.6629629884530743  0.3968678124630999  0.18302950163739243  1.0000
  C   C32       1.0  0.3370336957281594  0.6031416819849865  0.8169707788364065  1.0000
  N   N1        1.0  0.9609383799761205  0.9571284267290711  0.272535529641516  1.0000
  N   N2        1.0  0.039061504053393016  0.04286905223148809  0.7274626381382916  1.0000
  N   N3        1.0  0.1814961476807824  0.2700594572605581  0.0525854507087402  1.0000
  N   N4        1.0  0.8185050043546483  0.7299400054285813  0.947411305436887  1.0000
  O   O1        1.0  0.4024297034078685  0.6204653484226412  0.3859130501619744  1.0000
  O   O2        1.0  0.59757209227687  0.3795351956160005  0.6140913232640698  1.0000
  O   O3        1.0  0.4643247255365993  0.7472011901231285  0.4906162975552561  1.0000
  O   O4        1.0  0.5356723727298274  0.2528043291385487  0.5093860705161788  1.0000
  O   O5        1.0  0.25916963433063245  0.2552130784385014  0.4525021528962937  1.0000
  O   O6        1.0  0.7408355153822654  0.7447833884895161  0.5474948113013838  1.0000
  O   O7        1.0  0.02738913097400092  0.3180363913943225  0.46768318652199525  1.0000
  O   O8        1.0  0.9726182690950724  0.6819620472663601  0.5323112447023916  1.0000
  O   O9        1.0  0.8766662953467801  0.06429094490836461  0.2468988029193397  1.0000
  O   O10       1.0  0.12332845549052251  0.9357016128518084  0.753106450797425  1.0000
  O   O11       1.0  0.9601583843335393  0.8451597624303487  0.25364085403672476  1.0000
  O   O12       1.0  0.03984746308938011  0.15483470619675901  0.7463561552324619  1.0000
  O   O13       1.0  0.01524376363384762  0.44868037053280574  0.6701729308004686  1.0000
  O   O14       1.0  0.984751202551891  0.5513171118903414  0.32982558698169123  1.0000
  O   O15       1.0  0.7853088340551935  0.48373837095090977  0.7210656289460218  1.0000
  O   O16       1.0  0.21469019402278636  0.5162531302556631  0.2789342858345448  1.0000
  O   O17       1.0  0.5493092566841824  0.42694031955554107  0.15106020044777324  1.0000
  O   O18       1.0  0.4506863819474135  0.5730721817634077  0.8489408885343009  1.0000
  O   O19       1.0  0.6679904356264288  0.3730854209512486  0.2947970658669376  1.0000
  O   O20       1.0  0.3320079938452879  0.6269190871640618  0.705204203401152  1.0000
  O   O21       1.0  0.18328256290062236  0.24279946995635274  0.16198850819741037  1.0000
  O   O22       1.0  0.8167151708918751  0.7572070552988566  0.8380144682302273  1.0000
  O   O23       1.0  0.2875050525870151  0.2584895966927192  0.9696876241841323  1.0000
  O   O24       1.0  0.7124940397057458  0.741498919058408  0.03031347954279785  1.0000
  O   O25       1.0  0.5630094689010859  0.7670796184383734  0.7889200101211028  1.0000
  O   O26       1.0  0.43700599987634803  0.232909928020085  0.21108391119350498  1.0000
  O   O27       1.0  0.7384988175678017  0.5168565340912252  0.42494566708114695  1.0000
  O   O28       1.0  0.2614957446868047  0.4831450177132908  0.5750595242586626  1.0000
