data_image0
_chemical_formula_structural       Cu12H48C108N36
_chemical_formula_sum              "Cu12 H48 C108 N36"
_cell_length_a       33.708266720780124
_cell_length_b       34.139421223462044
_cell_length_c       34.08924994306033
_cell_angle_alpha    89.98894863596631
_cell_angle_beta     89.99765651108238
_cell_angle_gamma    89.95118324447645

_space_group_name_H-M_alt    "P 1"
_space_group_IT_number       1

loop_
  _space_group_symop_operation_xyz
  'x, y, z'

loop_
  _atom_site_type_symbol
  _atom_site_label
  _atom_site_symmetry_multiplicity
  _atom_site_fract_x
  _atom_site_fract_y
  _atom_site_fract_z
  _atom_site_occupancy
  Cu  Cu1       1.0  0.37503837546825036  0.5889173071085382  0.6612385393651508  1.0000
  Cu  Cu2       1.0  0.33655573577046033  0.6264333039654277  0.5852282923643557  1.0000
  Cu  Cu3       1.0  0.413676029100806  0.6651160084644373  0.6238693158199171  1.0000
  Cu  Cu4       1.0  0.6247230266505426  0.911732752162614  0.16103319350094136  1.0000
  Cu  Cu5       1.0  0.663144051120064  0.8741692805586257  0.08489655832933353  1.0000
  Cu  Cu6       1.0  0.5859704752709262  0.8359349044245693  0.12345102620490424  1.0000
  Cu  Cu7       1.0  0.875537215357376  0.411779775234372  0.8391613609251326  1.0000
  Cu  Cu8       1.0  0.8360954080883403  0.3734947899683264  0.9144791375576278  1.0000
  Cu  Cu9       1.0  0.9134430152887845  0.3348991911635438  0.8759726102758026  1.0000
  Cu  Cu10      1.0  0.12416696069141153  0.08753563505685241  0.3394662744461599  1.0000
  Cu  Cu11      1.0  0.1636160834541727  0.12590147184496203  0.41485734042179  1.0000
  Cu  Cu12      1.0  0.0862085824682381  0.1640633861682375  0.3763287463695662  1.0000
  H   H1        1.0  0.31731034514533724  0.5167556415680752  0.6753178550624741  1.0000
  H   H2        1.0  0.26398047964767113  0.5676173585522977  0.5714188472287063  1.0000
  H   H3        1.0  0.4860289034804027  0.6787394504722429  0.6825760865423264  1.0000
  H   H4        1.0  0.4328733193487436  0.5748762112704213  0.7333379486871653  1.0000
  H   H5        1.0  0.32300753003661953  0.6845512362864314  0.5135414241827763  1.0000
  H   H6        1.0  0.4273346898137619  0.736779093700875  0.5661666185647082  1.0000
  H   H7        1.0  0.6826303971329466  0.983478463972894  0.17515420389534606  1.0000
  H   H8        1.0  0.7357706872886922  0.9325031113605038  0.07121007337246973  1.0000
  H   H9        1.0  0.513401921556536  0.822534340865865  0.18229345695492336  1.0000
  H   H10       1.0  0.567096450903982  0.9260353722942655  0.2331846971475003  1.0000
  H   H11       1.0  0.6768154803169324  0.816389735956051  0.013200079938819406  1.0000
  H   H12       1.0  0.5721898608786873  0.7643239971711895  0.06546930787143171  1.0000
  H   H13       1.0  0.8178352088574313  0.4841824458731312  0.8253645514124701  1.0000
  H   H14       1.0  0.7630742656601938  0.4318551189781489  0.9277386571292968  1.0000
  H   H15       1.0  0.9857009799371212  0.32089622161522874  0.8169911518756339  1.0000
  H   H16       1.0  0.933945060338232  0.42608517870215934  0.7674268086098552  1.0000
  H   H17       1.0  0.822234001882677  0.3152638175644143  0.9859407816449349  1.0000
  H   H18       1.0  0.926806159545805  0.2630146205566177  0.9336312970632723  1.0000
  H   H19       1.0  0.1819885091629558  0.015483320033119707  0.3256705272695798  1.0000
  H   H20       1.0  0.2366826413252312  0.06795646483056568  0.4280046398666359  1.0000
  H   H21       1.0  0.0137719242098129  0.1778329144843056  0.3171930701341027  1.0000
  H   H22       1.0  0.06598604526218568  0.0728533186830731  0.267669858447981  1.0000
  H   H23       1.0  0.17761655517543323  0.18395281992842882  0.48620982739155505  1.0000
  H   H24       1.0  0.0728122902430215  0.23602670572717696  0.4341513311513553  1.0000
  H   H25       1.0  0.7863311978720164  0.08618479351527243  0.07345060336808022  1.0000
  H   H26       1.0  0.8372420160267708  0.0355851424785953  0.17536757511270207  1.0000
  H   H27       1.0  0.9119959165811337  0.073537821490099  0.21361938887695694  1.0000
  H   H28       1.0  0.9633365479833316  0.1752565664177013  0.1633379289345811  1.0000
  H   H29       1.0  0.9256506094668354  0.21259830946374342  0.08802973270799443  1.0000
  H   H30       1.0  0.8238877446880225  0.16085766145263142  0.03637331314643431  1.0000
  H   H31       1.0  0.2137471061506986  0.4133380983711349  0.573661444259159  1.0000
  H   H32       1.0  0.1626280832833302  0.4638011825431151  0.6755561670882957  1.0000
  H   H33       1.0  0.08776459743371838  0.4255027268988628  0.7138569431604014  1.0000
  H   H34       1.0  0.037016810168609  0.32361927658070744  0.6633783601232184  1.0000
  H   H35       1.0  0.0746959166330186  0.286533833736911  0.5884563894036534  1.0000
  H   H36       1.0  0.1762990716530481  0.33832589811452624  0.5365500782065881  1.0000
  H   H37       1.0  0.2868667574283776  0.9136827109386021  0.4265482778282462  1.0000
  H   H38       1.0  0.3376779567633577  0.9642612070182965  0.32458917342870564  1.0000
  H   H39       1.0  0.41243847342745  0.9263193200944289  0.2863157617546222  1.0000
  H   H40       1.0  0.463927283804466  0.8245853130836169  0.3365720853936339  1.0000
  H   H41       1.0  0.4263851352321453  0.7872514860795904  0.4117881857310409  1.0000
  H   H42       1.0  0.32456725044518464  0.8389477367935289  0.46356515666118986  1.0000
  H   H43       1.0  0.7132935920798076  0.5867220948641647  0.9262528314596569  1.0000
  H   H44       1.0  0.662086582942031  0.5362754603783273  0.8244150253894065  1.0000
  H   H45       1.0  0.5873089768207862  0.5745610696026803  0.7861375089650412  1.0000
  H   H46       1.0  0.536529126617637  0.6765816739243962  0.8364562361779522  1.0000
  H   H47       1.0  0.5740424441907379  0.7136876095226158  0.9111619607923844  1.0000
  H   H48       1.0  0.6756678022309758  0.6620386479675774  0.9633120572390441  1.0000
  C   C1        1.0  0.30933252824038954  0.5342068257410874  0.6499176882661504  1.0000
  C   C2        1.0  0.2776501820166999  0.5290651901129595  0.6234522504498586  1.0000
  C   C3        1.0  0.2820141739446527  0.5603084311052272  0.596746772761293  1.0000
  C   C4        1.0  0.4680252417988627  0.6534330163954324  0.6898421904641129  1.0000
  C   C5        1.0  0.47240174792651857  0.6267033499064854  0.721035923089197  1.0000
  C   C6        1.0  0.44076923288800873  0.6002662992626784  0.71588683506198  1.0000
  C   C7        1.0  0.3484551091352088  0.6922017184782021  0.5314278200830105  1.0000
  C   C8        1.0  0.3751568517675209  0.7236072668654076  0.5269514274978137  1.0000
  C   C9        1.0  0.40186307624707507  0.7189940870754584  0.5583916021584232  1.0000
  C   C10       1.0  0.690517347260041  0.9660171147695426  0.14973767792865544  1.0000
  C   C11       1.0  0.7221875788292066  0.9710015228977368  0.12325856982587176  1.0000
  C   C12       1.0  0.7177538113532193  0.9398541277533214  0.09652482122168494  1.0000
  C   C13       1.0  0.5315453765109696  0.8477331278614031  0.18956638304506165  1.0000
  C   C14       1.0  0.5273259807677633  0.8744182994925541  0.22081506901799497  1.0000
  C   C15       1.0  0.5590648344451097  0.9007146532632576  0.21569827191211036  1.0000
  C   C16       1.0  0.6512700495758993  0.8087492649745088  0.030970019992267304  1.0000
  C   C17       1.0  0.6244877213974149  0.7774388234557251  0.02637513924852901  1.0000
  C   C18       1.0  0.597714844396542  0.7820602302552475  0.05776881725866902  1.0000
  C   C19       1.0  0.809549672128405  0.46637661721489826  0.85041065323464  1.0000
  C   C20       1.0  0.7774065742497102  0.4710850940561357  0.8764336236435215  1.0000
  C   C21       1.0  0.7814965607229782  0.4395292772657343  0.9028051791137772  1.0000
  C   C22       1.0  0.9680430959857559  0.3465498293750216  0.8100095890282477  1.0000
  C   C23       1.0  0.9728063005208298  0.3735580530865619  0.7790948593065965  1.0000
  C   C24       1.0  0.9415105667242971  0.4003882982555569  0.7845861307626552  1.0000
  C   C25       1.0  0.8477622979068045  0.3075914853414403  0.9681533904677839  1.0000
  C   C26       1.0  0.8744791814546246  0.276156546690963  0.9727057592710796  1.0000
  C   C27       1.0  0.9012849749104178  0.28080800281788504  0.9413375130911917  1.0000
  C   C28       1.0  0.19022252047779628  0.0333215637580224  0.3507026465043524  1.0000
  C   C29       1.0  0.22237406664358164  0.02876737604940161  0.3766931341155627  1.0000
  C   C30       1.0  0.21825709169273472  0.06024725581053052  0.40309394612156524  1.0000
  C   C31       1.0  0.03153190906057551  0.15224595899514531  0.31025124335345583  1.0000
  C   C32       1.0  0.026896823579725997  0.12523537814332295  0.27931869549262  1.0000
  C   C33       1.0  0.05828558133910631  0.09851391530264661  0.2848288937707865  1.0000
  C   C34       1.0  0.1520100696400064  0.19159551166184494  0.46850473070193044  1.0000
  C   C35       1.0  0.1252505528829602  0.22297605581081834  0.4731036148505013  1.0000
  C   C36       1.0  0.0983662404047934  0.21827565438211147  0.4418045249085198  1.0000
  C   C37       1.0  0.8400594826577006  0.1065667593448083  0.10734773791433133  1.0000
  C   C38       1.0  0.8574142799239228  0.14117845250468267  0.09022716350106924  1.0000
  C   C39       1.0  0.8922718610966741  0.1588027430749008  0.10791441577209333  1.0000
  C   C40       1.0  0.9095683700045711  0.1416451489368171  0.14266227311446764  1.0000
  C   C41       1.0  0.8920683303388656  0.10680966386963321  0.15987547741959673  1.0000
  C   C42       1.0  0.8574470267314425  0.08930635583769943  0.14225350809232407  1.0000
  C   C43       1.0  0.8076830893699878  0.08407698028410954  0.09709712838625251  1.0000
  C   C44       1.0  0.8350526498371664  0.056889257775509315  0.1519195577158854  1.0000
  C   C45       1.0  0.9143624525547692  0.09702022791230293  0.19239160505680536  1.0000
  C   C46       1.0  0.9419306301288872  0.1517045459608752  0.16534100765346696  1.0000
  C   C47       1.0  0.90216813011876  0.19111329400464433  0.08560855767063201  1.0000
  C   C48       1.0  0.8474451300978104  0.16333931305823066  0.05783401578402452  1.0000
  C   C49       1.0  0.1600754223787391  0.39283201315873845  0.6075262334400409  1.0000
  C   C50       1.0  0.14282121167478581  0.3581198116304662  0.5904243759436698  1.0000
  C   C51       1.0  0.10801587686330552  0.3404205886984926  0.6081465950571217  1.0000
  C   C52       1.0  0.0906481158925914  0.35752261841980737  0.6428455371480055  1.0000
  C   C53       1.0  0.10799224400134481  0.39242287637632967  0.6600665258914022  1.0000
  C   C54       1.0  0.1426026517883372  0.41005882414953027  0.6424348120385944  1.0000
  C   C55       1.0  0.1923938278790871  0.4154413934691306  0.5972999299539696  1.0000
  C   C56       1.0  0.1649350775456142  0.4425437725843226  0.6520882872905676  1.0000
  C   C57       1.0  0.0855805367447786  0.402055061214675  0.6925714452109519  1.0000
  C   C58       1.0  0.05830233246837221  0.3472738538974057  0.6654509398933899  1.0000
  C   C59       1.0  0.098153424255301  0.3080480920562039  0.5859566312062441  1.0000
  C   C60       1.0  0.1527993495151421  0.3358763028184981  0.5580742408298036  1.0000
  C   C61       1.0  0.3406023625757087  0.8933114035640914  0.39262785496416813  1.0000
  C   C62       1.0  0.35801800919485066  0.8586975672904347  0.4097142294109234  1.0000
  C   C63       1.0  0.3928917185315086  0.8410789561050226  0.3920135796637752  1.0000
  C   C64       1.0  0.41013331185723695  0.8582367438583065  0.35729382379631164  1.0000
  C   C65       1.0  0.3925671514153848  0.8930728980930172  0.3400961082594166  1.0000
  C   C66       1.0  0.35793539743707475  0.910564683175828  0.357723635369709  1.0000
  C   C67       1.0  0.3082026302830556  0.9157956570614162  0.4028927918250603  1.0000
  C   C68       1.0  0.33550337832028987  0.9429762888911668  0.3480507986990988  1.0000
  C   C69       1.0  0.41481317217484565  0.9028505352968427  0.3075730539899269  1.0000
  C   C70       1.0  0.44248460076121904  0.8481485993411514  0.3346142140612615  1.0000
  C   C71       1.0  0.40286929746636707  0.808743244722095  0.4142486935547468  1.0000
  C   C72       1.0  0.3481007001321288  0.8364959595498366  0.4420748664398318  1.0000
  C   C73       1.0  0.6595983213598943  0.6073127223973317  0.8923973062319421  1.0000
  C   C74       1.0  0.6423144146572427  0.6420771620167118  0.9094332097840409  1.0000
  C   C75       1.0  0.6074976855633879  0.6597619209124306  0.8916687390181439  1.0000
  C   C76       1.0  0.5901665117760614  0.6426251292592797  0.8570275279267536  1.0000
  C   C77       1.0  0.6075295833734843  0.607692849679978  0.8398696873897367  1.0000
  C   C78       1.0  0.6421300918106141  0.5900631512801058  0.8575195728344343  1.0000
  C   C79       1.0  0.6919302995297656  0.5846476443059032  0.902622984071819  1.0000
  C   C80       1.0  0.6644333491928195  0.5575321359989973  0.8478783199703772  1.0000
  C   C81       1.0  0.5851368377811781  0.5980337906002051  0.8073926174852135  1.0000
  C   C82       1.0  0.5578343378932403  0.6529020566439457  0.8344330020674138  1.0000
  C   C83       1.0  0.5975430910621571  0.6921833041629812  0.9137393972504599  1.0000
  C   C84       1.0  0.6522147415530243  0.664415313682376  0.9417395680495848  1.0000
  C   C85       1.0  0.7514822736801321  0.0003153987752071  0.12356218742907292  1.0000
  C   C86       1.0  0.7767672448830538  0.025710594625678606  0.12397395856737602  1.0000
  C   C87       1.0  0.2484197207595997  0.49955352125758873  0.6237396299696345  1.0000
  C   C88       1.0  0.2232276401900535  0.47401334256620953  0.6241481607733592  1.0000
  C   C89       1.0  0.2517738905439373  0.9994966229353466  0.3763478521914935  1.0000
  C   C90       1.0  0.2771488311820889  0.9741413722078889  0.3759893580395045  1.0000
  C   C91       1.0  0.7480538382184035  0.5005266947079577  0.876129917840146  1.0000
  C   C92       1.0  0.7227760834376582  0.526028985556259  0.8757668226608148  1.0000
  C   C93       1.0  0.9977407406765408  0.12497611604653264  0.24968984425912322  1.0000
  C   C94       1.0  0.9726309964438827  0.12469330028615393  0.22401941373736634  1.0000
  C   C95       1.0  0.5016377935607965  0.6263963967269459  0.7505038492982764  1.0000
  C   C96       1.0  0.5269046318400966  0.6260145877017536  0.7759862074715047  1.0000
  C   C97       1.0  0.0020600950694599995  0.3737771971309414  0.749568762177475  1.0000
  C   C98       1.0  0.02729788478495721  0.3741222011508044  0.7240216496619996  1.0000
  C   C99       1.0  0.4981875362161503  0.874766254267357  0.2503719968875373  1.0000
  C   C100      1.0  0.4730653336032944  0.8751380215594582  0.2759947382851352  1.0000
  C   C101      1.0  0.8745307712020461  0.2469368415129339  0.0018959397596703008  1.0000
  C   C102      1.0  0.8746953393846295  0.22171023432836284  0.027138459696594508  1.0000
  C   C103      1.0  0.3752299061567755  0.7528248324142269  0.49780998803860416  1.0000
  C   C104      1.0  0.3754167955561912  0.7780921665232869  0.4726293369040349  1.0000
  C   C105      1.0  0.6245839074536763  0.74822986827364  0.9972306244834647  1.0000
  C   C106      1.0  0.6247724062705444  0.7229263189095647  0.9720948161447827  1.0000
  C   C107      1.0  0.12536043400889701  0.25220590814975463  0.5022606589606866  1.0000
  C   C108      1.0  0.1254822342973086  0.2774435617145913  0.5274794466085171  1.0000
  N   N1        1.0  0.31375429621704864  0.5820729252108734  0.6066247746344688  1.0000
  N   N2        1.0  0.3306039432656647  0.5659290851996844  0.6396873826677736  1.0000
  N   N3        1.0  0.4194648851129017  0.6105393788335364  0.6841431791410388  1.0000
  N   N4        1.0  0.43628473596405126  0.6435716592077585  0.6680750386271301  1.0000
  N   N5        1.0  0.39175169363544177  0.6873531268338625  0.5796683867155893  1.0000
  N   N6        1.0  0.3585429268965258  0.6707775392226907  0.5630318060059949  1.0000
  N   N7        1.0  0.6859376354615065  0.9182438983933638  0.10641777788121234  1.0000
  N   N8        1.0  0.6691547548280496  0.9343968802892209  0.1394661136349811  1.0000
  N   N9        1.0  0.5802789132481151  0.8903917410247003  0.18392915462656134  1.0000
  N   N10       1.0  0.5633168890695828  0.8574754296315918  0.16777262144277935  1.0000
  N   N11       1.0  0.6078543045241106  0.8136160760679517  0.07915216267372222  1.0000
  N   N12       1.0  0.6411473721797946  0.8300905789752095  0.06259125579505562  1.0000
  N   N13       1.0  0.8135030346161188  0.4179931887071506  0.89315753418353  1.0000
  N   N14       1.0  0.8308284801743471  0.43459416536576617  0.860570007455131  1.0000
  N   N15       1.0  0.9200533940804974  0.3900904569782214  0.8162248752211456  1.0000
  N   N16       1.0  0.9364279013445087  0.356613970076566  0.8319206198255673  1.0000
  N   N17       1.0  0.8912392587733893  0.31248495179448815  0.9200452988349714  1.0000
  N   N18       1.0  0.8579477764310753  0.3290450002953592  0.9366077403947275  1.0000
  N   N19       1.0  0.18617020445569923  0.08163347338189912  0.39346920074756764  1.0000
  N   N20       1.0  0.16886944633333204  0.06501135762742652  0.3609224119481312  1.0000
  N   N21       1.0  0.0796516133074903  0.10890200396521985  0.3164830554719203  1.0000
  N   N22       1.0  0.0631621183746205  0.14230410019181516  0.33220536280045826  1.0000
  N   N23       1.0  0.10840882754272493  0.1866202580274887  0.42047008313659273  1.0000
  N   N24       1.0  0.14176888710589  0.17016159076575837  0.4369896693006298  1.0000
  N   N25       1.0  0.8046747871500983  0.053736848450320514  0.12432681274605534  1.0000
  N   N26       1.0  0.9448406879616299  0.12444816202234683  0.19573198416065207  1.0000
  N   N27       1.0  0.8747915160323672  0.1938620469078458  0.055013958808849815  1.0000
  N   N28       1.0  0.19536769067041604  0.44583712389808033  0.6245117291373392  1.0000
  N   N29       1.0  0.05521584472556641  0.374474585706011  0.6958540967507434  1.0000
  N   N30       1.0  0.12550632526509278  0.30528468114184193  0.5553536017747762  1.0000
  N   N31       1.0  0.30513112157962036  0.9461341355463947  0.3756586609361464  1.0000
  N   N32       1.0  0.4453024981345663  0.8754036967237583  0.3042464779495902  1.0000
  N   N33       1.0  0.37549645138167886  0.8059740454965553  0.4448237848241377  1.0000
  N   N34       1.0  0.6948784430761848  0.5542137258453792  0.8754339973455318  1.0000
  N   N35       1.0  0.5547991558436963  0.6256566122330015  0.8041063387208214  1.0000
  N   N36       1.0  0.62486547179239  0.6950099246262413  0.9443313596304749  1.0000
