data_image0
_chemical_formula_structural       Al2H22C28N8O10
_chemical_formula_sum              "Al2 H22 C28 N8 O10"
_cell_length_a       6.68899593876352
_cell_length_b       16.88203273241542
_cell_length_c       16.88210364584604
_cell_angle_alpha    84.91200924384657
_cell_angle_beta     83.85642000913309
_cell_angle_gamma    83.85810268246527

_space_group_name_H-M_alt    "P 1"
_space_group_IT_number       1

loop_
  _space_group_symop_operation_xyz
  'x, y, z'

loop_
  _atom_site_type_symbol
  _atom_site_label
  _atom_site_symmetry_multiplicity
  _atom_site_fract_x
  _atom_site_fract_y
  _atom_site_fract_z
  _atom_site_occupancy
  Al  Al1       1.0  0.5005894068087215  0.5018734844301136  0.49640196317460544  1.0000
  Al  Al2       1.0  0.9994100792128434  0.5035943858984454  0.49812282407481934  1.0000
  H   H1        1.0  0.7499901448716599  0.42389138054200254  0.576109124995007  1.0000
  H   H2        1.0  0.25001301107886303  0.580917776046981  0.4190821457815516  1.0000
  H   H3        1.0  0.38776449287161807  0.7396011877113652  0.46130345739643985  1.0000
  H   H4        1.0  0.3165772250588574  0.888874469385243  0.4597062225418184  1.0000
  H   H5        1.0  0.9040733352263429  0.9012521454624648  0.536559793760503  1.0000
  H   H6        1.0  0.07128141411008933  0.09924534582921754  0.5308054799624529  1.0000
  H   H7        1.0  0.6974844966785482  0.12152308183878092  0.45315449179712186  1.0000
  H   H8        1.0  0.6265854316669391  0.27108641220560503  0.4512850464541884  1.0000
  H   H9        1.0  0.8734101389414521  0.5487094458202364  0.7289138932228809  1.0000
  H   H10       1.0  0.8025068416858544  0.546845460052694  0.8784762918446914  1.0000
  H   H11       1.0  0.42870743264895583  0.4692041194488113  0.9007494438685838  1.0000
  H   H12       1.0  0.5959256391370431  0.463434202934188  0.0987543621869449  1.0000
  H   H13       1.0  0.18342736073189048  0.5402973808640753  0.111116843467407  1.0000
  H   H14       1.0  0.11224832686429655  0.5386982293462098  0.26039049562346145  1.0000
  H   H15       1.0  0.04805008106728782  0.6867164169578787  0.5419779616377127  1.0000
  H   H16       1.0  0.11850066951311784  0.7805920747297108  0.5589705505795025  1.0000
  H   H17       1.0  0.9248593216817513  0.31306703900958877  0.5202900070155323  1.0000
  H   H18       1.0  0.844036576000029  0.21778498255744697  0.5425515481260205  1.0000
  H   H19       1.0  0.5751410588240873  0.47971380747064546  0.686929878663733  1.0000
  H   H20       1.0  0.655953389409774  0.4574582483790834  0.7822108267491998  1.0000
  H   H21       1.0  0.4519632334069498  0.458022935941692  0.3132877665763444  1.0000
  H   H22       1.0  0.3814972091401713  0.44102908571655774  0.21942098500478116  1.0000
  C   C1        1.0  0.21094897494578643  0.5054445556685964  0.6426056213472364  1.0000
  C   C2        1.0  0.2890330579795233  0.35739277812323417  0.49454358022840234  1.0000
  C   C3        1.0  0.7907126116896775  0.5001943189342768  0.35218885053852483  1.0000
  C   C4        1.0  0.7093089251270612  0.6478081530726528  0.4998065603352941  1.0000
  C   C5        1.0  0.6811332301173537  0.7353579302570808  0.5017962762944563  1.0000
  C   C6        1.0  0.4975270317313515  0.7759394579015931  0.47940958192327787  1.0000
  C   C7        1.0  0.4567134604448667  0.8578380321624551  0.47856370474436727  1.0000
  C   C8        1.0  0.6071103895349025  0.9022827714870872  0.500352873192213  1.0000
  C   C9        1.0  0.7911396090401438  0.86449624826993  0.521333190335042  1.0000
  C   C10       1.0  0.8330417778692549  0.7804156096530478  0.5237451600461539  1.0000
  C   C11       1.0  0.1921834332063668  0.13802853183759822  0.5145854174642678  1.0000
  C   C12       1.0  0.3871217447369019  0.10282792557958231  0.4954915054921898  1.0000
  C   C13       1.0  0.5482951019381801  0.1502373863032105  0.47165905713217876  1.0000
  C   C14       1.0  0.5077908044718171  0.2322061358163197  0.4706327740692373  1.0000
  C   C15       1.0  0.31333529206591487  0.2697444618652014  0.4926879921483334  1.0000
  C   C16       1.0  0.14938258952295064  0.2218796918001544  0.5137527273354294  1.0000
  C   C17       1.0  0.18666138064354934  0.5073064811805355  0.7302525501538994  1.0000
  C   C18       1.0  0.9921989871845228  0.5293630329334036  0.7677924062802928  1.0000
  C   C19       1.0  0.9516968229314812  0.5283394619215186  0.8497597385426586  1.0000
  C   C20       1.0  0.11286039980497956  0.5045141087317547  0.8971670007688032  1.0000
  C   C21       1.0  0.30780563964908225  0.48542005761378  0.8619653014210157  1.0000
  C   C22       1.0  0.3506060787079689  0.4862491186551311  0.7781152082346736  1.0000
  C   C23       1.0  0.7088557729573065  0.4786619642617895  0.135508707943039  1.0000
  C   C24       1.0  0.8928914658715214  0.4996475588642682  0.09771721315382821  1.0000
  C   C25       1.0  0.043288229176226815  0.5214358957495123  0.14215553096608594  1.0000
  C   C26       1.0  0.0024919780003357372  0.5205903569897502  0.224056224790381  1.0000
  C   C27       1.0  0.8188778929717982  0.4982023175395441  0.26464199846179065  1.0000
  C   C28       1.0  0.666963552591561  0.4762523892188143  0.2195885171329337  1.0000
  N   N1        1.0  0.5869830609350898  0.986594568040097  0.5004497842409421  1.0000
  N   N2        1.0  0.4069335871613761  0.018368014824687896  0.49922537695422164  1.0000
  N   N3        1.0  0.09305863222667904  0.5007806647878823  0.9816256245596193  1.0000
  N   N4        1.0  0.9130119239256443  0.4995479291817873  0.013404957972881002  1.0000
  N   N5        1.0  0.011832191912148354  0.7460230602468843  0.5477504927959131  1.0000
  N   N6        1.0  0.9573738565561953  0.2537785646391485  0.5350383062604747  1.0000
  N   N7        1.0  0.5426198903831718  0.46496282310378945  0.7462163182457928  1.0000
  N   N8        1.0  0.4881726035986063  0.45224239416831596  0.2539871497977728  1.0000
  O   O1        1.0  0.39044369736645723  0.5037282285397141  0.6063060004381242  1.0000
  O   O2        1.0  0.10955270577343156  0.3936900819715703  0.4962570057870296  1.0000
  O   O3        1.0  0.9452874424744947  0.5069556931296618  0.38866791367720305  1.0000
  O   O4        1.0  0.5547213822875889  0.6113281490570728  0.493042879146202  1.0000
  O   O5        1.0  0.6114735737540327  0.49600967954017977  0.38743726957886077  1.0000
  O   O6        1.0  0.8885426368630577  0.6125615506243562  0.5039907590641519  1.0000
  O   O7        1.0  0.05141514272969516  0.5045049929936666  0.607440310919472  1.0000
  O   O8        1.0  0.44857911103441944  0.3925569119179998  0.49548445055928164  1.0000
  O   O9        1.0  0.7500045075383496  0.46634969376655283  0.5336430690009663  1.0000
  O   O10       1.0  0.2500040626603948  0.5384603757774685  0.4615378111345407  1.0000
