data_image0
_chemical_formula_structural       CuH4C10S4N4Cl2
_chemical_formula_sum              "Cu1 H4 C10 S4 N4 Cl2"
_cell_length_a       3.7673308577788327
_cell_length_b       7.862258462134325
_cell_length_c       11.406950299094007
_cell_angle_alpha    94.50090710310923
_cell_angle_beta     96.9181877051743
_cell_angle_gamma    94.87278757207409

_space_group_name_H-M_alt    "P 1"
_space_group_IT_number       1

loop_
  _space_group_symop_operation_xyz
  'x, y, z'

loop_
  _atom_site_type_symbol
  _atom_site_label
  _atom_site_symmetry_multiplicity
  _atom_site_fract_x
  _atom_site_fract_y
  _atom_site_fract_z
  _atom_site_occupancy
  Cu  Cu1       1.0  1.960343376348486e-05  0.999997302957148  1.4924595319861593e-06  1.0000
  H   H1        1.0  0.901728123113152  0.3576057803281146  0.03235610341771891  1.0000
  H   H2        1.0  0.0982922339008354  0.6423876209717322  0.9676416462342915  1.0000
  H   H3        1.0  0.9078168108503418  0.5983369384025039  0.19203840840231834  1.0000
  H   H4        1.0  0.09214477470325022  0.40165697798979494  0.8079568895573459  1.0000
  C   C1        1.0  0.16003915678396646  0.1582683948757904  0.2640197251323144  1.0000
  C   C2        1.0  0.8399688055897981  0.8417323776173192  0.7359807056093645  1.0000
  C   C3        1.0  0.182517087725472  0.2988694600195174  0.3526032959149603  1.0000
  C   C4        1.0  0.817477415045424  0.7011310470712291  0.6473982979416705  1.0000
  C   C5        1.0  0.414567661084881  0.04823465549060302  0.4600538442348848  1.0000
  C   C6        1.0  0.5854360677526457  0.9517737754971877  0.5399461270468535  1.0000
  C   C7        1.0  0.9802707148865789  0.34086397284193043  0.1251938554886181  1.0000
  C   C8        1.0  0.019737004257365232  0.6591344218169227  0.8748028705130365  1.0000
  C   C9        1.0  0.9867791518523815  0.4729108675328605  0.21364730206816776  1.0000
  C   C10       1.0  0.01319047258505183  0.5270841591922705  0.7863536867994297  1.0000
  S   S1        1.0  0.3396325912219709  0.2607744435318082  0.4973566275377337  1.0000
  S   S2        1.0  0.6603581647749407  0.7392374717478634  0.5026465744252206  1.0000
  S   S3        1.0  0.2564524311284586  0.9624022592401431  0.31466727898382635  1.0000
  S   S4        1.0  0.7435693252135209  0.037602299670993496  0.6853384181388692  1.0000
  N   N1        1.0  0.06230398558673039  0.1817813600431748  0.15007313496541744  1.0000
  N   N2        1.0  0.9377200246805799  0.8182195754313355  0.8499288661505134  1.0000
  N   N3        1.0  0.08962641046262122  0.4522061980342756  0.3285873767856629  1.0000
  N   N4        1.0  0.9103466243009422  0.5477929790569931  0.671408816892054  1.0000
  Cl  Cl1       1.0  0.6239974892039868  0.8299772774914659  0.09069369308422642  1.0000
  Cl  Cl2       1.0  0.3760033166749038  0.17002874087588543  0.9093024571261026  1.0000
