data_image0
_chemical_formula_structural       Li4H60C48N24
_chemical_formula_sum              "Li4 H60 C48 N24"
_cell_length_a       9.152971638013803
_cell_length_b       9.369826567004024
_cell_length_c       14.650892780019042
_cell_angle_alpha    89.99994624627385
_cell_angle_beta     89.99982333853133
_cell_angle_gamma    90.00009169090644

_space_group_name_H-M_alt    "P 1"
_space_group_IT_number       1

loop_
  _space_group_symop_operation_xyz
  'x, y, z'

loop_
  _atom_site_type_symbol
  _atom_site_label
  _atom_site_symmetry_multiplicity
  _atom_site_fract_x
  _atom_site_fract_y
  _atom_site_fract_z
  _atom_site_occupancy
  Li  Li1       1.0  0.17520730556380934  0.39097912395478573  0.6829089505550668  1.0000
  Li  Li2       1.0  0.3247929249561992  0.6090188628494672  0.1829098599424057  1.0000
  Li  Li3       1.0  0.8247920469604682  0.8909781157117324  0.8170924896152414  1.0000
  Li  Li4       1.0  0.6752073420891876  0.10902045600988688  0.3170905737676577  1.0000
  H   H1        1.0  0.2007356117236228  0.22088350813407231  0.1900441318626136  1.0000
  H   H2        1.0  0.2992667686512719  0.7791176699539617  0.6900454813152948  1.0000
  H   H3        1.0  0.7992648384754802  0.7208824704469805  0.3099555522880024  1.0000
  H   H4        1.0  0.7007345858105366  0.2791171790165308  0.8099546607543004  1.0000
  H   H5        1.0  0.27595142961173735  0.09574109113015078  0.6686442822765102  1.0000
  H   H6        1.0  0.22404887134135984  0.9042579838907302  0.16864452624208326  1.0000
  H   H7        1.0  0.7240496246125903  0.5957431061147602  0.8313559696366397  1.0000
  H   H8        1.0  0.7759540641855409  0.4042597136752377  0.3313523178535149  1.0000
  H   H9        1.0  0.0956949277573074  0.6690739667584751  0.5334443321430484  1.0000
  H   H10       1.0  0.40430604073649334  0.3309263741815158  0.0334438899059606  1.0000
  H   H11       1.0  0.904304061449082  0.1690735641307342  0.9665558758458417  1.0000
  H   H12       1.0  0.595694589631954  0.8309269224781062  0.4665570934319874  1.0000
  H   H13       1.0  0.006341777935951099  0.5884147836940272  0.8096747076586794  1.0000
  H   H14       1.0  0.4936589192359975  0.4115851513536839  0.3096740450587987  1.0000
  H   H15       1.0  0.99365817174769  0.08841385946661971  0.69032623119719  1.0000
  H   H16       1.0  0.5063418431922457  0.9115838312680179  0.1903268899643464  1.0000
  H   H17       1.0  0.33215064165764124  0.9332999752271152  0.5129483460525961  1.0000
  H   H18       1.0  0.16785261311451902  0.0667003958309635  0.012948517377488096  1.0000
  H   H19       1.0  0.6678509652450019  0.43330023988350774  0.9870517036601144  1.0000
  H   H20       1.0  0.8321486771876606  0.5667012838669266  0.4870505765763795  1.0000
  H   H21       1.0  0.14884051983359833  0.47153891988806856  0.4636492760881197  1.0000
  H   H22       1.0  0.35115832455907986  0.5284607889078288  0.9636493106617294  1.0000
  H   H23       1.0  0.8511603407634141  0.9715404999206001  0.0363495753644898  1.0000
  H   H24       1.0  0.648842619509125  0.028463820602382797  0.5363509815526513  1.0000
  H   H25       1.0  0.0661428906451036  0.35592631529084423  0.3834672459632742  1.0000
  H   H26       1.0  0.433856349637459  0.6440724440686906  0.8834677346035633  1.0000
  H   H27       1.0  0.933856688117345  0.8559268396000661  0.11653235729600907  1.0000
  H   H28       1.0  0.5661447837204606  0.14407416133597206  0.6165318058064742  1.0000
  H   H29       1.0  0.2510260901100594  0.40341294172144865  0.3690740742081288  1.0000
  H   H30       1.0  0.248974313781396  0.5965879732997335  0.869074264728134  1.0000
  H   H31       1.0  0.7489757514856166  0.9034131556949492  0.1309248180519447  1.0000
  H   H32       1.0  0.7510267418319998  0.09658889134899341  0.63092462157352  1.0000
  H   H33       1.0  0.2996752719190994  0.9673348486135468  0.3533260126974298  1.0000
  H   H34       1.0  0.20032848735178993  0.032668224061332296  0.8533266346802434  1.0000
  H   H35       1.0  0.7003244892475637  0.4673335297042343  0.146674206379906  1.0000
  H   H36       1.0  0.7996691859822961  0.5326706287026894  0.6466729724649196  1.0000
  H   H37       1.0  0.3494639845416144  0.14077319185908269  0.3149142187018157  1.0000
  H   H38       1.0  0.1505366867602049  0.8592267354895354  0.8149137588865187  1.0000
  H   H39       1.0  0.6505363344941771  0.6407742395299465  0.18508619598727444  1.0000
  H   H40       1.0  0.84946589140808  0.3592309296957907  0.6850863351945335  1.0000
  H   H41       1.0  0.9013048993604258  0.2096864395393681  0.15003292973319296  1.0000
  H   H42       1.0  0.598695314529131  0.7903102431484044  0.6500312459130055  1.0000
  H   H43       1.0  0.0986955325042018  0.7096874490163927  0.3499681262284824  1.0000
  H   H44       1.0  0.4013038731775254  0.2903102923114815  0.8499682069018135  1.0000
  H   H45       1.0  0.8529008719882611  0.9345085834709864  0.4209124974027389  1.0000
  H   H46       1.0  0.6471001895386905  0.06549197020888899  0.9209125196582804  1.0000
  H   H47       1.0  0.147098835431045  0.43450756578935307  0.0790884238900134  1.0000
  H   H48       1.0  0.3528975375357675  0.5654905735676792  0.5790863852740316  1.0000
  H   H49       1.0  0.9739361013973777  0.0503738061540133  0.48079909855097464  1.0000
  H   H50       1.0  0.5260646644520934  0.9496266595306296  0.9807960940450045  1.0000
  H   H51       1.0  0.0260640696215475  0.5503719862823787  0.0192034179458389  1.0000
  H   H52       1.0  0.47393478410543827  0.44962624107159144  0.5192012156811359  1.0000
  H   H53       1.0  0.0407689281473438  0.8889211820727352  0.4344858446481723  1.0000
  H   H54       1.0  0.45923115277926746  0.1110753678109333  0.9344845560425907  1.0000
  H   H55       1.0  0.9592296120913345  0.3889225219022023  0.06551578650446288  1.0000
  H   H56       1.0  0.5407677414706955  0.6110774867387931  0.565515004134987  1.0000
  H   H57       1.0  0.9184812712083358  0.883771170054011  0.6017300992652393  1.0000
  H   H58       1.0  0.5815213662552028  0.11622771812248794  0.1017290420464008  1.0000
  H   H59       1.0  0.0815191620579725  0.3837727825546935  0.8982713452208628  1.0000
  H   H60       1.0  0.4184810976739542  0.6162270223084718  0.3982713873440815  1.0000
  C   C1        1.0  0.9928483535971965  0.051854211678069397  0.3348926131679519  1.0000
  C   C2        1.0  0.507153132642749  0.9481443338880028  0.8348930587251004  1.0000
  C   C3        1.0  0.007151819847059901  0.5518521478303311  0.16510921988989938  1.0000
  C   C4        1.0  0.4928452209361894  0.44814373061638696  0.6651083472036348  1.0000
  C   C5        1.0  0.10889864454302513  0.17198175843448377  0.22498408519024335  1.0000
  C   C6        1.0  0.39110247077633176  0.8280193683115228  0.7249859110736523  1.0000
  C   C7        1.0  0.8911017255893156  0.6719798484809941  0.275015628253243  1.0000
  C   C8        1.0  0.6088967786652971  0.32801878506620596  0.7750155668100192  1.0000
  C   C9        1.0  0.26306728792845757  0.12287183845710807  0.5972465897927532  1.0000
  C   C10       1.0  0.23693555062558863  0.8771252069661274  0.0972468251998677  1.0000
  C   C11       1.0  0.7369305330907424  0.6228716341693711  0.902753645872636  1.0000
  C   C12       1.0  0.7630640628590868  0.37713001344730657  0.40274867004622905  1.0000
  C   C13       1.0  0.051905712686021795  0.6828532194409078  0.6019009492409922  1.0000
  C   C14       1.0  0.44809491780761596  0.3171470209083864  0.10190111349515259  1.0000
  C   C15       1.0  0.9480932990827426  0.18285298589744772  0.8980985679416803  1.0000
  C   C16       1.0  0.5519035049174406  0.8171476013008814  0.39809987809885433  1.0000
  C   C17       1.0  0.009157463407866802  0.6412888120409123  0.743597487228264  1.0000
  C   C18       1.0  0.49084356001290547  0.35871122010023276  0.243597544273797  1.0000
  C   C19       1.0  0.9908414803058249  0.14128778631532407  0.7564027374043858  1.0000
  C   C20       1.0  0.509158208386161  0.8587108745814974  0.2564041049722405  1.0000
  C   C21       1.0  0.21217711133610354  0.25672815123603937  0.47979164043262296  1.0000
  C   C22       1.0  0.28782383843856973  0.74327046658685  0.979790985732265  1.0000
  C   C23       1.0  0.7878244900942236  0.7567275214081945  0.0202073396932718  1.0000
  C   C24       1.0  0.7121774573367362  0.24327468832232305  0.520208495256469  1.0000
  C   C25       1.0  0.29137296830615617  0.0409856617834663  0.5218675629635712  1.0000
  C   C26       1.0  0.20862914988492787  0.9590146961672945  0.021868486374202693  1.0000
  C   C27       1.0  0.7086269037238182  0.5409842352050304  0.9781327217506756  1.0000
  C   C28       1.0  0.791371690207214  0.45901730165100924  0.4781303725802318  1.0000
  C   C29       1.0  0.167840935908508  0.3778595376123235  0.4206600967668805  1.0000
  C   C30       1.0  0.3321592132800718  0.6221391670971883  0.9206601118097595  1.0000
  C   C31       1.0  0.8321608638491541  0.8778599575018619  0.079338810799868  1.0000
  C   C32       1.0  0.6678429767118034  0.12214323259899372  0.5793387591844946  1.0000
  C   C33       1.0  0.2667803115390797  0.08001743897128219  0.35291541366035517  1.0000
  C   C34       1.0  0.23321907959086732  0.9199824325366136  0.8529161233519034  1.0000
  C   C35       1.0  0.7332177229414256  0.580018671811004  0.1470843548717937  1.0000
  C   C36       1.0  0.7667803204241396  0.4199822842292279  0.6470839343403725  1.0000
  C   C37       1.0  0.9617747012302901  0.165778481713545  0.2071017618034787  1.0000
  C   C38       1.0  0.5382252308849688  0.8342202516273645  0.7071015332196493  1.0000
  C   C39       1.0  0.0382245662056775  0.6657784132067945  0.2928979553563309  1.0000
  C   C40       1.0  0.4617751212563377  0.334220479235789  0.7928978932915526  1.0000
  C   C41       1.0  0.9643302879445628  0.9770654870639104  0.4224610884605723  1.0000
  C   C42       1.0  0.5356707659416884  0.022936131597397498  0.922459303106038  1.0000
  C   C43       1.0  0.035669489148155285  0.4770653646174239  0.07754185499670288  1.0000
  C   C44       1.0  0.4643279839965828  0.5229349115238475  0.5775403098687732  1.0000
  C   C45       1.0  0.9627202947776466  0.7904354071192685  0.6359225401688917  1.0000
  C   C46       1.0  0.5372821738644478  0.2095644980703995  0.1359215122224029  1.0000
  C   C47       1.0  0.03727998567143229  0.2904348661540012  0.8640782776746008  1.0000
  C   C48       1.0  0.46271935034819484  0.7095649889527565  0.3640768136023737  1.0000
  N   N1        1.0  0.2129329249062764  0.25612081655670244  0.5707492368067763  1.0000
  N   N2        1.0  0.28706895193910503  0.7438773350575545  0.0707480903944386  1.0000
  N   N3        1.0  0.7870672993637557  0.7561206517549123  0.9292502364868368  1.0000
  N   N4        1.0  0.7129337209964959  0.24388202418423077  0.4292508974265772  1.0000
  N   N5        1.0  0.08131449199905921  0.5868684909443829  0.670843505953236  1.0000
  N   N6        1.0  0.4186857980966324  0.41313164810062364  0.1708436693381614  1.0000
  N   N7        1.0  0.918684362612936  0.08686724544833879  0.8291567512777573  1.0000
  N   N8        1.0  0.5813127817826357  0.9131323757981633  0.32915726476010587  1.0000
  N   N9        1.0  0.8908488723965178  0.09202034050148458  0.2755673044241219  1.0000
  N   N10       1.0  0.6091518142229191  0.9079804267492763  0.7755655299864656  1.0000
  N   N11       1.0  0.109150274275791  0.5920215507928576  0.22443313946939006  1.0000
  N   N12       1.0  0.390846473598593  0.40797850950399805  0.7244345348967015  1.0000
  N   N13       1.0  0.2592273779249226  0.126650030365461  0.4474707368555002  1.0000
  N   N14       1.0  0.24077482397025568  0.8733497022052603  0.947471459934647  1.0000
  N   N15       1.0  0.7407729179866467  0.6266503467042881  0.0525296862937168  1.0000
  N   N16       1.0  0.7592266847782766  0.37335181553164176  0.5525286256882893  1.0000
  N   N17       1.0  0.1277053904854597  0.09856519974756137  0.3063115561351708  1.0000
  N   N18       1.0  0.37229423074852974  0.9014358074959075  0.8063120091504459  1.0000
  N   N19       1.0  0.8722937668993539  0.5985644471331355  0.19368956639075208  1.0000
  N   N20       1.0  0.6277040463587938  0.40143537317051425  0.6936880596525653  1.0000
  N   N21       1.0  0.9354534939772564  0.763842510854353  0.7268733457816977  1.0000
  N   N22       1.0  0.5645474330585003  0.23615726069026974  0.2268736145102253  1.0000
  N   N23       1.0  0.06454565039218353  0.2638421461814887  0.7731268054399222  1.0000
  N   N24       1.0  0.43545522722785535  0.7361567753132051  0.27312742559352193  1.0000
