data_image0
_chemical_formula_structural       Co2H32C24N4Cl4O8
_chemical_formula_sum              "Co2 H32 C24 N4 Cl4 O8"
_cell_length_a       4.943862151306797
_cell_length_b       10.393173276354098
_cell_length_c       14.844444201966796
_cell_angle_alpha    106.2267106910527
_cell_angle_beta     89.99928942484179
_cell_angle_gamma    89.99916608344554

_space_group_name_H-M_alt    "P 1"
_space_group_IT_number       1

loop_
  _space_group_symop_operation_xyz
  'x, y, z'

loop_
  _atom_site_type_symbol
  _atom_site_label
  _atom_site_symmetry_multiplicity
  _atom_site_fract_x
  _atom_site_fract_y
  _atom_site_fract_z
  _atom_site_occupancy
  Co  Co1       1.0  0.5000013876885347  0.49999994836062467  0.999999608714788  1.0000
  Co  Co2       1.0  5.730161945000008e-07  3.2193264589989737e-07  0.5000006638177369  1.0000
  H   H1        1.0  0.9170302433597258  0.3402993166168998  0.9880800674662711  1.0000
  H   H2        1.0  0.41701600786269927  0.1597051145925477  0.5119153067963895  1.0000
  H   H3        1.0  0.08296936323012011  0.6597009348839934  0.011919366176698547  1.0000
  H   H4        1.0  0.5829856214435125  0.840294133084306  0.4880846029395586  1.0000
  H   H5        1.0  0.9511033002539476  0.4068953681412708  0.9083454409672529  1.0000
  H   H6        1.0  0.4510738956875501  0.0931167536004978  0.5916553519002862  1.0000
  H   H7        1.0  0.0488983290332001  0.593104881623873  0.09165466598376075  1.0000
  H   H8        1.0  0.5489257109022957  0.9068834979003952  0.4083440817426834  1.0000
  H   H9        1.0  0.6304410565454575  0.3051586056528351  0.7769716122351087  1.0000
  H   H10       1.0  0.1304358964595949  0.19484147127365506  0.7230227090277951  1.0000
  H   H11       1.0  0.3695605728182656  0.6948396451148398  0.223026080343928  1.0000
  H   H12       1.0  0.8695697782159115  0.8051597788346572  0.2769782684404164  1.0000
  H   H13       1.0  0.7917850178807768  0.33569186580736954  0.6221199373522384  1.0000
  H   H14       1.0  0.29177083504885815  0.16430470773650546  0.877874393616253  1.0000
  H   H15       1.0  0.208216611470128  0.6643063832339352  0.37787842854075393  1.0000
  H   H16       1.0  0.7082287715597034  0.8356925323204084  0.12212646832337987  1.0000
  H   H17       1.0  0.220911814273137  0.6616450539041454  0.6626981844512232  1.0000
  H   H18       1.0  0.7209096131920844  0.8383614145946939  0.8373046332402655  1.0000
  H   H19       1.0  0.779091837679431  0.33835619448717585  0.3373034663368487  1.0000
  H   H20       1.0  0.2790839252483508  0.16163983902261245  0.16269499763549797  1.0000
  H   H21       1.0  0.0773498347560349  0.6126714672161668  0.8146307231272376  1.0000
  H   H22       1.0  0.5773317097016887  0.8873333329381906  0.6853696483518023  1.0000
  H   H23       1.0  0.9226517945435904  0.3873267749196643  0.18537033602154918  1.0000
  H   H24       1.0  0.42266991966204154  0.11266491782948408  0.31462804422724133  1.0000
  H   H25       1.0  0.7971573276640883  0.4695207483796936  0.5155016594547988  1.0000
  H   H26       1.0  0.2971552975781222  0.030479780202405497  0.9844947755830803  1.0000
  H   H27       1.0  0.20284227891917792  0.5304784975801698  0.4844989236010095  1.0000
  H   H28       1.0  0.702838240874783  0.9695194657855881  0.015505807490455964  1.0000
  H   H29       1.0  0.646253999877885  0.6317757219883617  0.5473771427749555  1.0000
  H   H30       1.0  0.1462408535149393  0.8682194481702725  0.9526102782152396  1.0000
  H   H31       1.0  0.35375167490607856  0.36822252876055483  0.45262054979227184  1.0000
  H   H32       1.0  0.8537526849698479  0.1317787974557945  0.04738943432927561  1.0000
  C   C1        1.0  0.551065296354551  0.38083220870399975  0.7462953405901234  1.0000
  C   C2        1.0  0.0510329572785793  0.11918361656324808  0.7537098091187249  1.0000
  C   C3        1.0  0.44893633295165364  0.6191670389728542  0.25370456914582473  1.0000
  C   C4        1.0  0.948964626588328  0.880816633220647  0.2462902978441051  1.0000
  C   C5        1.0  0.6379763469280989  0.40196926048905385  0.6630969588543821  1.0000
  C   C6        1.0  0.1379657510323469  0.09802873552205682  0.8368996172313672  1.0000
  C   C7        1.0  0.362029327773051  0.5980319930719987  0.3369026719859321  1.0000
  C   C8        1.0  0.8620277873824378  0.9019725146425092  0.16310136027229324  1.0000
  C   C9        1.0  0.5219831157163525  0.5033191155332802  0.6302106176554434  1.0000
  C   C10       1.0  0.0219894361381421  0.9966721806526593  0.8697826029778856  1.0000
  C   C11       1.0  0.4780164909116138  0.49667913179102646  0.3697884215574022  1.0000
  C   C12       1.0  0.9780061249867699  0.0033290695025342994  0.13021837451986332  1.0000
  C   C13       1.0  0.31720373297075344  0.5810509087697328  0.6850584983980216  1.0000
  C   C14       1.0  0.817195879699355  0.9189526801348081  0.8149366292345307  1.0000
  C   C15       1.0  0.6828019417047528  0.41895034133857945  0.31494247907019013  1.0000
  C   C16       1.0  0.18280170416755942  0.08104756964908691  0.18506347772829912  1.0000
  C   C17       1.0  0.23474470766559116  0.5574990495103976  0.7680766875514566  1.0000
  C   C18       1.0  0.7347089625238895  0.9425213270428191  0.7319261171858716  1.0000
  C   C19       1.0  0.7652589442869767  0.4425021988809237  0.23192496323660822  1.0000
  C   C20       1.0  0.265288621343025  0.05747892274107612  0.2680739897769584  1.0000
  C   C21       1.0  0.6086091246086837  0.5245973264938472  0.5384906780198123  1.0000
  C   C22       1.0  0.10860854877938658  0.9754001743401658  0.961506110354151  1.0000
  C   C23       1.0  0.3913925046975208  0.47540192118301405  0.4615092317161357  1.0000
  C   C24       1.0  0.891384989686344  0.024599073374190508  0.03849379940542971  1.0000
  N   N1        1.0  0.35138930932174633  0.4574991907139463  0.7968546787028858  1.0000
  N   N2        1.0  0.8513628277448859  0.042518867615207505  0.7031470094139396  1.0000
  N   N3        1.0  0.6486123199716404  0.5425000552365447  0.20314590434701787  1.0000
  N   N4        1.0  0.14863677885120552  0.9574803800710261  0.2968529003279203  1.0000
  Cl  Cl1       1.0  0.2935113498430725  0.32610979843097004  0.06083041671172403  1.0000
  Cl  Cl2       1.0  0.79351837308279  0.1738790884368484  0.43916590916353476  1.0000
  Cl  Cl3       1.0  0.7064882567148983  0.6738914534318429  0.93916988746026  1.0000
  Cl  Cl4       1.0  0.2064812335451762  0.8261191588874653  0.5608331300493108  1.0000
  O   O1        1.0  0.8081866649814701  0.3683977732749853  0.9406657113329262  1.0000
  O   O2        1.0  0.3081654097975886  0.13160266350315203  0.5593266194476315  1.0000
  O   O3        1.0  0.1918149643184961  0.6316024782165287  0.05933372230413884  1.0000
  O   O4        1.0  0.6918341967922644  0.8683975879977409  0.44067281419533805  1.0000
  O   O5        1.0  0.27170548513939247  0.43456793541734856  0.8771312977727351  1.0000
  O   O6        1.0  0.7717278897753915  0.06543684944934823  0.6228613615377016  1.0000
  O   O7        1.0  0.728294121481987  0.5654293063659352  0.12286889085294928  1.0000
  O   O8        1.0  0.22827576220281998  0.934564402394706  0.37713894262246583  1.0000
