data_image0
_chemical_formula_structural       Cu2H30C36N6O8
_chemical_formula_sum              "Cu2 H30 C36 N6 O8"
_cell_length_a       7.196091798433743
_cell_length_b       9.016170588871521
_cell_length_c       13.837073246781284
_cell_angle_alpha    109.47155414670412
_cell_angle_beta     94.04430551273661
_cell_angle_gamma    98.07782918274332

_space_group_name_H-M_alt    "P 1"
_space_group_IT_number       1

loop_
  _space_group_symop_operation_xyz
  'x, y, z'

loop_
  _atom_site_type_symbol
  _atom_site_label
  _atom_site_symmetry_multiplicity
  _atom_site_fract_x
  _atom_site_fract_y
  _atom_site_fract_z
  _atom_site_occupancy
  Cu  Cu1       1.0  0.5000013580393272  1.3144084078979176e-06  2.3942323678861283e-06  1.0000
  Cu  Cu2       1.0  0.49999309518492635  0.4999990238358618  0.5000003635003978  1.0000
  H   H1        1.0  0.32953544701879883  0.2171894319981291  0.15591847512985174  1.0000
  H   H2        1.0  0.6704693253587166  0.7828183585334828  0.8440843166415776  1.0000
  H   H3        1.0  0.3290590728511447  0.34545368635505  0.285437784649858  1.0000
  H   H4        1.0  0.6709392006381947  0.6545492665513281  0.7145644475188108  1.0000
  H   H5        1.0  0.24546900371116462  0.709859415776137  0.12269041279691353  1.0000
  H   H6        1.0  0.7545369926315857  0.29013287995830694  0.8773069259207632  1.0000
  H   H7        1.0  0.9733161305008194  0.7297757073468247  0.013146507483163792  1.0000
  H   H8        1.0  0.026693805389193418  0.27022256375949644  0.9868472037079244  1.0000
  H   H9        1.0  0.9928459891706467  0.5355568955057277  0.10478166372156038  1.0000
  H   H10       1.0  0.00716092840581692  0.4644401367203699  0.8952095004638355  1.0000
  H   H11       1.0  0.72230632683074  0.4545255974536034  0.18912481668342454  1.0000
  H   H12       1.0  0.27770620172139354  0.5454643506413531  0.8108657567953514  1.0000
  H   H13       1.0  0.42659745490132644  0.56582344335186  0.17843456415332073  1.0000
  H   H14       1.0  0.5734162391946782  0.43416533857016765  0.8215579702426156  1.0000
  H   H15       1.0  0.22060999136753165  0.1339004520313054  0.5517265355888128  1.0000
  H   H16       1.0  0.779379676288528  0.866101211147509  0.44827509829401896  1.0000
  H   H17       1.0  0.9868191616155355  0.3909953893213469  0.6643724059329372  1.0000
  H   H18       1.0  0.013169818814716863  0.6090027026313861  0.3356306027785223  1.0000
  H   H19       1.0  0.998358943410828  0.15019655721270903  0.7120900326943345  1.0000
  H   H20       1.0  0.00162516675828778  0.8497978866161233  0.2879091193516601  1.0000
  H   H21       1.0  0.7033962542635522  0.9554888166843085  0.694377852839054  1.0000
  H   H22       1.0  0.2965864662190539  0.044505577765640694  0.3056154551385362  1.0000
  H   H23       1.0  0.3982508408415342  0.9998164317561303  0.6215910610810199  1.0000
  H   H24       1.0  0.6017393166420603  0.00018043535639119922  0.378403778550215  1.0000
  H   H25       1.0  0.8973774397731094  0.06917756401848152  0.14230375015562663  1.0000
  H   H26       1.0  0.1026303500958576  0.9308314695838718  0.8577023121927354  1.0000
  H   H27       1.0  0.07240889370448397  0.2137906715236113  0.32468495622398313  1.0000
  H   H28       1.0  0.9275884334509924  0.786214688250631  0.6753235396062109  1.0000
  H   H29       1.0  0.8865839800263942  0.3713155076509409  0.4580494446722342  1.0000
  H   H30       1.0  0.11341266236959058  0.6286862683256658  0.541958255272867  1.0000
  C   C1        1.0  0.3567694942841229  0.7655979232558466  0.0883546092043943  1.0000
  C   C2        1.0  0.6432378707555131  0.2344015442644007  0.9116450448547229  1.0000
  C   C3        1.0  0.5330925950227507  0.7112391089426923  0.09157377511230891  1.0000
  C   C4        1.0  0.46691779326307165  0.2887615723146553  0.908424084525052  1.0000
  C   C5        1.0  0.6880979547681034  0.7584222294625818  0.04172195485858045  1.0000
  C   C6        1.0  0.3119131190993158  0.2415820314018902  0.9582759770926332  1.0000
  C   C7        1.0  0.8537033230815467  0.6910112663552326  0.04837660997543478  1.0000
  C   C8        1.0  0.1463096311220227  0.3089882436313118  0.9516196482213461  1.0000
  C   C9        1.0  0.863760326192093  0.5849525335005268  0.10067884921762271  1.0000
  C   C10       1.0  0.13625149167828  0.4150409783468234  0.899311741076538  1.0000
  C   C11       1.0  0.7116037523262904  0.5390463537403108  0.14929402304616707  1.0000
  C   C12       1.0  0.2884038751098145  0.46094711892391166  0.8506978478950842  1.0000
  C   C13       1.0  0.5484575176906503  0.6010825953442095  0.14334137138705222  1.0000
  C   C14       1.0  0.4515531313474311  0.3989120994381565  0.8566501522749164  1.0000
  C   C15       1.0  0.3395558245893752  0.22726626884099227  0.5529440302709503  1.0000
  C   C16       1.0  0.6604410793809805  0.7727295164701005  0.4470566101275254  1.0000
  C   C17       1.0  0.518788833463212  0.21820225456904296  0.6002704308202098  1.0000
  C   C18       1.0  0.48120388418340093  0.7817934706063169  0.3997278723691338  1.0000
  C   C19       1.0  0.6864809618599849  0.3352689332067484  0.6149219489510998  1.0000
  C   C20       1.0  0.31351104346065733  0.6647303641020486  0.3850778181961161  1.0000
  C   C21       1.0  0.8587872091472873  0.3044878642598193  0.6550843600098801  1.0000
  C   C22       1.0  0.14120271186209266  0.695507850158691  0.3449174500387358  1.0000
  C   C23       1.0  0.8635902943341305  0.1697018456833277  0.681350228275015  1.0000
  C   C24       1.0  0.1363972939432898  0.8302962094620768  0.3186491070817753  1.0000
  C   C25       1.0  0.6976316063998809  0.058817875087683505  0.6710236311742294  1.0000
  C   C26       1.0  0.30235669584771324  0.9411765995432476  0.32897279308220123  1.0000
  C   C27       1.0  0.5285432295229597  0.08448026247052812  0.631353149030879  1.0000
  C   C28       1.0  0.4714462423790309  0.9155130250348762  0.368641618286496  1.0000
  C   C29       1.0  0.5623853317130523  0.24247733037783092  0.25689023096837366  1.0000
  C   C30       1.0  0.43761920747866856  0.7575292906976897  0.7431166369354686  1.0000
  C   C31       1.0  0.8294828067344395  0.1414247108241398  0.20543413298120333  1.0000
  C   C32       1.0  0.17052102177552791  0.8585854740037816  0.7945727517380377  1.0000
  C   C33       1.0  0.925650296221761  0.21933513510131766  0.30465590408553583  1.0000
  C   C34       1.0  0.0743514245209909  0.7806786018147918  0.6953516655218621  1.0000
  C   C35       1.0  0.8229769983646802  0.30711385385790624  0.3782503965768741  1.0000
  C   C36       1.0  0.17702218238257927  0.6928939067789698  0.6217579617706193  1.0000
  N   N1        1.0  0.382715975426251  0.2581526136999912  0.23260631915435684  1.0000
  N   N2        1.0  0.6172887961291593  0.7418551810221387  0.7673971961883128  1.0000
  N   N3        1.0  0.6494131945431361  0.1507585947591323  0.18077314357057622  1.0000
  N   N4        1.0  0.35059297080931623  0.8492492283892901  0.8192325979842822  1.0000
  N   N5        1.0  0.642753959615618  0.3186115124474682  0.35644815533963486  1.0000
  N   N6        1.0  0.35724408068792707  0.6813902710028189  0.6435581529614539  1.0000
  O   O1        1.0  0.31246717127605445  0.8674383188936403  0.05137909336762895  1.0000
  O   O2        1.0  0.6875415834500983  0.13256119800549732  0.9486264047598781  1.0000
  O   O3        1.0  0.6843874659259227  0.8569815728096728  0.9908956910855835  1.0000
  O   O4        1.0  0.3156252024252239  0.1430310670113784  0.0091069922158269  1.0000
  O   O5        1.0  0.3017216491973258  0.32583371204618333  0.5115343340453578  1.0000
  O   O6        1.0  0.6982687291404873  0.6741643873802304  0.48846728302208936  1.0000
  O   O7        1.0  0.6888573526788091  0.46731890493491324  0.5949571995089116  1.0000
  O   O8        1.0  0.3111276688587594  0.5326803256718194  0.40504446085969903  1.0000
