data_image0
_chemical_formula_structural       Cu4H56C64S12I4N8
_chemical_formula_sum              "Cu4 H56 C64 S12 I4 N8"
_cell_length_a       9.217353526
_cell_length_b       14.398335373760641
_cell_length_c       16.453
_cell_angle_alpha    90.0
_cell_angle_beta     90.0
_cell_angle_gamma    105.47300552363102

_space_group_name_H-M_alt    "P 1"
_space_group_IT_number       1

loop_
  _space_group_symop_operation_xyz
  'x, y, z'

loop_
  _atom_site_type_symbol
  _atom_site_label
  _atom_site_symmetry_multiplicity
  _atom_site_fract_x
  _atom_site_fract_y
  _atom_site_fract_z
  _atom_site_occupancy
  Cu  Cu1       1.0  0.97748112887421  0.0553749712571872  0.9428000972467034  1.0000
  Cu  Cu2       1.0  0.5225331015632335  0.44463707220993587  0.4427988816629167  1.0000
  Cu  Cu3       1.0  0.022539271369545658  0.9446253344398059  0.0571980793776206  1.0000
  Cu  Cu4       1.0  0.4774764983890806  0.5553711605661391  0.5572084118397882  1.0000
  H   H1        1.0  0.36641411623861597  0.2522403770696826  0.8090384732267637  1.0000
  H   H2        1.0  0.1335871286854058  0.247763018674803  0.3090396888105503  1.0000
  H   H3        1.0  0.6335937493503323  0.7477584873402063  0.1909603111894498  1.0000
  H   H4        1.0  0.8664061300477857  0.7522502586061464  0.6909651735245816  1.0000
  H   H5        1.0  0.3341249572606273  0.23965577870339416  0.9165343706314957  1.0000
  H   H6        1.0  0.1658802106048611  0.2603440138233282  0.4165355862152822  1.0000
  H   H7        1.0  0.6658840608059506  0.7603380412016278  0.0834619826171519  1.0000
  H   H8        1.0  0.8341064410484268  0.73965340929945  0.5834692761198568  1.0000
  H   H9        1.0  0.4105393074704296  0.4496181604483738  0.0351820336716742  1.0000
  H   H10       1.0  0.08947073311159669  0.0503881178703267  0.5351856804230266  1.0000
  H   H11       1.0  0.5894824780052446  0.5503828658921748  0.964813103993194  1.0000
  H   H12       1.0  0.9105128289981509  0.9496201149057554  0.46481371178508374  1.0000
  H   H13       1.0  0.313497435245516  0.3251875207235742  0.0227265544277628  1.0000
  H   H14       1.0  0.1865172452987522  0.1748194782386747  0.5227283778034391  1.0000
  H   H15       1.0  0.6865103627759198  0.6748163881911893  0.9772789156992658  1.0000
  H   H16       1.0  0.8134892838679023  0.825186592606741  0.4772716221965609  1.0000
  H   H17       1.0  0.2537431778821357  0.3742871279211073  0.7302102959946524  1.0000
  H   H18       1.0  0.24622909354869907  0.1257040168829775  0.2302109037865421  1.0000
  H   H19       1.0  0.7462499832317917  0.6257102952016709  0.2697909195891341  1.0000
  H   H20       1.0  0.7537372451343745  0.8742941268833633  0.7697890962134581  1.0000
  H   H21       1.0  0.642657782471197  0.0317537168764801  0.9284373670455253  1.0000
  H   H22       1.0  0.8573479713879524  0.4682431930760345  0.428419133288763  1.0000
  H   H23       1.0  0.3573621522639669  0.9682350585236676  0.07156080957879851  1.0000
  H   H24       1.0  0.1426518831312933  0.5317520681160914  0.5715626329544747  1.0000
  H   H25       1.0  0.1128909351814471  0.4859421987380657  0.248220385340062  1.0000
  H   H26       1.0  0.38710590253462845  0.0140662415112871  0.7482209931319517  1.0000
  H   H27       1.0  0.8871196821134505  0.5140710785428837  0.7517826536194008  1.0000
  H   H28       1.0  0.6128822019181044  0.9859268577501723  0.2517692821977775  1.0000
  H   H29       1.0  0.252066027558719  0.4948262924596278  0.3791320731781411  1.0000
  H   H30       1.0  0.24792960887010201  0.0051792652155171  0.8791308575943617  1.0000
  H   H31       1.0  0.7479360455903644  0.5051768958115801  0.6208752203245638  1.0000
  H   H32       1.0  0.7520678918842594  0.9948181579072681  0.1208600255272572  1.0000
  H   H33       1.0  0.019434229681500905  0.2621730071608823  0.9555606880204195  1.0000
  H   H34       1.0  0.4805574162383337  0.2378411982369002  0.4555643347717719  1.0000
  H   H35       1.0  0.9805735195303029  0.7378229746747991  0.0444581535282325  1.0000
  H   H36       1.0  0.5194304179443208  0.7621720790440489  0.5444599769039087  1.0000
  H   H37       1.0  0.1494652404563936  0.5375863983212952  0.9507804047893986  1.0000
  H   H38       1.0  0.35054587058209563  0.9624223476250575  0.4507785814137222  1.0000
  H   H39       1.0  0.8505409395788207  0.462411024801483  0.049223241961954  1.0000
  H   H40       1.0  0.649436189918582  0.0375822819332612  0.549216556251139  1.0000
  H   H41       1.0  0.4356405528627221  0.348973081834373  0.1439828602686433  1.0000
  H   H42       1.0  0.0643615930267387  0.151032475840772  0.6439792135172908  1.0000
  H   H43       1.0  0.5643719339305804  0.6510394748030279  0.8560207864827092  1.0000
  H   H44       1.0  0.935641381087784  0.848972874361088  0.3560177475232464  1.0000
  H   H45       1.0  0.5589006694866185  0.36432278951357927  0.2782355801373626  1.0000
  H   H46       1.0  0.9410960860119603  0.1356863713793288  0.7782307178022236  1.0000
  H   H47       1.0  0.4411019367385691  0.6356868845496066  0.7217698899896661  1.0000
  H   H48       1.0  0.05891007526535937  0.8643240233274057  0.2217638120707477  1.0000
  H   H49       1.0  0.8752611104885021  0.3809595665784683  0.923525800765816  1.0000
  H   H50       1.0  0.6247123963892491  0.11903806401759448  0.4235300553090653  1.0000
  H   H51       1.0  0.12474019683018157  0.6190313707523385  0.0764845316963445  1.0000
  H   H52       1.0  0.37525382591667267  0.8809571971745311  0.5764839239044548  1.0000
  H   H53       1.0  0.4784017878547857  0.1396650444355245  0.8999209870540312  1.0000
  H   H54       1.0  0.021586524473363514  0.3603203352201376  0.3999003221297031  1.0000
  H   H55       1.0  0.5216191154133368  0.8603208483904081  0.1000777973621823  1.0000
  H   H56       1.0  0.9783864099957571  0.6396597924573726  0.6000729350270433  1.0000
  C   C1        1.0  0.2616266322701861  0.4164152293867858  0.18379687594967464  1.0000
  C   C2        1.0  0.23837805132882292  0.0835860044270405  0.6837986993253509  1.0000
  C   C3        1.0  0.7383904944853583  0.5835980478941636  0.8162061630097881  1.0000
  C   C4        1.0  0.7616170956606538  0.9164135806263971  0.3161958305476205  1.0000
  C   C5        1.0  0.2575290788149757  0.4183941165833644  0.9331945541846451  1.0000
  C   C6        1.0  0.2424845355770771  0.0815999107949352  0.43319637756032153  1.0000
  C   C7        1.0  0.742486816601577  0.5815953794603388  0.0668054458153549  1.0000
  C   C8        1.0  0.7575024163980331  0.9183982329713984  0.5667999756883262  1.0000
  C   C9        1.0  0.37415567358908675  0.2913778077903473  0.8667793107639952  1.0000
  C   C10       1.0  0.1258405822412527  0.2086162195879524  0.3667799185558849  1.0000
  C   C11       1.0  0.6258423114317536  0.7086181740453339  0.13321765027654214  1.0000
  C   C12       1.0  0.8741623430636452  0.7913812035348329  0.6332182580684389  1.0000
  C   C13       1.0  0.3024909790919566  0.3991997755488228  0.0180903178751564  1.0000
  C   C14       1.0  0.19751599070441736  0.10080434083921828  0.5180866711238039  1.0000
  C   C15       1.0  0.6975216428363852  0.6008026920788367  0.9819145444599756  1.0000
  C   C16       1.0  0.8024771028419977  0.8991981267884341  0.4819108977086231  1.0000
  C   C17       1.0  0.2408660495477974  0.3983566225917912  0.791935209384306  1.0000
  C   C18       1.0  0.2591144844649307  0.1016309189945233  0.2919327782167401  1.0000
  C   C19       1.0  0.7591283804209042  0.6016386386003276  0.20806722178326  1.0000
  C   C20       1.0  0.7408588479452619  0.8983657834847065  0.7080593204886655  1.0000
  C   C21       1.0  0.6890503051998067  0.1100163273774015  0.927116027472195  1.0000
  C   C22       1.0  0.810952426683315  0.3899863477235286  0.42709779371543294  1.0000
  C   C23       1.0  0.3109659581060811  0.8899688448049757  0.07288822707105422  1.0000
  C   C24       1.0  0.18904916219928944  0.6100182818347832  0.5728906582386202  1.0000
  C   C25       1.0  0.2885724974637611  0.366223126562879  0.8633641281225337  1.0000
  C   C26       1.0  0.2114274973633812  0.1337694595283168  0.36336716708198946  1.0000
  C   C27       1.0  0.7114397077656207  0.6337757378470099  0.1366310095423344  1.0000
  C   C28       1.0  0.7885537297393768  0.8662279635944685  0.6366297939585479  1.0000
  C   C29       1.0  0.21020556868844412  0.4567208233068811  0.2524670272898533  1.0000
  C   C30       1.0  0.28978988379571297  0.0432868962989232  0.7524712818331025  1.0000
  C   C31       1.0  0.7898005925888826  0.5432895713998533  0.7475378350452788  1.0000
  C   C32       1.0  0.7102099031560057  0.9567134093980767  0.2475220324560894  1.0000
  C   C33       1.0  0.28757794288195276  0.4623331952977593  0.3252756336230506  1.0000
  C   C34       1.0  0.2124218492426309  0.037674524308044986  0.8252725946635877  1.0000
  C   C35       1.0  0.7124333426240954  0.5376764787654267  0.6747292287120885  1.0000
  C   C36       1.0  0.7875764361000251  0.9623221781711848  0.1747158572904652  1.0000
  C   C37       1.0  0.8994535408881746  0.23827430501226124  0.9418902327842957  1.0000
  C   C38       1.0  0.6005520102684159  0.2617377384548618  0.4418890172005093  1.0000
  C   C39       1.0  0.10055076964864182  0.7617238387540723  0.0581231386373275  1.0000
  C   C40       1.0  0.39945089627858726  0.7382726562518797  0.5581280009724667  1.0000
  C   C41       1.0  0.18647862508323243  0.4877863255902284  0.9114465447030966  1.0000
  C   C42       1.0  0.31352418901737883  0.0122156288671462  0.4114447213274204  1.0000
  C   C43       1.0  0.8135254526992881  0.5122060530276826  0.0885577098401527  1.0000
  C   C44       1.0  0.6864585396944491  0.9877853974734023  0.588549808545551  1.0000
  C   C45       1.0  0.3896468223880802  0.3821861019057025  0.1936370266820617  1.0000
  C   C46       1.0  0.110359895896103  0.1178252209178652  0.6936339877226061  1.0000
  C   C47       1.0  0.610370905011088  0.6178286166623508  0.8063666200692907  1.0000
  C   C48       1.0  0.8896407244535427  0.8821822912146542  0.3063605421503652  1.0000
  C   C49       1.0  0.6630721521711891  0.2706802043042202  0.9083492372211737  1.0000
  C   C50       1.0  0.8369249224070998  0.22931670564829426  0.4083395125509028  1.0000
  C   C51       1.0  0.33692772110594404  0.7293020853039494  0.0916544095301788  1.0000
  C   C52       1.0  0.16305768992757663  0.7706814381180465  0.591651978362606  1.0000
  C   C53       1.0  0.4592333172386986  0.39039783519230287  0.2693484470917156  1.0000
  C   C54       1.0  0.0407635204773769  0.1096106050570569  0.7693460159241496  1.0000
  C   C55       1.0  0.5407674870556107  0.6096075150095641  0.7306564152434234  1.0000
  C   C56       1.0  0.9592378844605562  0.8903961864319143  0.2306497295326082  1.0000
  C   C57       1.0  0.8183790174674928  0.30411157937211186  0.9249322312040391  1.0000
  C   C58       1.0  0.6816100948507113  0.1958896544417144  0.4249298000364661  1.0000
  C   C59       1.0  0.18161596433520802  0.6958771960280358  0.07507810125812853  1.0000
  C   C60       1.0  0.31837136500633517  0.8041135338294934  0.5750732389229896  1.0000
  C   C61       1.0  0.5980215239556159  0.1706620855813341  0.9105950282623212  1.0000
  C   C62       1.0  0.9019724798370209  0.329332662440514  0.4105798334650218  1.0000
  C   C63       1.0  0.4019894987443991  0.8293209246703839  0.0894074029052447  1.0000
  C   C64       1.0  0.09801514034923291  0.6706618781080564  0.5894086184890313  1.0000
  S   S1        1.0  0.1641986093339369  0.4142626670939293  0.09238801434388932  1.0000
  S   S2        1.0  0.3358169233661386  0.08573856671989688  0.5923904455114553  1.0000
  S   S3        1.0  0.8358274970242763  0.5857513308305755  0.9076125934480004  1.0000
  S   S4        1.0  0.6641741354950953  0.914253811898014  0.4076016531939431  1.0000
  S   S5        1.0  0.5695634526174302  0.3577058404097997  0.8857016957393783  1.0000
  S   S6        1.0  0.9304275291991787  0.1422946727604781  0.385699872363702  1.0000
  S   S7        1.0  0.430453828031041  0.6422843762774519  0.1142976964687321  1.0000
  S   S8        1.0  0.06954134719344293  0.8576991471445436  0.6142922263417034  1.0000
  S   S9        1.0  0.1581166179942457  0.4899021350618824  0.8084914605239177  1.0000
  S   S10       1.0  0.3418650497382174  0.0100933336035212  0.3084957150671599  1.0000
  S   S11       1.0  0.8418704691158894  0.5100859196947098  0.1915085394760823  1.0000
  S   S12       1.0  0.6581009886230406  0.9899040895192641  0.6915024615571639  1.0000
  I   I1        1.0  0.8052877800466192  0.8770404994639023  0.9482015437914058  1.0000
  I   I2        1.0  0.6947336811764943  0.6229653639082429  0.44821309183735286  1.0000
  I   I3        1.0  0.19474582306308724  0.1229576443024385  0.0517875159545369  1.0000
  I   I4        1.0  0.3052700775263233  0.377039265650069  0.551785084786971  1.0000
  N   N1        1.0  0.838074957526338  0.1417671616796667  0.9422305962438458  1.0000
  N   N2        1.0  0.6619281234882239  0.35824416114390084  0.4422220871573544  1.0000
  N   N3        1.0  0.1619352618274945  0.858229540799563  0.057783990761564  1.0000
  N   N4        1.0  0.33807773746728736  0.641765512919285  0.5577827751777775  1.0000
  N   N5        1.0  0.4113241669944401  0.4299121624911919  0.3348854312283507  1.0000
  N   N6        1.0  0.08868038146952979  0.0700991603323757  0.8348848234364539  1.0000
  N   N7        1.0  0.5886823621722215  0.5700939083542309  0.6651194311067885  1.0000
  N   N8        1.0  0.9113266319636041  0.9299054692259359  0.1651084908527309  1.0000
