data_image0
_chemical_formula_structural       Al2H10C24S2Cl2O11
_chemical_formula_sum              "Al2 H10 C24 S2 Cl2 O11"
_cell_length_a       6.612411149723791
_cell_length_b       12.858121127190493
_cell_length_c       17.66628428881497
_cell_angle_alpha    82.13971918266871
_cell_angle_beta     79.80370405466654
_cell_angle_gamma    71.66196531931409

_space_group_name_H-M_alt    "P 1"
_space_group_IT_number       1

loop_
  _space_group_symop_operation_xyz
  'x, y, z'

loop_
  _atom_site_type_symbol
  _atom_site_label
  _atom_site_symmetry_multiplicity
  _atom_site_fract_x
  _atom_site_fract_y
  _atom_site_fract_z
  _atom_site_occupancy
  Al  Al1       1.0  0.4958949892918978  0.49284848837962164  0.501086336426482  1.0000
  Al  Al2       1.0  0.9949348950852223  0.49755155500024983  0.4978716585117339  1.0000
  H   H1        1.0  0.2131875803325227  0.4556975397068472  0.59767730680133  1.0000
  H   H2        1.0  0.6847620033506058  0.620057221445066  0.44453818099573544  1.0000
  H   H3        1.0  0.6477159237655027  0.5287590843412531  0.2775867409628958  1.0000
  H   H4        1.0  0.719339402380022  0.5539781244300599  0.1336673041023317  1.0000
  H   H5        1.0  0.22590885791184684  0.40444416609875583  0.12166691424906155  1.0000
  H   H6        1.0  0.7982974950796017  0.6088510313900529  0.8699372557599077  1.0000
  H   H7        1.0  0.35405765767808345  0.4685758623315833  0.7345306163817682  1.0000
  H   H8        1.0  0.29457226058279656  0.4583161406492593  0.8781148253211127  1.0000
  H   H9        1.0  0.6126252983466072  0.15372226577793674  0.5391524984351435  1.0000
  H   H10       1.0  0.5197416727170744  0.8809046471173262  0.45708295351711564  1.0000
  C   C1        1.0  0.8675494682269685  0.2996005039365103  0.5110784711899682  1.0000
  C   C2        1.0  0.6557968078458527  0.5260168553803979  0.6362220111928849  1.0000
  C   C3        1.0  0.131307362878239  0.6930489212925792  0.4850871341326837  1.0000
  C   C4        1.0  0.34128556581192254  0.4633630115281306  0.3660052400529352  1.0000
  C   C5        1.0  0.39127738147023194  0.45923374144479817  0.2804597707176484  1.0000
  C   C6        1.0  0.5546924323615271  0.5036312845785459  0.24223085952229445  1.0000
  C   C7        1.0  0.5949817806003422  0.5171997020157093  0.1622864097670416  1.0000
  C   C8        1.0  0.4722431975642391  0.48434441056005545  0.11770067485959151  1.0000
  C   C9        1.0  0.3161332444471795  0.43388456754768623  0.1554447736962032  1.0000
  C   C10       1.0  0.2762856977180021  0.42162730245995306  0.2357372799845976  1.0000
  C   C11       1.0  0.5024706039731368  0.5016260690868962  0.03620062282627152  1.0000
  C   C12       1.0  0.5234094235401227  0.5174448365919987  0.9658871678840341  1.0000
  C   C13       1.0  0.5473937566539601  0.5294563824267371  0.8843065540602097  1.0000
  C   C14       1.0  0.702596400936059  0.576155585373158  0.8407320602605566  1.0000
  C   C15       1.0  0.7356563852106033  0.5801632315245939  0.7603928491267665  1.0000
  C   C16       1.0  0.6143060625235746  0.5382602382844582  0.7210405862251577  1.0000
  C   C17       1.0  0.451849869142876  0.49787755318799753  0.7651753691367701  1.0000
  C   C18       1.0  0.4181079590043523  0.49244377672983575  0.8450976855867012  1.0000
  C   C19       1.0  0.22625221957315472  0.8735732872349189  0.475405030133409  1.0000
  C   C20       1.0  0.7847026686582339  0.11774340330469364  0.5224599403001307  1.0000
  C   C21       1.0  0.08255450026462782  0.8109821395022933  0.48897845856819083  1.0000
  C   C22       1.0  0.9260002522901727  0.18007834195865516  0.5077932208755698  1.0000
  C   C23       1.0  0.8941976079281913  0.00638153642940151  0.5114307585644653  1.0000
  C   C24       1.0  0.11701822939254873  0.9857404107155008  0.48816434423895316  1.0000
  S   S1        1.0  0.8181247721534318  0.8883656443455336  0.5192324277534794  1.0000
  S   S2        1.0  0.19194682534867974  0.1042225087609552  0.4800151197609424  1.0000
  Cl  Cl1       1.0  0.08912112075496019  0.354989336813361  0.2778831614044819  1.0000
  Cl  Cl2       1.0  0.9249767189874378  0.6420108334133232  0.7116756987610344  1.0000
  O   O1        1.0  0.6680419978422661  0.34870699255611726  0.5292464404398415  1.0000
  O   O2        1.0  0.8510781108059998  0.5011305974324003  0.6042458671291371  1.0000
  O   O3        1.0  0.9730531204513112  0.6526462278593002  0.4970757487186859  1.0000
  O   O4        1.0  0.5000364498374662  0.44518234766665193  0.40252001610567595  1.0000
  O   O5        1.0  0.3294467733055058  0.6386189669805447  0.46997482332522367  1.0000
  O   O6        1.0  0.14388417318622948  0.49172227139349917  0.3951483126747135  1.0000
  O   O7        1.0  0.01794420935615181  0.34449155671166676  0.4959037581257205  1.0000
  O   O8        1.0  0.4930626173523079  0.5352463080061228  0.6035351333516059  1.0000
  O   O9        1.0  0.24762494881348113  0.4544918808447492  0.5420049147732868  1.0000
  O   O10       1.0  0.7333798481683897  0.5420102171676859  0.46107517812853166  1.0000
  O   O11       1.0  0.43910880753917053  0.8305228734335304  0.4518424683394712  1.0000
