data_image0
_chemical_formula_structural       Mn2H28C24N20
_chemical_formula_sum              "Mn2 H28 C24 N20"
_cell_length_a       7.7522092581588335
_cell_length_b       9.514053411947472
_cell_length_c       11.707395955693514
_cell_angle_alpha    103.34152047334884
_cell_angle_beta     106.45950841372198
_cell_angle_gamma    105.63433014273913

_space_group_name_H-M_alt    "P 1"
_space_group_IT_number       1

loop_
  _space_group_symop_operation_xyz
  'x, y, z'

loop_
  _atom_site_type_symbol
  _atom_site_label
  _atom_site_symmetry_multiplicity
  _atom_site_fract_x
  _atom_site_fract_y
  _atom_site_fract_z
  _atom_site_occupancy
  Mn  Mn1       1.0  0.1889096146659384  0.07647699431561251  0.45655404705360786  1.0000
  Mn  Mn2       1.0  0.8110945627517124  0.9235551647617939  0.5434505388008689  1.0000
  H   H1        1.0  0.35648142183563875  0.6638400427024961  0.5338142023299497  1.0000
  H   H2        1.0  0.643519832002859  0.33614723276770775  0.4661916214673455  1.0000
  H   H3        1.0  0.36668692764434496  0.8596977253617124  0.7205882199913488  1.0000
  H   H4        1.0  0.633317221249726  0.1402964942389815  0.27940920014301446  1.0000
  H   H5        1.0  0.05733282122400133  0.4937243309263834  0.8259706869384473  1.0000
  H   H6        1.0  0.9426612883735357  0.5062777825373103  0.17403405265640254  1.0000
  H   H7        1.0  0.04697245981435565  0.2992759374206812  0.6401463672269045  1.0000
  H   H8        1.0  0.9530215455505269  0.7007227247080363  0.3598611183680944  1.0000
  H   H9        1.0  0.27787317000405637  0.9254087736701916  0.8989095331308974  1.0000
  H   H10       1.0  0.7221385150599743  0.07459360704820737  0.10109423860207303  1.0000
  H   H11       1.0  0.35298312115946817  0.8124264024689508  0.9900756993959519  1.0000
  H   H12       1.0  0.6470289314545281  0.18757368448278558  0.009927707446180972  1.0000
  H   H13       1.0  0.10486638317152591  0.7828585120350837  0.9252209902350472  1.0000
  H   H14       1.0  0.8951417437897291  0.2171449640608003  0.07478403810088002  1.0000
  H   H15       1.0  0.27779267345111686  0.14944110536152516  0.027383361459186482  1.0000
  H   H16       1.0  0.7221775594279122  0.8505365025262107  0.9726157511346545  1.0000
  H   H17       1.0  0.16764712700139464  0.9320172482059587  0.14308287168773853  1.0000
  H   H18       1.0  0.8323516398004998  0.0679860819251061  0.8569391885893722  1.0000
  H   H19       1.0  0.3543589256291212  0.5414133870588315  0.2580104807739403  1.0000
  H   H20       1.0  0.6456402843237825  0.4585819079353611  0.7419836658129668  1.0000
  H   H21       1.0  0.5108957573805384  0.47658194471453186  0.19429629463515852  1.0000
  H   H22       1.0  0.48909494602056464  0.5234028745584067  0.8056934464338782  1.0000
  H   H23       1.0  0.31801777954844107  0.5779049419143759  0.049479468267818974  1.0000
  H   H24       1.0  0.6819798142841619  0.42208343095894196  0.9505113644677224  1.0000
  H   H25       1.0  0.09894658443708686  0.4392280543200968  0.035304804596613316  1.0000
  H   H26       1.0  0.901045147123618  0.5607717250891183  0.9646930752272951  1.0000
  H   H27       1.0  0.26292693852494853  0.37797279420954766  0.9744860335980335  1.0000
  H   H28       1.0  0.7370519784100507  0.6220095460036034  0.025506183379022187  1.0000
  C   C1        1.0  0.2058856571011915  0.4695833867329069  0.5777408853529239  1.0000
  C   C2        1.0  0.7941196468572043  0.5304165972071359  0.4222646698042922  1.0000
  C   C3        1.0  0.29202608239346256  0.628492904725725  0.5988079715198112  1.0000
  C   C4        1.0  0.7079826807983807  0.37150253239524034  0.40119992817484024  1.0000
  C   C5        1.0  0.2978673953572652  0.7366526106501394  0.7034683574602526  1.0000
  C   C6        1.0  0.7021416871146471  0.2633405336636726  0.29653148108133115  1.0000
  C   C7        1.0  0.21964594901840678  0.6910040326468021  0.7897004269908195  1.0000
  C   C8        1.0  0.7803603199585184  0.3089982660033996  0.21030232694541703  1.0000
  C   C9        1.0  0.1262382810056478  0.5321852231359185  0.7637394249996491  1.0000
  C   C10       1.0  0.8737629287074924  0.46781469989264207  0.23626023596853687  1.0000
  C   C11       1.0  0.12049331495767025  0.4221780306380508  0.6600226053528644  1.0000
  C   C12       1.0  0.8795087877212707  0.5778207551260337  0.3399821312359776  1.0000
  C   C13       1.0  0.23920759685010748  0.8093432561784937  0.9067870977345365  1.0000
  C   C14       1.0  0.7608027449187914  0.19065910380962944  0.09321812982974359  1.0000
  C   C15       1.0  0.23994896061353893  0.28065630052948604  0.2965535550705241  1.0000
  C   C16       1.0  0.7600600151881522  0.7193586858602784  0.7034503860569501  1.0000
  C   C17       1.0  0.2537707422158846  0.16231753953613284  0.1155681673896325  1.0000
  C   C18       1.0  0.7462136229861469  0.8376648821055426  0.8844301982256368  1.0000
  C   C19       1.0  0.19889774654846795  0.055747685387594004  0.17399681353205657  1.0000
  C   C20       1.0  0.8011074317239845  0.9442488476439194  0.8260080670643148  1.0000
  C   C21       1.0  0.35849566425799395  0.4546542415439133  0.17990479611618326  1.0000
  C   C22       1.0  0.6415024389004742  0.5453352881514276  0.8200889117101156  1.0000
  C   C23       1.0  0.2520402199973758  0.4615578768161227  0.05183950519167266  1.0000
  C   C24       1.0  0.7479489089712031  0.5384326661885054  0.948154441440849  1.0000
  N   N1        1.0  0.19883087804535646  0.35243659529851357  0.47701423813654736  1.0000
  N   N2        1.0  0.8011722218320401  0.6475645045360564  0.5229928280728089  1.0000
  N   N3        1.0  0.24821046637678273  0.3984260924936649  0.3924397195037771  1.0000
  N   N4        1.0  0.7518020365665379  0.6015751524528312  0.6075571558863757  1.0000
  N   N5        1.0  0.19056322275789475  0.12998883466244135  0.2857093884507478  1.0000
  N   N6        1.0  0.809439488116247  0.8700145593652451  0.7142946220884526  1.0000
  N   N7        1.0  0.279471017663873  0.3038999972285125  0.19407950929875284  1.0000
  N   N8        1.0  0.7205231544785347  0.696092921717593  0.8059149648810832  1.0000
  N   N9        1.0  0.4821213839979492  0.19781624901844447  0.5738576940853193  1.0000
  N   N10       1.0  0.517877139016896  0.8022123793210977  0.426127241466375  1.0000
  N   N11       1.0  0.6178523409589829  0.1591573480861044  0.5973388726323067  1.0000
  N   N12       1.0  0.38212732350956446  0.8408583443902627  0.4026572148624368  1.0000
  N   N13       1.0  0.7581610373775758  0.12696908944031549  0.6232258350297784  1.0000
  N   N14       1.0  0.24181601680599116  0.873033913377469  0.3767844577981947  1.0000
  N   N15       1.0  0.12663403983569307  0.04635626941028188  0.6207304244775501  1.0000
  N   N16       1.0  0.8733791475001027  0.9536656823733126  0.37925938145444604  1.0000
  N   N17       1.0  0.23055941979820463  0.10719972774003848  0.7304122749069961  1.0000
  N   N18       1.0  0.7694569539458626  0.8928107758338867  0.2695751058797526  1.0000
  N   N19       1.0  0.33124163136686485  0.16559632610006497  0.8368036128707884  1.0000
  N   N20       1.0  0.6687793096238719  0.8344027492481841  0.16318587292114017  1.0000
