data_image0
_chemical_formula_structural       Zn2H40C54S4N8O16
_chemical_formula_sum              "Zn2 H40 C54 S4 N8 O16"
_cell_length_a       8.942519119215618
_cell_length_b       12.540848037844656
_cell_length_c       12.979
_cell_angle_alpha    100.74319387492855
_cell_angle_beta     108.96803623529289
_cell_angle_gamma    93.03884429552014

_space_group_name_H-M_alt    "P 1"
_space_group_IT_number       1

loop_
  _space_group_symop_operation_xyz
  'x, y, z'

loop_
  _atom_site_type_symbol
  _atom_site_label
  _atom_site_symmetry_multiplicity
  _atom_site_fract_x
  _atom_site_fract_y
  _atom_site_fract_z
  _atom_site_occupancy
  Zn  Zn1       1.0  0.21717999323903567  0.24492103462090853  0.795927001253375  1.0000
  Zn  Zn2       1.0  0.7828182314462708  0.755076967520701  0.20407054627102636  1.0000
  H   H1        1.0  0.5726119765025998  0.012815045987849804  0.8139285565128773  1.0000
  H   H2        1.0  0.427388758775095  0.9871837739092302  0.186074323407361  1.0000
  H   H3        1.0  0.4710135452830215  0.7737471426817351  0.4781940004438142  1.0000
  H   H4        1.0  0.528987335665704  0.22625249497081512  0.5218067479633036  1.0000
  H   H5        1.0  0.9366325544031113  0.2683317382479942  0.8772905232290853  1.0000
  H   H6        1.0  0.06337098280904033  0.731669534915497  0.12271188510998604  1.0000
  H   H7        1.0  0.9164792905868993  0.9176704700870816  0.09241525705116521  1.0000
  H   H8        1.0  0.0835178973087523  0.0823283498099983  0.9075868284233123  1.0000
  H   H9        1.0  0.8918621083687199  0.3687373905024743  0.04597265945599827  1.0000
  H   H10       1.0  0.1081427569751412  0.6312647004164944  0.954028652660597  1.0000
  H   H11       1.0  0.4099017720360223  0.40443650559400623  0.9915430887041624  1.0000
  H   H12       1.0  0.590104292860957  0.5955590432811846  0.008456543263299926  1.0000
  H   H13       1.0  0.899995534615215  0.0888090619185888  0.2168341395676023  1.0000
  H   H14       1.0  0.10000047081975788  0.911189757978491  0.7831661401408567  1.0000
  H   H15       1.0  0.5446339507171203  0.8767246358928631  0.35224224846389524  1.0000
  H   H16       1.0  0.45536633045504965  0.1232782727815689  0.6477612662062455  1.0000
  H   H17       1.0  0.37948904011104645  0.5202372223477028  0.16105598568407237  1.0000
  H   H18       1.0  0.6205183529176426  0.4797591442829656  0.8389448614870575  1.0000
  H   H19       1.0  0.35240003929640545  0.4800175550118411  0.8028981253932272  1.0000
  H   H20       1.0  0.6475940553227275  0.5199771761078864  0.1970986785086738  1.0000
  H   H21       1.0  0.3404031974366291  0.58938744274068  0.6611170666423476  1.0000
  H   H22       1.0  0.6595978291831344  0.4106130126673406  0.3388854026285699  1.0000
  H   H23       1.0  0.9929023501683075  0.5149733303801298  0.21672529726955492  1.0000
  H   H24       1.0  0.007104880096925092  0.48502876053883176  0.7832742330513938  1.0000
  H   H25       1.0  0.3277826459863817  0.4584786936581295  0.3336657916663698  1.0000
  H   H26       1.0  0.6722192717519917  0.5415201262389502  0.6663350416429737  1.0000
  H   H27       1.0  0.1466086706507497  0.3760563019689514  0.30295584077934734  1.0000
  H   H28       1.0  0.8533925016400374  0.6239449711945397  0.6970429560276872  1.0000
  H   H29       1.0  0.2633552475070786  0.6002472353970916  0.46537187157759524  1.0000
  H   H30       1.0  0.7366414862830483  0.3997556732773476  0.5346254553191089  1.0000
  H   H31       1.0  0.06284179176530098  0.54516486237371  0.4138312870584927  1.0000
  H   H32       1.0  0.9371542136696646  0.4548339575233698  0.5861643697976646  1.0000
  H   H33       1.0  0.8244855730285963  0.9906118048441501  0.7613326553846138  1.0000
  H   H34       1.0  0.17551516224910563  0.0093870150529298  0.23866791310947383  1.0000
  H   H35       1.0  0.0770146547742101  0.30437758165928847  0.4090956475598162  1.0000
  H   H36       1.0  0.9229788229759348  0.6956269625260916  0.5908997037664179  1.0000
  H   H37       1.0  0.1065961240458648  0.20594190233472895  0.5599963522438713  1.0000
  H   H38       1.0  0.8933991359415145  0.7940593708287623  0.43999726810997697  1.0000
  H   H39       1.0  0.1717243007917943  0.5997377737385818  0.24372744634944615  1.0000
  H   H40       1.0  0.8282826381313697  0.4002626816694388  0.7562717241454423  1.0000
  C   C1        1.0  0.7487585810314741  0.9555906090381685  0.9440059318993691  1.0000
  C   C2        1.0  0.2512384611931466  0.044407393103441016  0.05599597366207832  1.0000
  C   C3        1.0  0.64825100509794  0.0304752931420538  0.9013292090014675  1.0000
  C   C4        1.0  0.3517484020480453  0.9695227089995556  0.09867168523972233  1.0000
  C   C5        1.0  0.8013709932818572  0.0256472648405861  0.6016577861465394  1.0000
  C   C6        1.0  0.19862972490340522  0.9743580971002574  0.398345497787311  1.0000
  C   C7        1.0  0.64094474338426  0.1283401791477701  0.9704140654460647  1.0000
  C   C8        1.0  0.35905244451139134  0.8716586407493097  0.02958647907764343  1.0000
  C   C9        1.0  0.7354115840391557  0.1479491375896487  0.08374059639080406  1.0000
  C   C10       1.0  0.2645870776592432  0.8520513178183791  0.9162598022988393  1.0000
  C   C11       1.0  0.5644513844883718  0.8430134843516088  0.5130871684734616  1.0000
  C   C12       1.0  0.43554978780241527  0.1569877888118825  0.48691471023509797  1.0000
  C   C13       1.0  0.9102876226444749  0.1317101494442383  0.6572668352091995  1.0000
  C   C14       1.0  0.08971265852769511  0.8682927592301938  0.34273744993632965  1.0000
  C   C15       1.0  0.0331869844147832  0.3224475243045219  0.9440959644413738  1.0000
  C   C16       1.0  0.9668174439159856  0.6775521133480283  0.05590480793612326  1.0000
  C   C17       1.0  0.72203793395758  0.9906625056833536  0.4863935857510385  1.0000
  C   C18       1.0  0.2779626385566516  0.0093420385020195  0.5136102887451699  1.0000
  C   C19       1.0  0.1349368099865558  0.45178372961611063  0.12040495663389095  1.0000
  C   C20       1.0  0.8650685094628301  0.5482142725254988  0.8795926388312623  1.0000
  C   C21       1.0  0.8421943721908532  0.9771580918333598  0.05769162157145053  1.0000
  C   C22       1.0  0.1578025243627366  0.0228390925527791  0.9423085631261969  1.0000
  C   C23       1.0  0.009737951968880111  0.3792839828134477  0.03900913568315904  1.0000
  C   C24       1.0  0.990267367480513  0.6207140193281617  0.960993082634296  1.0000
  C   C25       1.0  0.2969007768388892  0.4011090585820441  0.006878896426933106  1.0000
  C   C26       1.0  0.703106324847738  0.5988856725376834  0.9931239023442873  1.0000
  C   C27       1.0  0.5394129246086266  0.20934458285003643  0.9165111276618634  1.0000
  C   C28       1.0  0.4605879563400991  0.7906550548025137  0.08348807979449198  1.0000
  C   C29       1.0  0.6466327462388647  0.8746189155547412  0.6287616650519254  1.0000
  C   C30       1.0  0.353370645302256  0.1253815398532794  0.3712405633741156  1.0000
  C   C31       1.0  0.835131213880217  0.0733068714526581  0.12761929118266835  1.0000
  C   C32       1.0  0.1648687759498912  0.926694401710833  0.8723815522352538  1.0000
  C   C33       1.0  0.6034929653181393  0.9010643097351405  0.4422425134964599  1.0000
  C   C34       1.0  0.39650717018299986  0.098937781183821  0.557759280309881  1.0000
  C   C35       1.0  0.2803662894319672  0.462204387584535  0.10214682309742074  1.0000
  C   C36       1.0  0.7196413949387832  0.5377936145570743  0.8978528429490141  1.0000
  C   C37       1.0  0.2965042710748094  0.44311879264417803  0.7143890197960802  1.0000
  C   C38       1.0  0.7034889324257065  0.5568775739864904  0.2856071086412443  1.0000
  C   C39       1.0  0.28908489139102755  0.503945897852141  0.6341247553249546  1.0000
  C   C40       1.0  0.7109149527680501  0.4960545575558797  0.36587513770455626  1.0000
  C   C41       1.0  0.2094663967197832  0.4565447019689444  0.5209253019501716  1.0000
  C   C42       1.0  0.7905325563206702  0.5434573889500172  0.4790731451393882  1.0000
  C   C43       1.0  0.11931915800651179  0.5141294067339431  0.22569583540573754  1.0000
  C   C44       1.0  0.8806876352456285  0.48587023091860715  0.7743023847007324  1.0000
  C   C45       1.0  0.20107065058749635  0.46140216946736967  0.3237700177800988  1.0000
  C   C46       1.0  0.7989317041639694  0.5385991036961216  0.6762298143175727  1.0000
  C   C47       1.0  0.1847709659319392  0.5222955128684958  0.43244886316378484  1.0000
  C   C48       1.0  0.8152279871085212  0.4777065780504658  0.5675495839257749  1.0000
  C   C49       1.0  0.7636207376925909  0.9651681611158693  0.6715842556689537  1.0000
  C   C50       1.0  0.2363817627299127  0.0348339298030993  0.3284165268171365  1.0000
  C   C51       1.0  0.1440127379324707  0.34674712812871183  0.4944511961652154  1.0000
  C   C52       1.0  0.8559817766073223  0.6532565983011978  0.5055450105386258  1.0000
  C   C53       1.0  0.1583123483543645  0.2905836823725139  0.5787643786981818  1.0000
  C   C54       1.0  0.8416826202909533  0.7094159552800363  0.4212281113542176  1.0000
  S   S1        1.0  0.774043600570998  0.832650887021636  0.8623832017482659  1.0000
  S   S2        1.0  0.225952113521906  0.167346297364503  0.1376190295602768  1.0000
  S   S3        1.0  0.5886721807414262  0.8003536346899411  0.7157057034901231  1.0000
  S   S4        1.0  0.4113285545362685  0.1996451852071388  0.2842948650039645  1.0000
  N   N1        1.0  0.1745626957603008  0.33264084625196944  0.9281473725068352  1.0000
  N   N2        1.0  0.8254402587677278  0.6673571558896327  0.07185277522934547  1.0000
  N   N3        1.0  0.2323392747216744  0.3375351127466004  0.6875147735576661  1.0000
  N   N4        1.0  0.7676576218319158  0.6624620716395384  0.31248078828767945  1.0000
  N   N5        1.0  0.7269929760628884  0.2455106363155792  0.16096071232199452  1.0000
  N   N6        1.0  0.2730067224251584  0.7544890013369709  0.839038230319105  1.0000
  N   N7        1.0  0.7644483174187257  0.047218836413137  0.4095617475435134  1.0000
  N   N8        1.0  0.235548416371401  0.9527840722612951  0.5904409726808666  1.0000
  O   O1        1.0  0.600963192642503  0.3024869310100655  0.921170691752856  1.0000
  O   O2        1.0  0.3990376883062225  0.6975127066424847  0.07882928617888041  1.0000
  O   O3        1.0  0.3933970446861608  0.1671484005404906  0.8641539353938157  1.0000
  O   O4        1.0  0.6066038362625648  0.8328512371120596  0.13584527206253233  1.0000
  O   O5        1.0  0.6001392145436527  0.2874197864547697  0.14019083224610543  1.0000
  O   O6        1.0  0.3998604839443942  0.7125798511977807  0.8598111922965259  1.0000
  O   O7        1.0  0.847025016214083  0.2822213149248896  0.24513620690400026  1.0000
  O   O8        1.0  0.1529760104056734  0.7177791404831311  0.7548631804653853  1.0000
  O   O9        1.0  0.8964796924545483  0.10372246844531932  0.44347438340724216  1.0000
  O   O10       1.0  0.10351718700660939  0.8962812579845902  0.5565262053040172  1.0000
  O   O11       1.0  0.6673471221145704  0.0358618484302866  0.3136852088642286  1.0000
  O   O12       1.0  0.3326513939127906  0.9641377892222638  0.686316550863154  1.0000
  O   O13       1.0  0.8519336761491942  0.21949374600205127  0.6549219607556935  1.0000
  O   O14       1.0  0.1480640944305804  0.7805083449169175  0.3450785329447612  1.0000
  O   O15       1.0  0.055471917237156304  0.11862279088450832  0.711154513701068  1.0000
  O   O16       1.0  0.9445279269219213  0.8813776645235124  0.28884692027921227  1.0000
