data_image0
_chemical_formula_structural       Zn4H20C48N16O8
_chemical_formula_sum              "Zn4 H20 C48 N16 O8"
_cell_length_a       15.638133061561195
_cell_length_b       15.970560481526475
_cell_length_c       18.419970907123833
_cell_angle_alpha    106.32429748365777
_cell_angle_beta     105.79403516973574
_cell_angle_gamma    113.2013234441717

_space_group_name_H-M_alt    "P 1"
_space_group_IT_number       1

loop_
  _space_group_symop_operation_xyz
  'x, y, z'

loop_
  _atom_site_type_symbol
  _atom_site_label
  _atom_site_symmetry_multiplicity
  _atom_site_fract_x
  _atom_site_fract_y
  _atom_site_fract_z
  _atom_site_occupancy
  Zn  Zn1       1.0  0.8566473591288997  0.8531167084977582  0.4851254616540147  1.0000
  Zn  Zn2       1.0  0.14042671593563943  0.14010387120013232  0.5063349093818914  1.0000
  Zn  Zn3       1.0  0.11168995960937171  0.9989164905808465  0.6187484907437196  1.0000
  Zn  Zn4       1.0  0.8877895573599731  0.9980543484497771  0.3777294164801361  1.0000
  H   H1        1.0  0.7700723340589234  0.817463490446627  0.6308264669761314  1.0000
  H   H2        1.0  0.09629156124636042  0.1458594314766941  0.7681813019505057  1.0000
  H   H3        1.0  0.8304584837110626  0.1519102057358452  0.47262855441528745  1.0000
  H   H4        1.0  0.15657046112558953  0.33341112728606237  0.6372455826683493  1.0000
  H   H5        1.0  0.7891051968177721  0.9709924984861118  0.6107635468024103  1.0000
  H   H6        1.0  0.8538104657824519  0.1534887297645042  0.2964325076497901  1.0000
  H   H7        1.0  0.31478587404915  0.27436913626194576  0.447071415751573  1.0000
  H   H8        1.0  0.3079213561759317  0.41629397655194816  0.027146359949263406  1.0000
  H   H9        1.0  0.8415776669755886  0.0905615635971486  0.08482257975751391  1.0000
  H   H10       1.0  0.1630977798870532  0.3589713396415347  0.4968900451216669  1.0000
  H   H11       1.0  0.2670654096014077  0.08013122165674251  0.8275061357835513  1.0000
  H   H12       1.0  0.3645522774884356  0.1704646758026627  0.5189537420220846  1.0000
  H   H13       1.0  0.694776945786721  0.6320070665708996  0.45279366468853527  1.0000
  H   H14       1.0  0.18484305478014557  0.8491928279570685  0.533781806723745  1.0000
  H   H15       1.0  0.8823101288152131  0.8549682973905133  0.21817200001952133  1.0000
  H   H16       1.0  0.8578761875037909  0.6658191638809536  0.3651217638518105  1.0000
  H   H17       1.0  0.6657164871241577  0.8312402266691236  0.19428326696242237  1.0000
  H   H18       1.0  0.3535103659557493  0.040517252825068795  0.6954430296916742  1.0000
  H   H19       1.0  0.35397575439680645  0.5856959572524686  0.9681319836580188  1.0000
  H   H20       1.0  0.03466288555524948  0.9419225511260548  0.99073974512919  1.0000
  C   C1        1.0  0.853852469000401  0.8584738856283849  0.6575487223565021  1.0000
  C   C2        1.0  0.9354427188019018  0.7250367738173579  0.4119341357954554  1.0000
  C   C3        1.0  0.6758406140251766  0.8029009311040127  0.24118343763382205  1.0000
  C   C4        1.0  0.08771927820468048  0.2944204864318464  0.45080468047241606  1.0000
  C   C5        1.0  0.3404480186896492  0.0721299862702409  0.6512844951557072  1.0000
  C   C6        1.0  0.6103091850675996  0.7084553640731173  0.23628778561949568  1.0000
  C   C7        1.0  0.40256498386351314  0.11038016146047619  0.6122616709724086  1.0000
  C   C8        1.0  0.02632915050896392  0.7198444795793647  0.435236445928183  1.0000
  C   C9        1.0  0.03645177003031098  0.9832410849464278  0.24824872408768073  1.0000
  C   C10       1.0  0.7225129309681863  0.11042654040188889  0.5828695154569489  1.0000
  C   C11       1.0  0.6551153972357754  0.11962174467590359  0.6000055960641932  1.0000
  C   C12       1.0  0.008026723481840654  0.29294985815096897  0.39032609368103277  1.0000
  C   C13       1.0  0.5746381826994027  0.1221979010493044  0.6118677853667691  1.0000
  C   C14       1.0  0.49620828056509236  0.11715997014200497  0.6169994224178411  1.0000
  C   C15       1.0  0.009855644368848003  0.37784716818109126  0.3812999337180615  1.0000
  C   C16       1.0  0.10738279987039333  0.17654651493368334  0.7237669463543244  1.0000
  C   C17       1.0  0.018813065448249237  0.45882594290693396  0.38415560132010285  1.0000
  C   C18       1.0  0.02617838947278974  0.548740371985019  0.3939209452046129  1.0000
  C   C19       1.0  0.03163582179639936  0.6312522622502922  0.4099584266487284  1.0000
  C   C20       1.0  0.18485496001335383  0.3618529994680983  0.8121385555760983  1.0000
  C   C21       1.0  0.3144849089346735  0.5087852311323928  0.962523312761171  1.0000
  C   C22       1.0  0.3477557249159773  0.49237669948634977  0.0312916502211991  1.0000
  C   C23       1.0  0.14030834945280907  0.2771709205064354  0.7351577244058022  1.0000
  C   C24       1.0  0.43547511088041096  0.5675255121889649  0.1056029133584175  1.0000
  C   C25       1.0  0.23884834925592469  0.4313497109683482  0.8832202565842807  1.0000
  C   C26       1.0  0.5161059191731853  0.6311013922222202  0.16855572982322536  1.0000
  C   C27       1.0  0.029903312958374798  0.9809716087522914  0.17024507098921052  1.0000
  C   C28       1.0  0.828308149853278  0.0998151146343602  0.5003114932756887  1.0000
  C   C29       1.0  0.9915562092534599  0.9684375090910746  0.019117320519043773  1.0000
  C   C30       1.0  0.9215533703397085  0.9826411212974618  0.9677484620436305  1.0000
  C   C31       1.0  0.909562992355113  0.9566203642586402  0.8842887629274827  1.0000
  C   C32       1.0  0.011512876064884348  0.9791707428234985  0.10068985443500374  1.0000
  C   C33       1.0  0.9107212025985092  0.9310101313302109  0.8157552202370442  1.0000
  C   C34       1.0  0.7857893948984442  0.07994027226445159  0.5561734712495792  1.0000
  C   C35       1.0  0.13820017952740224  0.2732147265797593  0.6571019669201308  1.0000
  C   C36       1.0  0.8071814994937797  0.006502744615538305  0.5705204282430928  1.0000
  C   C37       1.0  0.9296056270945955  0.18991581304510413  0.3480258489465201  1.0000
  C   C38       1.0  0.022315831966750514  0.9480167908482143  0.7386314785497705  1.0000
  C   C39       1.0  0.9257165874097241  0.9117774640287093  0.7425642125665706  1.0000
  C   C40       1.0  0.20909427865715463  0.1484800732486775  0.352742889970429  1.0000
  C   C41       1.0  0.8588128162623364  0.024925081695570804  0.9925987328928161  1.0000
  C   C42       1.0  0.12602782511699934  0.0101990907010574  0.8075617647928939  1.0000
  C   C43       1.0  0.6380764591009155  0.6415526911326311  0.3502221384370189  1.0000
  C   C44       1.0  0.6634290983797086  0.7144458296770039  0.3154079221052015  1.0000
  C   C45       1.0  0.34565401541837565  0.1387433025325606  0.5610161010049666  1.0000
  C   C46       1.0  0.10297755681070692  0.8187316779727991  0.498119111026682  1.0000
  C   C47       1.0  0.9577254033196496  0.9202144319604315  0.2633037607795288  1.0000
  C   C48       1.0  0.11554014827639492  0.055336287549081896  0.33007588588108666  1.0000
  N   N1        1.0  0.9037093695861885  0.8643919583609616  0.6079748774866474  1.0000
  N   N2        1.0  0.0911268325632335  0.11932878260159897  0.6467911661530438  1.0000
  N   N3        1.0  0.868640124873764  0.0404143338757663  0.4820409567060084  1.0000
  N   N4        1.0  0.1099907707022254  0.17881991137465997  0.6057828522127338  1.0000
  N   N5        1.0  0.8554498355427712  0.9831823515669527  0.525051581235502  1.0000
  N   N6        1.0  0.9610594457369218  0.1361941430751727  0.3813238914390525  1.0000
  N   N7        1.0  0.0067339676948421365  0.9195660081735041  0.6574599150599882  1.0000
  N   N8        1.0  0.7519575906988082  0.8054868918653639  0.36186858211288364  1.0000
  N   N9        1.0  0.2581715982192491  0.11967380212907835  0.5692651995518078  1.0000
  N   N10       1.0  0.05958605510209474  0.8760420627872704  0.5117047005633141  1.0000
  N   N11       1.0  0.9866229138991329  0.9535024274961257  0.3473476562426328  1.0000
  N   N12       1.0  0.08351784927048561  0.0347933476247277  0.3875531840119636  1.0000
  N   N13       1.0  0.9566832820393215  0.8181963997921566  0.4588732555261004  1.0000
  N   N14       1.0  0.7591780669187356  0.859014099099731  0.3164518544582933  1.0000
  N   N15       1.0  0.2548285863189363  0.07820570552490118  0.6252783900097754  1.0000
  N   N16       1.0  0.05905020184393807  0.20125273098854984  0.4451145551508874  1.0000
  O   O1        1.0  0.2424316518167089  0.17308583375982775  0.3050858788835456  1.0000
  O   O2        1.0  0.2566714638825403  0.21207695091364087  0.43831278697979326  1.0000
  O   O3        1.0  0.7925480108396741  0.0299870085354215  0.9435448397900573  1.0000
  O   O4        1.0  0.8841489198225503  0.060616159093235894  0.07647647381212866  1.0000
  O   O5        1.0  0.1481525772164218  0.0412657515486714  0.8823848843269888  1.0000
  O   O6        1.0  0.20067704310101667  0.03358644700765009  0.7778536320454281  1.0000
  O   O7        1.0  0.5666127523445752  0.5546370186876286  0.316121619097359  1.0000
  O   O8        1.0  0.7112228723735966  0.6852029564970079  0.43366709506754836  1.0000
