data_image0
_chemical_formula_structural       Zn2H7C10N2O8F
_chemical_formula_sum              "Zn2 H7 C10 N2 O8 F1"
_cell_length_a       7.9823790070504295
_cell_length_b       8.90870658039571
_cell_length_c       11.12958267574401
_cell_angle_alpha    83.5617585547495
_cell_angle_beta     77.92966965464551
_cell_angle_gamma    83.25665433081313

_space_group_name_H-M_alt    "P 1"
_space_group_IT_number       1

loop_
  _space_group_symop_operation_xyz
  'x, y, z'

loop_
  _atom_site_type_symbol
  _atom_site_label
  _atom_site_symmetry_multiplicity
  _atom_site_fract_x
  _atom_site_fract_y
  _atom_site_fract_z
  _atom_site_occupancy
  Zn  Zn1       1.0  0.6606832003874245  0.501197244148564  0.47021033810010954  1.0000
  Zn  Zn2       1.0  0.31027076708450346  0.4914988240435607  0.5232787027026689  1.0000
  H   H1        1.0  0.28449282831783756  0.48988313072717227  0.9221385631183808  1.0000
  H   H2        1.0  0.6798089574024997  0.4415084023129553  0.8799093046013057  1.0000
  H   H3        1.0  0.2924426240443195  0.4600986653932466  0.14521287928492652  1.0000
  H   H4        1.0  0.6661875471214953  0.5424793419451392  0.06315781844119071  1.0000
  H   H5        1.0  0.24817068196288966  0.00010639404333550563  0.5365275693557976  1.0000
  H   H6        1.0  0.6449975659376005  0.9877022687986571  0.48324142385995833  1.0000
  H   H7        1.0  0.9227042079077918  0.4613820682658417  0.6161680162022733  1.0000
  C   C1        1.0  0.4096525741782386  0.783510729502794  0.5123925573578916  1.0000
  C   C2        1.0  0.5117703081308633  0.03754995918235692  0.5022069554412099  1.0000
  C   C3        1.0  0.5422111098426184  0.5126268292469903  0.2572734497992569  1.0000
  C   C4        1.0  0.48491032889477714  0.20480117391236521  0.5063250397558363  1.0000
  C   C5        1.0  0.542418512059676  0.4672495477556426  0.7274067847021115  1.0000
  C   C6        1.0  0.4097137047006993  0.4780797219107314  0.9491586961113684  1.0000
  C   C7        1.0  0.5509302027969909  0.4598889647749402  0.8591152560715756  1.0000
  C   C8        1.0  0.4109380617733506  0.4817674127386201  0.07895218837431629  1.0000
  C   C9        1.0  0.5458390540799555  0.5141319770169377  0.12375309387289235  1.0000
  C   C10       1.0  0.3814338954857845  0.9503817075782808  0.5184948141085286  1.0000
  N   N1        1.0  0.019752575553383174  0.4938233348956802  0.5397808410294971  1.0000
  N   N2        1.0  0.9420670300570178  0.5269679124918201  0.45628756368602547  1.0000
  O   O1        1.0  0.5634306276844966  0.7207839122606929  0.49336671597870924  1.0000
  O   O2        1.0  0.27304089700988504  0.7150357953607981  0.5273363401040498  1.0000
  O   O3        1.0  0.6868542609445782  0.5238632508679758  0.28722854172809065  1.0000
  O   O4        1.0  0.4001639727593299  0.4996084654910931  0.3330887250739067  1.0000
  O   O5        1.0  0.6205666514223224  0.27419185323713446  0.4811199194567095  1.0000
  O   O6        1.0  0.3300112292039968  0.26664118276998056  0.5338984884231337  1.0000
  O   O7        1.0  0.6895223128194344  0.4658342285796309  0.6509064835610517  1.0000
  O   O8        1.0  0.39844700750991524  0.47676014427536034  0.6948796127930877  1.0000
  F   F1        1.0  0.05104948089071827  0.5797689767488877  0.34566637073318424  1.0000
