data_image0
_chemical_formula_structural       Cd2H24C28N4O8
_chemical_formula_sum              "Cd2 H24 C28 N4 O8"
_cell_length_a       4.427449977000801
_cell_length_b       8.959745688998453
_cell_length_c       15.817931785896732
_cell_angle_alpha    105.39420625274782
_cell_angle_beta     89.99993112821927
_cell_angle_gamma    90.00001279758636

_space_group_name_H-M_alt    "P 1"
_space_group_IT_number       1

loop_
  _space_group_symop_operation_xyz
  'x, y, z'

loop_
  _atom_site_type_symbol
  _atom_site_label
  _atom_site_symmetry_multiplicity
  _atom_site_fract_x
  _atom_site_fract_y
  _atom_site_fract_z
  _atom_site_occupancy
  Cd  Cd1       1.0  0.9999991455581495  0.9999997305332968  0.4999998210316505  1.0000
  Cd  Cd2       1.0  0.49999898135446585  0.5000007958106566  3.0546462431350783e-07  1.0000
  H   H1        1.0  0.4073194781589749  0.7662626133310583  0.4324067526781477  1.0000
  H   H2        1.0  0.9073213879684233  0.7337379172181145  0.06759340556963173  1.0000
  H   H3        1.0  0.5926785916102945  0.2337375621480788  0.5675932673859094  1.0000
  H   H4        1.0  0.0926789404373167  0.2662622582609728  0.9324066144940346  1.0000
  H   H5        1.0  0.21358927160778046  0.719526014982158  0.5115388503542917  1.0000
  H   H6        1.0  0.7135893905614453  0.7804742566488517  0.9884615932628692  1.0000
  H   H7        1.0  0.7864087981601244  0.2804741513303882  0.4884618005055259  1.0000
  H   H8        1.0  0.28641093784428767  0.21952591883023598  0.011538426800797221  1.0000
  H   H9        1.0  0.2557969046857949  0.6852291706727485  0.2788155078746399  1.0000
  H   H10       1.0  0.7558004472329432  0.8147725060186206  0.22118614294262076  1.0000
  H   H11       1.0  0.7441989064442822  0.3147709864732491  0.7211857737813219  1.0000
  H   H12       1.0  0.2442021398092677  0.18522766946041713  0.778813877120669  1.0000
  H   H13       1.0  0.5937002752507681  0.32221703978297006  0.2139783545244853  1.0000
  H   H14       1.0  0.09370121574434621  0.17778535432209006  0.286022296937432  1.0000
  H   H15       1.0  0.40629779451850107  0.6777831356961742  0.7860216655395718  1.0000
  H   H16       1.0  0.9062991126613938  0.8222148211569975  0.7139777231262414  1.0000
  H   H17       1.0  0.4914582438909889  0.35498416802024485  0.3725706740955133  1.0000
  H   H18       1.0  0.991464375134683  0.1450170504365361  0.1274296620275521  1.0000
  H   H19       1.0  0.5085398258782803  0.6450160074588924  0.6274293459685438  1.0000
  H   H20       1.0  0.008538211907392701  0.854984282642711  0.8725705371026606  1.0000
  H   H21       1.0  0.7671020410537112  0.5592660586133533  0.4851141837470081  1.0000
  H   H22       1.0  0.26710877923308374  0.940735626731581  0.01488683240082628  1.0000
  H   H23       1.0  0.23289377007772322  0.4407341076992425  0.5148864671131932  1.0000
  H   H24       1.0  0.7328960664439705  0.059266854781221  0.9851141765916865  1.0000
  C   C1        1.0  0.033144789238107805  0.6329840052360114  0.3893990931683078  1.0000
  C   C2        1.0  0.533146571594081  0.8670165331244565  0.11060182406671261  1.0000
  C   C3        1.0  0.9668555391664029  0.3670150034762827  0.610601378624196  1.0000
  C   C4        1.0  0.46685827408460057  0.13298364235452453  0.8893981959961863  1.0000
  C   C5        1.0  0.088194723640548  0.6140532143372539  0.3002829166842815  1.0000
  C   C6        1.0  0.5881961306996146  0.8859484791255813  0.19971816075774035  1.0000
  C   C7        1.0  0.9118033461274917  0.3859457943750898  0.699717555108613  1.0000
  C   C8        1.0  0.41180419770599025  0.11405285395370875  0.8002820383728563  1.0000
  C   C9        1.0  0.9288593301792645  0.5027377355361865  0.2373589739458097  1.0000
  C   C10       1.0  0.4288582507579691  0.9972627848691076  0.2626418077187296  1.0000
  C   C11       1.0  0.07114325686158912  0.49726243077625315  0.7626416769132334  1.0000
  C   C12       1.0  0.5711443362843767  0.0027362330097276026  0.7373580332776228  1.0000
  C   C13       1.0  0.7155762113854891  0.40861884635146595  0.2635322072753469  1.0000
  C   C14       1.0  0.21557732776404487  0.09138237545676021  0.2364688541609326  1.0000
  C   C15       1.0  0.2844263756541352  0.5913801531941731  0.7364688953125267  1.0000
  C   C16       1.0  0.7844252592795299  0.9086178091888757  0.7635305351065895  1.0000
  C   C17       1.0  0.6593969592910653  0.42788464340446813  0.3524289857135017  1.0000
  C   C18       1.0  0.1594007085152924  0.07211659011939281  0.1475714641734669  1.0000
  C   C19       1.0  0.34060336911345257  0.5721143653078189  0.647571486079002  1.0000
  C   C20       1.0  0.8406018785281477  0.9278847521264526  0.8524281041609852  1.0000
  C   C21       1.0  0.814309948031493  0.5409375580323541  0.4153888673272306  1.0000
  C   C22       1.0  0.3143141354588366  0.9590664403710251  0.08461249078156641  1.0000
  C   C23       1.0  0.18568586309980623  0.459063765880444  0.5846119625999009  1.0000
  C   C24       1.0  0.6856884515844612  0.04093605947502252  0.9153872566198158  1.0000
  C   C25       1.0  0.9860753114358756  0.48549057935272816  0.1416835458692987  1.0000
  C   C26       1.0  0.4860736116140458  0.014510639348472404  0.3583167920992807  1.0000
  C   C27       1.0  0.013927275606199899  0.5145107537265121  0.8583166532609141  1.0000
  C   C28       1.0  0.5139267167918291  0.9854883785304128  0.6416830488974626  1.0000
  N   N1        1.0  0.1951476365638314  0.7464567801758762  0.4530068220193542  1.0000
  N   N2        1.0  0.6951473849440576  0.7535437600004827  0.04699340891841795  1.0000
  N   N3        1.0  0.8048504332040736  0.25354338613666993  0.5469938288404563  1.0000
  N   N4        1.0  0.3048552020993823  0.2464575822453555  0.9530061594160344  1.0000
  O   O1        1.0  0.18774901797699783  0.5727850078061751  0.12206920176622303  1.0000
  O   O2        1.0  0.687747417359077  0.9272155235393242  0.37793166250229143  1.0000
  O   O3        1.0  0.8122513104273779  0.42721515850631436  0.8779314490932039  1.0000
  O   O4        1.0  0.312252911046663  0.07278465193977013  0.6220683575613748  1.0000
  O   O5        1.0  0.8283028771905309  0.3871573744747039  0.08565435323862398  1.0000
  O   O6        1.0  0.32830323741254835  0.11284385138525722  0.4143460387821065  1.0000
  O   O7        1.0  0.17169745121371704  0.6128439494379948  0.9143464766877328  1.0000
  O   O8        1.0  0.6716970909933266  0.8871551664936279  0.5856538022146367  1.0000
