data_image0
_chemical_formula_structural       Cu2H28C36S8N12O8
_chemical_formula_sum              "Cu2 H28 C36 S8 N12 O8"
_cell_length_a       9.49960011709342
_cell_length_b       10.42582637393437
_cell_length_c       12.051960540387713
_cell_angle_alpha    86.04478680039254
_cell_angle_beta     78.06785693682924
_cell_angle_gamma    67.97397122892647

_space_group_name_H-M_alt    "P 1"
_space_group_IT_number       1

loop_
  _space_group_symop_operation_xyz
  'x, y, z'

loop_
  _atom_site_type_symbol
  _atom_site_label
  _atom_site_symmetry_multiplicity
  _atom_site_fract_x
  _atom_site_fract_y
  _atom_site_fract_z
  _atom_site_occupancy
  Cu  Cu1       1.0  0.5640923979863643  0.0993367522230315  0.1331935460268099  1.0000
  Cu  Cu2       1.0  0.43590852139893593  0.9006630867961865  0.8668072299930003  1.0000
  H   H1        1.0  0.29167571169537615  0.023050405085257394  0.2757517584944935  1.0000
  H   H2        1.0  0.7083345901733794  0.976942108707128  0.7242478064824026  1.0000
  H   H3        1.0  0.6481350470660774  0.26147974719139466  0.32407842770935247  1.0000
  H   H4        1.0  0.35185827875049114  0.7385336252187642  0.6759196196597443  1.0000
  H   H5        1.0  0.6385551003148253  0.33993388509409084  0.5175172057298667  1.0000
  H   H6        1.0  0.36144071973080844  0.6600732659733596  0.4824815683961958  1.0000
  H   H7        1.0  0.46676228802200376  0.29308923503214157  0.6850773884919477  1.0000
  H   H8        1.0  0.5332433852208568  0.7069094996083861  0.3149234702681625  1.0000
  H   H9        1.0  0.2918673690278554  0.1728574936781726  0.6680680695193429  1.0000
  H   H10       1.0  0.7081391164911611  0.8271391860717614  0.33193192730150395  1.0000
  H   H11       1.0  0.20104657443246038  0.9885547880201461  0.584992909983562  1.0000
  H   H12       1.0  0.7989599209777793  0.011450055363084702  0.4150108163588158  1.0000
  H   H13       1.0  0.1353093254287002  0.9840052566120507  0.4577176471585886  1.0000
  H   H14       1.0  0.8646957656796702  0.015992372413364795  0.5422883456922493  1.0000
  H   H15       1.0  0.8062369740977999  0.5652090799908932  0.004830904760652319  1.0000
  H   H16       1.0  0.1937601289377611  0.4347949249858658  0.9951703031031016  1.0000
  H   H17       1.0  0.9371003656803013  0.3944840473045303  0.03428258752946792  1.0000
  H   H18       1.0  0.06289688139600001  0.6055168821729212  0.9657179236236431  1.0000
  H   H19       1.0  0.5168240320179152  0.7251098615594955  0.1216476503403428  1.0000
  H   H20       1.0  0.4831701575038991  0.27488799167680605  0.8783551949123662  1.0000
  H   H21       1.0  0.23294387878830494  0.7981268235833525  0.1862622978043618  1.0000
  H   H22       1.0  0.7670484169088001  0.20187309846398446  0.8137415915140094  1.0000
  H   H23       1.0  0.10624135132522376  0.6266116207643152  0.2268482103248175  1.0000
  H   H24       1.0  0.8937537084125748  0.3733811870884766  0.7731481074158708  1.0000
  H   H25       1.0  0.26094282814514  0.3728495982088305  0.2002826141950678  1.0000
  H   H26       1.0  0.7390587495843378  0.6271430977858046  0.7997142670745987  1.0000
  H   H27       1.0  0.8372473317636636  0.2131666616625125  0.06382091541068745  1.0000
  H   H28       1.0  0.16275643330432382  0.7868341559567896  0.9361801592713945  1.0000
  C   C1        1.0  0.3379953866556776  0.0706359448577274  0.32911207562332834  1.0000
  C   C2        1.0  0.6620055183794733  0.9293639083292221  0.6708878722527913  1.0000
  C   C3        1.0  0.4699169952921807  0.17652441997107363  0.3867741677556538  1.0000
  C   C4        1.0  0.5300756479388156  0.8234879459981101  0.6132232166983657  1.0000
  C   C5        1.0  0.569187747170446  0.2439457890912778  0.39736348465810056  1.0000
  C   C6        1.0  0.4308066314943774  0.756067597733896  0.6026327242972228  1.0000
  C   C7        1.0  0.5638306662199284  0.28625302446381085  0.5059525211801343  1.0000
  C   C8        1.0  0.4361625200148112  0.7137552456446272  0.4940433215217723  1.0000
  C   C9        1.0  0.4652985666035577  0.260584263416014  0.6016464528841112  1.0000
  C   C10       1.0  0.5347023632121762  0.7394208054145182  0.398349074509717  1.0000
  C   C11       1.0  0.3656772456092128  0.19359976819634278  0.5926765430289009  1.0000
  C   C12       1.0  0.6343252221186972  0.806404209681375  0.4073212697717992  1.0000
  C   C13       1.0  0.36944442405422256  0.15351557119984696  0.48381093267723674  1.0000
  C   C14       1.0  0.6305516509136668  0.8464936350054869  0.516187693117999  1.0000
  C   C15       1.0  0.16558692222739071  0.0477758474727565  0.510075434811327  1.0000
  C   C16       1.0  0.834416458227757  0.9522259763402374  0.4899273130559081  1.0000
  C   C17       1.0  0.9516446323905047  0.275620715758869  0.4390254788841118  1.0000
  C   C18       1.0  0.04836709258919567  0.7243708204225714  0.5609697463501746  1.0000
  C   C19       1.0  0.89435897767639  0.4229657630269798  0.2802232138761839  1.0000
  C   C20       1.0  0.10564445082734861  0.5770249066598153  0.7197701388967629  1.0000
  C   C21       1.0  0.8293846458191326  0.48108364074689547  0.06676004912963404  1.0000
  C   C22       1.0  0.17061288487973073  0.5189193155329759  0.933241969980017  1.0000
  C   C23       1.0  0.5475991522455318  0.5062686791088923  0.12890323732218428  1.0000
  C   C24       1.0  0.4523979116592899  0.49373012439202324  0.8711015628801774  1.0000
  C   C25       1.0  0.46325208274384283  0.6481905551611503  0.1416210482380578  1.0000
  C   C26       1.0  0.5367389873639541  0.35181245630594293  0.8583837199173557  1.0000
  C   C27       1.0  0.30362732087588284  0.6880205033672625  0.1786997383817237  1.0000
  C   C28       1.0  0.6963704444235719  0.31197111460587484  0.8213036515015445  1.0000
  C   C29       1.0  0.2317902176438197  0.5902600789755468  0.20142650211695917  1.0000
  C   C30       1.0  0.7682125133849883  0.40973253225998013  0.7985743377447321  1.0000
  C   C31       1.0  0.3161933507189404  0.4486813112971931  0.18708917333883326  1.0000
  C   C32       1.0  0.6838074721350014  0.5513133829171013  0.8129118824448368  1.0000
  C   C33       1.0  0.47636368489578007  0.407369906052466  0.1497858210898855  1.0000
  C   C34       1.0  0.5236368107459269  0.5926257376845998  0.8502202204536858  1.0000
  C   C35       1.0  0.724418863245319  0.29399316672053294  0.09044530725728346  1.0000
  C   C36       1.0  0.2755801910155712  0.7060087127742635  0.9095581691155558  1.0000
  S   S1        1.0  0.7292772926053676  0.8746879803082022  0.013396891582573298  1.0000
  S   S2        1.0  0.2707154307550397  0.12531089304224  0.9866078089816952  1.0000
  S   S3        1.0  0.99370953189883  0.19820384224966156  0.5673042212403417  1.0000
  S   S4        1.0  0.006297564454975105  0.8017939147799142  0.4326922977771517  1.0000
  S   S5        1.0  0.8941890160362082  0.45392672098656567  0.420974043343321  1.0000
  S   S6        1.0  0.10582094480936624  0.5460638226743342  0.5790207011022872  1.0000
  S   S7        1.0  0.8519009209758721  0.5615891893477213  0.18872756850417013  1.0000
  S   S8        1.0  0.14809583060607423  0.4384076156862519  0.8112740674542707  1.0000
  N   N1        1.0  0.44742901106549476  0.12173018413213306  0.2922559887169669  1.0000
  N   N2        1.0  0.5525693853904275  0.878275904565264  0.7077424042585035  1.0000
  N   N3        1.0  0.2879416098163006  0.0858224995391978  0.44395478738947247  1.0000
  N   N4        1.0  0.7120608866119228  0.9141814500030564  0.5560446816985944  1.0000
  N   N5        1.0  0.9643491576041046  0.20738908768784373  0.34724317799718557  1.0000
  N   N6        1.0  0.035657587296086  0.7926014693989388  0.6527537691149944  1.0000
  N   N7        1.0  0.9330871762975691  0.2909282413811738  0.2563053359251839  1.0000
  N   N8        1.0  0.06691626655631927  0.7090624141378895  0.7436888449914463  1.0000
  N   N9        1.0  0.704883091878614  0.43024525949028464  0.09209192600192033  1.0000
  N   N10       1.0  0.29511392897573785  0.5697535865138263  0.9079103897693769  1.0000
  N   N11       1.0  0.5906867066583389  0.276545829499561  0.12369307992682366  1.0000
  N   N12       1.0  0.4093176875143172  0.723450807252604  0.8763114218652532  1.0000
  O   O1        1.0  0.6769565088882391  0.8203384786792044  0.9264638626448161  1.0000
  O   O2        1.0  0.3230432715478885  0.17966143093138956  0.07353378292664557  1.0000
  O   O3        1.0  0.884820295288364  0.7849228666813488  0.028308602093233024  1.0000
  O   O4        1.0  0.11517437929737896  0.2150738811871236  0.9716983669801208  1.0000
  O   O5        1.0  0.7182527129394174  0.023234109839805197  0.9878292222773482  1.0000
  O   O6        1.0  0.28174799457408994  0.976763631538333  0.012174186504339001  1.0000
  O   O7        1.0  0.6135682332989987  0.8946847008866642  0.12659590429537101  1.0000
  O   O8        1.0  0.386425754781456  0.10531628451987267  0.8734043250932403  1.0000
