data_image0
_chemical_formula_structural       Zn4H56C72I8N16O8
_chemical_formula_sum              "Zn4 H56 C72 I8 N16 O8"
_cell_length_a       12.93271582254123
_cell_length_b       13.746163513973615
_cell_length_c       16.043261560783474
_cell_angle_alpha    101.41622223527133
_cell_angle_beta     113.7510843454459
_cell_angle_gamma    90.00595851997244

_space_group_name_H-M_alt    "P 1"
_space_group_IT_number       1

loop_
  _space_group_symop_operation_xyz
  'x, y, z'

loop_
  _atom_site_type_symbol
  _atom_site_label
  _atom_site_symmetry_multiplicity
  _atom_site_fract_x
  _atom_site_fract_y
  _atom_site_fract_z
  _atom_site_occupancy
  Zn  Zn1       1.0  0.18912186861309266  0.2821392706365203  0.5518351220960156  1.0000
  Zn  Zn2       1.0  0.6372076233751685  0.21781012143708275  0.4482469754518947  1.0000
  Zn  Zn3       1.0  0.8108781656130404  0.7178604950081893  0.4481647540722805  1.0000
  Zn  Zn4       1.0  0.362791217495932  0.7821896447838982  0.5517525543072139  1.0000
  H   H1        1.0  0.023104381378899988  0.3403219464538624  0.1322610588409177  1.0000
  H   H2        1.0  0.890932708118392  0.15972738617739424  0.8677803497903727  1.0000
  H   H3        1.0  0.9768957288272944  0.6596785643041516  0.867738969260529  1.0000
  H   H4        1.0  0.1090672501276728  0.8402716343540109  0.13221937444478024  1.0000
  H   H5        1.0  0.7456039610966981  0.41488638021337476  0.787725505216187  1.0000
  H   H6        1.0  0.9578968367963583  0.08512782510267411  0.21232189791296469  1.0000
  H   H7        1.0  0.2543960177944485  0.5851133869769428  0.21227347270070146  1.0000
  H   H8        1.0  0.04210382177478076  0.9148719394810956  0.787678600585636  1.0000
  H   H9        1.0  0.3549982805320866  0.2747321424353687  0.46145345942335336  1.0000
  H   H10       1.0  0.8933643583495368  0.22543175204692292  0.5385349278845056  1.0000
  H   H11       1.0  0.645000560339014  0.7252676237856054  0.5385460703357483  1.0000
  H   H12       1.0  0.10663497555152891  0.774567269545429  0.46146417402034956  1.0000
  H   H13       1.0  0.3543788442183669  0.31160704298975633  0.3156818616159498  1.0000
  H   H14       1.0  0.03853952707422791  0.18850385320540405  0.6841858936800236  1.0000
  H   H15       1.0  0.6456220422929563  0.6883949569339126  0.6843190926820882  1.0000
  H   H16       1.0  0.9614599587869604  0.8114966586135498  0.3158135120911257  1.0000
  H   H17       1.0  0.04055823083550792  0.4476187374209176  0.2747121869846225  1.0000
  H   H18       1.0  0.7658688299811305  0.05237277590335761  0.7253867174471084  1.0000
  H   H19       1.0  0.9594412343805985  0.5523810277391165  0.7252879651047835  1.0000
  H   H20       1.0  0.23413071121503748  0.9476277343699807  0.2746135865754411  1.0000
  H   H21       1.0  0.05955509052617467  0.41413239921890727  0.4271033050361411  1.0000
  H   H22       1.0  0.6324599993431834  0.08576626064775893  0.5729873016995557  1.0000
  H   H23       1.0  0.9404443193549527  0.585867367486742  0.5728959488018577  1.0000
  H   H24       1.0  0.36754003488294984  0.9142335049969506  0.42701257446874047  1.0000
  H   H25       1.0  0.8779386712120928  0.35430632476592194  0.9997495013250629  1.0000
  H   H26       1.0  0.8782435061968383  0.14563198838758507  0.00030275326464861076  1.0000
  H   H27       1.0  0.12206086998407524  0.6456941855074162  0.000250802697486546  1.0000
  H   H28       1.0  0.12175715237429337  0.8543677761961845  0.9996977452339452  1.0000
  H   H29       1.0  0.22182913928912026  0.39865619878754194  0.02911286336141935  1.0000
  H   H30       1.0  0.19269758620571792  0.10140059852733428  0.9707848178802366  1.0000
  H   H31       1.0  0.7781701946119457  0.601342822804803  0.9708862385434289  1.0000
  H   H32       1.0  0.8073031483454827  0.8985999111697397  0.029215832551507632  1.0000
  H   H33       1.0  0.14900208217721198  0.40679755369403386  0.8611170565617527  1.0000
  H   H34       1.0  0.28784131519699946  0.09319406744184995  0.13875749726064873  1.0000
  H   H35       1.0  0.8509966827138271  0.5932014674136498  0.13888232126419825  1.0000
  H   H36       1.0  0.7121592880391533  0.906805698687528  0.8612421029865446  1.0000
  H   H37       1.0  0.9418770839069027  0.3862939367912689  0.7623254616058334  1.0000
  H   H38       1.0  0.17952912482650166  0.11373442524534033  0.23764350229378553  1.0000
  H   H39       1.0  0.05812287433916202  0.6137050837401432  0.23767426262931932  1.0000
  H   H40       1.0  0.8204726717646837  0.8862653403077659  0.7623564443626025  1.0000
  H   H41       1.0  0.3820218780797974  0.435345222110783  0.6626085614323641  1.0000
  H   H42       1.0  0.7195101380344084  0.064553541797423  0.3375421175614123  1.0000
  H   H43       1.0  0.6179769834363853  0.5646552907691104  0.33739022200848723  1.0000
  H   H44       1.0  0.28048925120163665  0.9354454782493209  0.6624578825948433  1.0000
  H   H45       1.0  0.5871870489732631  0.44534463938233443  0.7644921129763989  1.0000
  H   H46       1.0  0.8227869129003482  0.054604904567746415  0.23559853788365379  1.0000
  H   H47       1.0  0.4128136855779374  0.5546558703147327  0.23550853745535252  1.0000
  H   H48       1.0  0.1772124969807792  0.9453948621379028  0.7644007159543449  1.0000
  H   H49       1.0  0.5538258389238776  0.12330670785752323  0.723043810963631  1.0000
  H   H50       1.0  0.8306392602579181  0.3766276885525814  0.2769360673202642  1.0000
  H   H51       1.0  0.4461748402923432  0.8766938033851519  0.2769559412167056  1.0000
  H   H52       1.0  0.16936132233315274  0.6233713309178839  0.723064279245186  1.0000
  H   H53       1.0  0.34866826183061067  0.12708382917622174  0.6173812072675278  1.0000
  H   H54       1.0  0.7311575100324744  0.37278490627426936  0.382680574529161  1.0000
  H   H55       1.0  0.6513311480505166  0.8729159375294276  0.38261804657047094  1.0000
  H   H56       1.0  0.2688425241936514  0.6272148593704402  0.6173193016391352  1.0000
  C   C1        1.0  0.2874312492788463  0.3140260122512544  0.41879176117057426  1.0000
  C   C2        1.0  0.8685252151169037  0.186067734477902  0.5812040874449239  1.0000
  C   C3        1.0  0.7125695612524157  0.6859752425591099  0.5812090411943205  1.0000
  C   C4        1.0  0.13147474312916785  0.8139312860535028  0.41879563679022885  1.0000
  C   C5        1.0  0.2861557263343713  0.3336266494763649  0.3367868686426405  1.0000
  C   C6        1.0  0.9492578211710594  0.1664558419801523  0.6631658693023326  1.0000
  C   C7        1.0  0.7138444598518846  0.6663746063949464  0.6632133113919495  1.0000
  C   C8        1.0  0.05074156806497851  0.8335431780665916  0.3368341308539229  1.0000
  C   C9        1.0  0.1944784104886494  0.37879320447388676  0.28139983637873917  1.0000
  C   C10       1.0  0.913014058484116  0.12122597665600675  0.7185699704451026  1.0000
  C   C11       1.0  0.8055217756976063  0.6212080513974243  0.7186003436558579  1.0000
  C   C12       1.0  0.0869835890319592  0.8787737901412387  0.2814292129048113  1.0000
  C   C13       1.0  0.11171186762470602  0.4093178645824694  0.3138531448372746  1.0000
  C   C14       1.0  0.7978446925344542  0.0906791981728432  0.6861987517776243  1.0000
  C   C15       1.0  0.8882870492264558  0.5906826467518088  0.6861465368549774  1.0000
  C   C16       1.0  0.20215534169167176  0.9093205674718663  0.31380112439067187  1.0000
  C   C17       1.0  0.12112150692067293  0.390301322995434  0.3982634718715942  1.0000
  C   C18       1.0  0.7228213018194369  0.10967374854084264  0.601795793783211  1.0000
  C   C19       1.0  0.8788780342755022  0.6096991872779045  0.6017368321509553  1.0000
  C   C20       1.0  0.2771768940615757  0.8903252720821657  0.39820385996385  1.0000
  C   C21       1.0  0.18938870789723694  0.396137664905858  0.19065895537353586  1.0000
  C   C22       1.0  0.9986577765435103  0.10380098517090634  0.8092529649482076  1.0000
  C   C23       1.0  0.8106114023089576  0.6038628458521557  0.8093410727279108  1.0000
  C   C24       1.0  0.0013416333376170778  0.896198781534743  0.19074628888979106  1.0000
  C   C25       1.0  0.9376149532087795  0.3653098922967076  0.9693869087214966  1.0000
  C   C26       1.0  0.9682549484398919  0.1346831816482634  0.030632387280519535  1.0000
  C   C27       1.0  0.06238445667234063  0.6346898744089418  0.030612345116502144  1.0000
  C   C28       1.0  0.03174578611130852  0.8653173280488107  0.9693682631512246  1.0000
  C   C29       1.0  0.0544121214955169  0.3760839314120191  0.024942038624161014  1.0000
  C   C30       1.0  0.029480600480930416  0.12394479210788492  0.9750305164336269  1.0000
  C   C31       1.0  0.9455872883856105  0.6239158352936299  0.9750572152138376  1.0000
  C   C32       1.0  0.9705207030802896  0.8760557180738575  0.024969858077014465  1.0000
  C   C33       1.0  0.13133385766310124  0.39090116184939927  0.985947250999736  1.0000
  C   C34       1.0  0.1453616196487175  0.10910036644861526  0.01396194604549813  1.0000
  C   C35       1.0  0.8686661765630248  0.6090986037953101  0.014052625168567328  1.0000
  C   C36       1.0  0.8546396079324411  0.8908993986198227  0.9860382765319999  1.0000
  C   C37       1.0  0.08995858767792003  0.395699759930949  0.8920983406466334  1.0000
  C   C38       1.0  0.19783396413942708  0.10433326200230654  0.10781054339950913  1.0000
  C   C39       1.0  0.9100408222032073  0.6043000067747003  0.10790091319136519  1.0000
  C   C40       1.0  0.8021672634417313  0.8956665030661385  0.8921896791779816  1.0000
  C   C41       1.0  0.9737856630492064  0.3849940853159809  0.836188651372517  1.0000
  C   C42       1.0  0.1376009500035948  0.11502143832231582  0.1637790569908901  1.0000
  C   C43       1.0  0.026213046506853722  0.6150049373373038  0.16380982820203374  1.0000
  C   C44       1.0  0.8624003329125433  0.8849783252005141  0.8362220638380153  1.0000
  C   C45       1.0  0.8982983756481887  0.3694009040519363  0.8756899054987458  1.0000
  C   C46       1.0  0.022624246557562316  0.13059045860374852  0.1243207873620236  1.0000
  C   C47       1.0  0.10170046522291189  0.6305988621690446  0.1243096242603627  1.0000
  C   C48       1.0  0.9773758430035501  0.8694093054953458  0.87567998705768  1.0000
  C   C49       1.0  0.7106453428493326  0.2792988059994244  0.8109861800338012  1.0000
  C   C50       1.0  0.8997017936505499  0.22072047320502017  0.1890968358390098  1.0000
  C   C51       1.0  0.2893547673568619  0.7207017047585824  0.1890138480676456  1.0000
  C   C52       1.0  0.10029831655564443  0.7792800375529865  0.8109031922624367  1.0000
  C   C53       1.0  0.4238541551969209  0.3680312496582375  0.6777542728155057  1.0000
  C   C54       1.0  0.746142628718779  0.13187173211008482  0.3223498554185086  1.0000
  C   C55       1.0  0.5761459550092668  0.6319692610997693  0.3222457552859412  1.0000
  C   C56       1.0  0.25385683649732743  0.8681280330499566  0.6776502966708905  1.0000
  C   C57       1.0  0.5386707251036568  0.3726501038096687  0.7348587007568241  1.0000
  C   C58       1.0  0.8038774539215082  0.12729605275660566  0.2652392631986516  1.0000
  C   C59       1.0  0.46132930912246917  0.6273496618350407  0.265141175411472  1.0000
  C   C60       1.0  0.19612258030461768  0.8727037128881037  0.7347606129696446  1.0000
  C   C61       1.0  0.5873791980808604  0.28365351013972173  0.7520640081315761  1.0000
  C   C62       1.0  0.8352788261672046  0.21631421643678556  0.24798049473820785  1.0000
  C   C63       1.0  0.41262161245040113  0.7163477446706493  0.24793679423331838  1.0000
  C   C64       1.0  0.16472120805892146  0.7836855492079238  0.7520193814300883  1.0000
  C   C65       1.0  0.5187326307883213  0.19384427433909934  0.7110799225774259  1.0000
  C   C66       1.0  0.8075702351764917  0.3061054262450326  0.28896489875238995  1.0000
  C   C67       1.0  0.48126747941786613  0.8061562364189075  0.28892010552402075  1.0000
  C   C68       1.0  0.1924310477396458  0.693894337277797  0.7110362220765082  1.0000
  C   C69       1.0  0.4052235723265126  0.19534911361414942  0.6532944573384826  1.0000
  C   C70       1.0  0.7518443594659915  0.3045574449826845  0.3467700013732441  1.0000
  C   C71       1.0  0.594777086244619  0.8046506509696203  0.3467060411601112  1.0000
  C   C72       1.0  0.2481556747601419  0.6954423206620249  0.6532298747950592  1.0000
  I   I1        1.0  0.09995970036527523  0.408549125248257  0.63857983546648  1.0000
  I   I2        1.0  0.4614497195115917  0.09134899841151171  0.3614069884143874  1.0000
  I   I3        1.0  0.9000397648508311  0.5914506399117843  0.36142031662292623  1.0000
  I   I4        1.0  0.5385491213595088  0.9086507678094693  0.6385925413447141  1.0000
  I   I5        1.0  0.09619183165179382  0.10525606194196513  0.4782446644066454  1.0000
  I   I6        1.0  0.6179489494918259  0.3946793132081227  0.5219514625084828  1.0000
  I   I7        1.0  0.9038075782293334  0.894743704763677  0.5217545894313532  1.0000
  I   I8        1.0  0.38205063383879423  0.6053167124749238  0.4780560141778309  1.0000
  N   N1        1.0  0.2055007461413966  0.340686466910995  0.44833240686779874  1.0000
  N   N2        1.0  0.7571061474210552  0.1593651386478498  0.5517311050375541  1.0000
  N   N3        1.0  0.7944992121046683  0.6593125536204172  0.5516673173673541  1.0000
  N   N4        1.0  0.24289500418004203  0.8406338813072909  0.44826896560679336  1.0000
  N   N5        1.0  0.08662678974123142  0.36936161793961736  0.1182136465938939  1.0000
  N   N6        1.0  0.9684469110225893  0.13066708461464324  0.8817727536970993  1.0000
  N   N7        1.0  0.9133733964450246  0.6306396379316936  0.8817865334406962  1.0000
  N   N8        1.0  0.03155312320353689  0.8693326810300666  0.11822712247120391  1.0000
  N   N9        1.0  0.7797105238502483  0.35825092951652254  0.8199383607652423  1.0000
  N   N10       1.0  0.9598064025114044  0.1417772822900503  0.18011976812392325  1.0000
  N   N11       1.0  0.22028896201094036  0.6417495823024312  0.18006104500590683  1.0000
  N   N12       1.0  0.040194901049815795  0.8582232278916919  0.819880606386718  1.0000
  N   N13       1.0  0.3584809858528999  0.2811359427734459  0.6375150964180136  1.0000
  N   N14       1.0  0.7209321763637605  0.21875288086368272  0.36256407060155754  1.0000
  N   N15       1.0  0.6415185553432678  0.7188645674998925  0.3624852076045358  1.0000
  N   N16       1.0  0.2790678578623726  0.7812468847810266  0.6374358055667457  1.0000
  O   O1        1.0  0.2745533041415271  0.4330600828550147  0.186103816710478  1.0000
  O   O2        1.0  0.08828827931136377  0.0667954864171918  0.8137065660509819  1.0000
  O   O3        1.0  0.725446730084599  0.5669396827896948  0.8138960594578253  1.0000
  O   O4        1.0  0.9117111859047426  0.9332042787428493  0.18629358603842408  1.0000
  O   O5        1.0  0.744994128898185  0.20559820384383443  0.8456960177592238  1.0000
  O   O6        1.0  0.8993451434070181  0.29442166077529214  0.15438039837589923  1.0000
  O   O7        1.0  0.2550049192680248  0.794403051058133  0.1543047141175791  1.0000
  O   O8        1.0  0.1006555911441824  0.7055788489217749  0.845620252055845  1.0000
