data_image0
_chemical_formula_structural       Zn2H23C26IN2O8
_chemical_formula_sum              "Zn2 H23 C26 I1 N2 O8"
_cell_length_a       9.746445663385751
_cell_length_b       10.853461058214792
_cell_length_c       11.1049512249097
_cell_angle_alpha    89.50264743434167
_cell_angle_beta     90.89888085595537
_cell_angle_gamma    89.75926293848633

_space_group_name_H-M_alt    "P 1"
_space_group_IT_number       1

loop_
  _space_group_symop_operation_xyz
  'x, y, z'

loop_
  _atom_site_type_symbol
  _atom_site_label
  _atom_site_symmetry_multiplicity
  _atom_site_fract_x
  _atom_site_fract_y
  _atom_site_fract_z
  _atom_site_occupancy
  Zn  Zn1       1.0  0.3541872310809212  0.5084143725796795  0.4956508134913592  1.0000
  Zn  Zn2       1.0  0.6357902266002569  0.5089510798882915  0.4983399482376285  1.0000
  H   H1        1.0  0.3166883670510003  0.9050250378764491  0.3990474777542517  1.0000
  H   H2        1.0  0.35761392791032875  0.23610035938456528  0.1279142561227857  1.0000
  H   H3        1.0  0.8703937973969432  0.48061798451735194  0.6825045841736712  1.0000
  H   H4        1.0  0.4646565250665233  0.8842875439570367  0.31220983563375887  1.0000
  H   H5        1.0  0.1307916278986738  0.4881717567661427  0.681128858402694  1.0000
  H   H6        1.0  0.1262158043823689  0.4879752917225632  0.2135392477736886  1.0000
  H   H7        1.0  0.849946194361195  0.6286749112605111  0.23510958724780553  1.0000
  H   H8        1.0  0.8636637685429208  0.4663845901184518  0.215320500593279  1.0000
  H   H9        1.0  0.5076823841102042  0.09656468463727921  0.3018334252642276  1.0000
  H   H10       1.0  0.3385423517060744  0.11630631175902552  0.354921344099239  1.0000
  H   H11       1.0  0.3306778748663532  0.8949766603049627  0.6272940161495697  1.0000
  H   H12       1.0  0.6848978427477874  0.11371673796075754  0.5996447819687205  1.0000
  H   H13       1.0  0.3018969375921756  0.10551670520817426  0.580269843766402  1.0000
  H   H14       1.0  0.7104085986589654  0.8997746505740242  0.5785010438844509  1.0000
  H   H15       1.0  0.6998503795575033  0.910325760482522  0.4206442368169263  1.0000
  H   H16       1.0  0.7112188615314139  0.12492530172016815  0.4436434731501677  1.0000
  H   H17       1.0  0.49210943227429743  0.9208853937910964  0.6977016178839861  1.0000
  H   H18       1.0  0.4390579628768663  0.13138063005232686  0.6820970962494713  1.0000
  H   H19       1.0  0.6440093120202377  0.6512849526188946  0.10214219690966793  1.0000
  H   H20       1.0  0.6485881442315318  0.6353150733363011  0.879834425821372  1.0000
  H   H21       1.0  0.22048954154787742  0.3220141164881057  0.8894614069737727  1.0000
  H   H22       1.0  0.3629631104985762  0.21897434666720272  0.9028218507271718  1.0000
  H   H23       1.0  0.2154038735027868  0.33876921963089773  0.1150055108923738  1.0000
  C   C1        1.0  0.4924116602689921  0.5183495070102069  0.26108658201822277  1.0000
  C   C2        1.0  0.417564036327569  0.41400425867886537  0.9389963650467056  1.0000
  C   C3        1.0  0.31929382625592245  0.30565921920924677  0.9359815726794736  1.0000
  C   C4        1.0  0.5027411189368962  0.7477099830890315  0.5110423057515732  1.0000
  C   C5        1.0  0.3162713168704698  0.31623137611808266  0.0779545579939409  1.0000
  C   C6        1.0  0.9202456807031753  0.5277128740336182  0.39866646697353053  1.0000
  C   C7        1.0  0.9263541723297736  0.4952321790605653  0.5993113174278906  1.0000
  C   C8        1.0  0.0696843784268779  0.5001666949171979  0.5986943630637569  1.0000
  C   C9        1.0  0.0630741520006168  0.5351510851312256  0.39869141450350293  1.0000
  C   C10       1.0  0.06802414934797701  0.5555787009259847  0.26455409744532693  1.0000
  C   C11       1.0  0.9056892196663641  0.5455740824498749  0.26413539831902005  1.0000
  C   C12       1.0  0.4975464212827917  0.12898755220354732  0.4938905051684586  1.0000
  C   C13       1.0  0.4992041421312693  0.48812274379885434  0.734040826452187  1.0000
  C   C14       1.0  0.4898950695298013  0.2693768215023909  0.4865489261766103  1.0000
  C   C15       1.0  0.42458642348988473  0.9323100844766972  0.3912339431796852  1.0000
  C   C16       1.0  0.438584199067421  0.07353466608076793  0.37617636508936414  1.0000
  C   C17       1.0  0.4297459589612771  0.9414076768533236  0.6163750389881244  1.0000
  C   C18       1.0  0.6499337822912281  0.9401477062596517  0.5037294834813437  1.0000
  C   C19       1.0  0.5033536067555104  0.8882918487398972  0.5057874694507305  1.0000
  C   C20       1.0  0.4098115010013573  0.08210459124912722  0.599428582929491  1.0000
  C   C21       1.0  0.6456951449519721  0.08225861522991815  0.5116809944552116  1.0000
  C   C22       1.0  0.4150258932332491  0.4231258232809482  0.06430093801049712  1.0000
  C   C23       1.0  0.49468842915543837  0.5079956256046502  0.1273476225223789  1.0000
  C   C24       1.0  0.5799810918295448  0.5832381689607617  0.056813446160774106  1.0000
  C   C25       1.0  0.5825077359775221  0.5743635317006551  0.9315167289729942  1.0000
  C   C26       1.0  0.4995454109643376  0.48964307122513184  0.8685730142417469  1.0000
  I   I1        1.0  0.14396386187690524  0.732507567673672  0.20664913798839285  1.0000
  N   N1        1.0  0.8483913962018407  0.5074935028620973  0.4973502100532627  1.0000
  N   N2        1.0  0.14157065899647137  0.5195099635236886  0.4964868053581883  1.0000
  O   O1        1.0  0.37781132990608063  0.4980306174183229  0.3112239778298261  1.0000
  O   O2        1.0  0.6046070592934569  0.5454484009597779  0.3148583465138159  1.0000
  O   O3        1.0  0.38716202639182734  0.694434592752124  0.49762756989596824  1.0000
  O   O4        1.0  0.6171858248615791  0.6926144771794117  0.5274377471044503  1.0000
  O   O5        1.0  0.38223825011450424  0.49692024321333167  0.6817638130666523  1.0000
  O   O6        1.0  0.6150452189543216  0.4809128711397508  0.6830748781135727  1.0000
  O   O7        1.0  0.37231083992228525  0.3188973996490604  0.4978190105435375  1.0000
  O   O8        1.0  0.6015039013461562  0.3277615292859721  0.4695616983182235  1.0000
