data_image0
_chemical_formula_structural       H32Rh2C44N2Cl4O12
_chemical_formula_sum              "H32 Rh2 C44 N2 Cl4 O12"
_cell_length_a       9.398659822672254
_cell_length_b       12.304822049392738
_cell_length_c       12.277300544493544
_cell_angle_alpha    91.03971113788761
_cell_angle_beta     71.96230304144159
_cell_angle_gamma    81.92693387112848

_space_group_name_H-M_alt    "P 1"
_space_group_IT_number       1

loop_
  _space_group_symop_operation_xyz
  'x, y, z'

loop_
  _atom_site_type_symbol
  _atom_site_label
  _atom_site_symmetry_multiplicity
  _atom_site_fract_x
  _atom_site_fract_y
  _atom_site_fract_z
  _atom_site_occupancy
  H   H1        1.0  0.055511798040527104  0.40166851815403243  0.5514798880823901  1.0000
  H   H2        1.0  0.9444879708287954  0.5982999367020623  0.4485065600148772  1.0000
  H   H3        1.0  0.11828809707520803  0.2678143518554705  0.4764729077356477  1.0000
  H   H4        1.0  0.8817637051750395  0.7321505217828913  0.5235031700807794  1.0000
  H   H5        1.0  0.9999040171162218  0.37075905486787514  0.4286143381326679  1.0000
  H   H6        1.0  0.0001215114541253201  0.6292010644056916  0.5713547912725544  1.0000
  H   H7        1.0  0.26967404327687217  0.31641357721585456  0.5759945068066087  1.0000
  H   H8        1.0  0.7302723203887354  0.6836158008989344  0.4240265762970664  1.0000
  H   H9        1.0  0.7403006380570715  0.3517919618232027  0.46739174590293686  1.0000
  H   H10       1.0  0.2596766492912366  0.6482581439626215  0.5326262424445074  1.0000
  H   H11       1.0  0.7146383643898558  0.4255329847254429  0.28526750375262816  1.0000
  H   H12       1.0  0.2853370105227881  0.5744905271120402  0.7147625197943696  1.0000
  H   H13       1.0  0.965770615226859  0.06649229895729998  0.9126732751532954  1.0000
  H   H14       1.0  0.03422606753236583  0.9335317881969728  0.08733453072191817  1.0000
  H   H15       1.0  0.9241233510946358  0.0029383893384107036  0.7953592032625847  1.0000
  H   H16       1.0  0.07588509729644954  0.9970720977349358  0.2046390227399612  1.0000
  H   H17       1.0  0.8529283156298249  0.9577008038464854  0.9379278427468872  1.0000
  H   H18       1.0  0.1471021364994058  0.042291250132365094  0.062067775063404385  1.0000
  H   H19       1.0  0.708688676903968  0.9179123990939144  0.8357368921269879  1.0000
  H   H20       1.0  0.2913006751960552  0.08206698053874109  0.16427765872306566  1.0000
  H   H21       1.0  0.2559502129150247  0.0326231145206108  0.8335379442852682  1.0000
  H   H22       1.0  0.7440797239239814  0.9673590985238152  0.16645704481536677  1.0000
  H   H23       1.0  0.2740276003661535  0.21914925664717802  0.9074539685484524  1.0000
  H   H24       1.0  0.7259830434808734  0.7808534043350405  0.09253164466372245  1.0000
  H   H25       1.0  0.16980917242701568  0.3940668691972675  0.19625877291102256  1.0000
  H   H26       1.0  0.8301721704981728  0.6059364799870649  0.8037343235148666  1.0000
  H   H27       1.0  0.060262709488583296  0.22303592241392775  0.24864971022045515  1.0000
  H   H28       1.0  0.9397466992823035  0.776966327865395  0.7513230962986692  1.0000
  H   H29       1.0  0.8795921384074248  0.16448138451457342  0.15342495427763225  1.0000
  H   H30       1.0  0.12041582282575551  0.8355033771260449  0.8465629807345108  1.0000
  H   H31       1.0  0.80262614959247  0.2808431881850523  0.013193426740507152  1.0000
  H   H32       1.0  0.1973406119672064  0.7191201139576504  0.9868200650829875  1.0000
  Rh  Rh1       1.0  0.36286880985200315  0.5156328820823717  0.027483911290339242  1.0000
  Rh  Rh2       1.0  0.6371353016113233  0.4843761159808933  0.9725168265235095  1.0000
  C   C1        1.0  0.4793784020788223  0.4532510401729012  0.21201085107689713  1.0000
  C   C2        1.0  0.5206465037272211  0.5467337925096913  0.7879867533605133  1.0000
  C   C3        1.0  0.4786570215387514  0.4152843495538504  0.32642404445056866  1.0000
  C   C4        1.0  0.5213481385620468  0.584710789471707  0.6735790507561316  1.0000
  C   C5        1.0  0.35058876317785354  0.38459034290250566  0.4098196040003612  1.0000
  C   C6        1.0  0.6494072547487235  0.6154146544996093  0.5901803377235524  1.0000
  C   C7        1.0  0.09133284209953267  0.3564795341038546  0.4668132396693918  1.0000
  C   C8        1.0  0.9087050769413878  0.643499202693974  0.5331548855445047  1.0000
  C   C9        1.0  0.3656410931558441  0.3411744777159384  0.5112014696298742  1.0000
  C   C10       1.0  0.6343477748489549  0.6588366514157682  0.4888071933491957  1.0000
  C   C11       1.0  0.505578032194137  0.3294966308780544  0.5301106244176451  1.0000
  C   C12       1.0  0.4944029005802762  0.6705406518314021  0.46991735405243396  1.0000
  C   C13       1.0  0.6324380347564045  0.36050174540969937  0.4504752518410767  1.0000
  C   C14       1.0  0.3675389136650652  0.6395351327740143  0.5495633193511934  1.0000
  C   C15       1.0  0.6169060053032069  0.4024242383398331  0.34991858287303046  1.0000
  C   C16       1.0  0.38309101995555056  0.5975832768904964  0.6501080661673552  1.0000
  C   C17       1.0  0.5047973868293171  0.29199699611143604  0.9454584973164369  1.0000
  C   C18       1.0  0.4951872447092144  0.7080179081902356  0.05453873910580135  1.0000
  C   C19       1.0  0.5018522428906564  0.17665250386153275  0.9095131206043021  1.0000
  C   C20       1.0  0.49814010603849834  0.8233519455067434  0.09049327169363149  1.0000
  C   C21       1.0  0.6268557018983999  0.09085181839816409  0.8889428877975545  1.0000
  C   C22       1.0  0.37314234517687334  0.9091544732798553  0.11107214252285044  1.0000
  C   C23       1.0  0.8803806174058624  0.029260222085781586  0.8874982203013385  1.0000
  C   C24       1.0  0.11960740499385744  0.9707566017502457  0.11250893075411736  1.0000
  C   C25       1.0  0.6161232224584481  0.9856370205256652  0.8492305060067334  1.0000
  C   C26       1.0  0.3838910637169946  0.0143709661561076  0.15076902271665196  1.0000
  C   C27       1.0  0.48311245107784373  0.9662716686289626  0.8297783083135781  1.0000
  C   C28       1.0  0.5169114429869737  0.03373204401421499  0.17022015258952905  1.0000
  C   C29       1.0  0.3582460506093312  0.04896604015218738  0.8504368000027112  1.0000
  C   C30       1.0  0.6417700790933338  0.9510254500932189  0.14956005342044415  1.0000
  C   C31       1.0  0.36921813181484703  0.15261610692255084  0.8909959778307835  1.0000
  C   C32       1.0  0.6307708150375859  0.847376080405212  0.10900956748424306  1.0000
  C   C33       1.0  0.0492966869038582  0.43592157332938797  0.07489070958215648  1.0000
  C   C34       1.0  0.9506975699349667  0.5640631018880171  0.9250885405923197  1.0000
  C   C35       1.0  0.0898365569393889  0.36844142897624016  0.15693564798635146  1.0000
  C   C36       1.0  0.9101485921698613  0.6315686884556229  0.843065606353491  1.0000
  C   C37       1.0  0.02902291898090679  0.27342288000210857  0.18483211203560046  1.0000
  C   C38       1.0  0.9709639333712302  0.7265826695556042  0.8151557839046146  1.0000
  C   C39       1.0  0.9273172772708735  0.23999945836263237  0.13081316574886154  1.0000
  C   C40       1.0  0.07268986371489211  0.7599894693294829  0.8691765296480225  1.0000
  C   C41       1.0  0.8828470793731003  0.3045124696326623  0.053321786497974664  1.0000
  C   C42       1.0  0.11713610626211599  0.6954779040869709  0.9466759492242073  1.0000
  C   C43       1.0  0.9382998576188298  0.40578080804112904  0.02590472877781729  1.0000
  C   C44       1.0  0.06168332965077647  0.59420252373517  0.974078377751297  1.0000
  N   N1        1.0  0.1150161266238783  0.5273456115181147  0.04455837418774419  1.0000
  N   N2        1.0  0.8849845102815764  0.47263783364598316  0.9554114505325086  1.0000
  Cl  Cl1       1.0  0.5210801130091341  0.2754085219767788  0.6555852260184664  1.0000
  Cl  Cl2       1.0  0.47889249930177163  0.7246233462251793  0.3444485423885694  1.0000
  Cl  Cl3       1.0  0.4731027819416768  0.8361989915192324  0.7797378926302939  1.0000
  Cl  Cl4       1.0  0.5269171029066727  0.16380611720980906  0.2202515648896081  1.0000
  O   O1        1.0  0.3540519308668805  0.4811694555315  0.19163495268592354  1.0000
  O   O2        1.0  0.6459774737651287  0.5188291435829412  0.8083600023354901  1.0000
  O   O3        1.0  0.6111296450796148  0.4532604147385157  0.13925861138078224  1.0000
  O   O4        1.0  0.3888940386521682  0.5467194499843088  0.8607368317182701  1.0000
  O   O5        1.0  0.2165523705588015  0.3964199950442833  0.38746264679352993  1.0000
  O   O6        1.0  0.7834553136783956  0.603558824194735  0.612543348029824  1.0000
  O   O7        1.0  0.3753976227707839  0.353031539141675  0.9851655260747447  1.0000
  O   O8        1.0  0.624590942557326  0.6469789691717122  0.014848915206670175  1.0000
  O   O9        1.0  0.6328742529204092  0.32388704866980317  0.9315114383767875  1.0000
  O   O10       1.0  0.3671184850048022  0.6761351568558353  0.0684628972920009  1.0000
  O   O11       1.0  0.752371119078319  0.11390964460589709  0.911354272601066  1.0000
  O   O12       1.0  0.2476272444927261  0.8860891896619163  0.08865831017514125  1.0000
