data_image0
_chemical_formula_structural       Tm4H28C24O32
_chemical_formula_sum              "Tm4 H28 C24 O32"
_cell_length_a       8.01450498100068
_cell_length_b       9.437292642739603
_cell_length_c       12.232807657121683
_cell_angle_alpha    91.31562666945295
_cell_angle_beta     90.00000578525781
_cell_angle_gamma    89.999953819079

_space_group_name_H-M_alt    "P 1"
_space_group_IT_number       1

loop_
  _space_group_symop_operation_xyz
  'x, y, z'

loop_
  _atom_site_type_symbol
  _atom_site_label
  _atom_site_symmetry_multiplicity
  _atom_site_fract_x
  _atom_site_fract_y
  _atom_site_fract_z
  _atom_site_occupancy
  Tm  Tm1       1.0  0.4425487562936041  0.3074787071104481  0.583208133178239  1.0000
  Tm  Tm2       1.0  0.9425497726633484  0.1925211903858539  0.9167932216987111  1.0000
  Tm  Tm3       1.0  0.5574514807768483  0.6925206319191728  0.4167916026030838  1.0000
  Tm  Tm4       1.0  0.0574492166694682  0.8074781462801113  0.0832073315124831  1.0000
  H   H1        1.0  0.1920278279451963  0.6706519746179113  0.7923335637735605  1.0000
  H   H2        1.0  0.6920249411636308  0.8293504334765488  0.7076640415786384  1.0000
  H   H3        1.0  0.8079736568625224  0.32934842194988795  0.20766701003515203  1.0000
  H   H4        1.0  0.30797155269323184  0.17064996545707345  0.2923357148000321  1.0000
  H   H5        1.0  0.33629237618612257  0.9358531121752878  0.6821243031308837  1.0000
  H   H6        1.0  0.8362897538102488  0.5641502485172224  0.8178757828551254  1.0000
  H   H7        1.0  0.6637091086215322  0.06414728675660092  0.3178754532479218  1.0000
  H   H8        1.0  0.1637079877843135  0.4358501504159591  0.1821239735235807  1.0000
  H   H9        1.0  0.6944018495724933  0.8168598195023479  0.21912172586984718  1.0000
  H   H10       1.0  0.19440222745885194  0.6831399211030699  0.2808780536270135  1.0000
  H   H11       1.0  0.30559713976032293  0.18313951716361032  0.780878827341354  1.0000
  H   H12       1.0  0.805595514135767  0.31686047546602936  0.7191225201815996  1.0000
  H   H13       1.0  0.5180640990947937  0.7519350612792053  0.18320803098603014  1.0000
  H   H14       1.0  0.018064421966180095  0.7480648065461253  0.31679010418214654  1.0000
  H   H15       1.0  0.4819348902374614  0.24806533765354993  0.8167917253927044  1.0000
  H   H16       1.0  0.9819345673670625  0.2519334725812285  0.6832096110016862  1.0000
  H   H17       1.0  0.359954441220431  0.963115680629883  0.423619715697768  1.0000
  H   H18       1.0  0.8599518069736192  0.5368828898021789  0.0763784172314672  1.0000
  H   H19       1.0  0.6400470435872306  0.03688471830200509  0.5763800406810375  1.0000
  H   H20       1.0  0.1400471823591971  0.46311644686377906  0.9236221359797341  1.0000
  H   H21       1.0  0.29320674591043894  0.8756839207245335  0.3212738126184576  1.0000
  H   H22       1.0  0.7932040459150045  0.624316811150571  0.17872599278132378  1.0000
  H   H23       1.0  0.7067959866349796  0.12431647584283212  0.6787267611902904  1.0000
  H   H24       1.0  0.2067949434178757  0.3756825231513048  0.8212753778597843  1.0000
  H   H25       1.0  0.10969075173735383  0.8645955505489481  0.49762002701582736  1.0000
  H   H26       1.0  0.6096917573718627  0.6354042512642762  0.0023789305023811003  1.0000
  H   H27       1.0  0.8903082375953989  0.1354037884810992  0.50237970876546  1.0000
  H   H28       1.0  0.3903072319598381  0.3645972099352619  0.9976200290438937  1.0000
  C   C1        1.0  0.3206907927682111  0.6517151526631864  0.6334618993041232  1.0000
  C   C2        1.0  0.8206866651235387  0.8482914033036482  0.8665366127766134  1.0000
  C   C3        1.0  0.6793131875139835  0.34828736134505806  0.3665395331294761  1.0000
  C   C4        1.0  0.17931107647052613  0.15171005553224154  0.1334631641995472  1.0000
  C   C5        1.0  0.25411896536771644  0.7325209743176162  0.7299992115536256  1.0000
  C   C6        1.0  0.7541148981888242  0.7674824458206329  0.7700000525899426  1.0000
  C   C7        1.0  0.7458837671777729  0.2674794198856603  0.2700021796850365  1.0000
  C   C8        1.0  0.2458815956675409  0.23251901301568978  0.22999972438618238  1.0000
  C   C9        1.0  0.27489872460620296  0.8729500821884529  0.7442881451531989  1.0000
  C   C10       1.0  0.7748947862136717  0.6270533211511521  0.7557119375360982  1.0000
  C   C11       1.0  0.7251027602010254  0.12705137428204694  0.25571244925296804  1.0000
  C   C12       1.0  0.22510295538040034  0.37294813768473023  0.2442878394400552  1.0000
  C   C13       1.0  0.20147931466169672  0.949463057558894  0.840092956995818  1.0000
  C   C14       1.0  0.701475432842699  0.5505393345141626  0.6599079185835137  1.0000
  C   C15       1.0  0.7985221701460219  0.05053733900890481  0.1599076168128946  1.0000
  C   C16       1.0  0.2985235564895562  0.4494610644185925  0.3400918377952209  1.0000
  C   C17       1.0  0.8423061814704055  0.8553408596802967  0.45910467192859267  1.0000
  C   C18       1.0  0.34230531044379836  0.6446598428157843  0.0408935012479219  1.0000
  C   C19       1.0  0.1576953033365669  0.14466060624654634  0.5408926527579254  1.0000
  C   C20       1.0  0.657693678888954  0.35533949621426336  0.9591062345333652  1.0000
  C   C21       1.0  0.9973662563416994  0.929648489181872  0.4916929177573124  1.0000
  C   C22       1.0  0.49736794507192883  0.5703510456992902  0.0083052431481292  1.0000
  C   C23       1.0  0.002632732990989001  0.0703508522122647  0.508306000594068  1.0000
  C   C24       1.0  0.5026322919979619  0.42964935559711415  0.9916936958007269  1.0000
  O   O1        1.0  0.3369775757553342  0.5189784474351313  0.6451015570672354  1.0000
  O   O2        1.0  0.836974570233231  0.9810259845046755  0.8548944624034502  1.0000
  O   O3        1.0  0.6630289000028142  0.4810230043054631  0.3549006721988874  1.0000
  O   O4        1.0  0.1630231713612673  0.018974416792595195  0.1451044765453418  1.0000
  O   O5        1.0  0.3604836051392796  0.7197742855892314  0.5484230980164142  1.0000
  O   O6        1.0  0.8604783063786527  0.7802332979107548  0.9515770716583275  1.0000
  O   O7        1.0  0.6395203751429152  0.2802282284190199  0.45157833441718503  1.0000
  O   O8        1.0  0.13952193069032157  0.21976922082696865  0.048422725915344196  1.0000
  O   O9        1.0  0.33610535354802107  0.5810823912715293  0.3267162594488013  1.0000
  O   O10       1.0  0.8361048733815508  0.9189161862700321  0.1732851419195001  1.0000
  O   O11       1.0  0.6638923880466052  0.4189180052975701  0.6732843143598115  1.0000
  O   O12       1.0  0.1638953636890292  0.08108314803141072  0.8267162287216435  1.0000
  O   O13       1.0  0.6715197094996341  0.6148087989002277  0.5731498901357809  1.0000
  O   O14       1.0  0.17152366467179547  0.8851925517145319  0.9268517806674765  1.0000
  O   O15       1.0  0.3284842707838465  0.3851905424921752  0.42684902821572723  1.0000
  O   O16       1.0  0.8284790678741774  0.11480678258604372  0.07314958997373108  1.0000
  O   O17       1.0  0.6145678866302474  0.7373454967476151  0.2338581607350037  1.0000
  O   O18       1.0  0.1145694358077733  0.7626511196053727  0.2661415526826687  1.0000
  O   O19       1.0  0.3854286072281639  0.2626517201138157  0.7661423512812248  1.0000
  O   O20       1.0  0.885429553525043  0.23734821706059256  0.7338590005285255  1.0000
  O   O21       1.0  0.39457170368032735  0.8939575021680213  0.3653001278029393  1.0000
  O   O22       1.0  0.8945690139293846  0.6060442215614543  0.13469888620740988  1.0000
  O   O23       1.0  0.6054310288646009  0.10604395430204507  0.634700466603256  1.0000
  O   O24       1.0  0.1054287276652417  0.393956175007645  0.8653016876012102  1.0000
  O   O25       1.0  0.8549745112253435  0.7409478926352406  0.4014649466367928  1.0000
  O   O26       1.0  0.354974790133717  0.7590517435218728  0.0985323891926484  1.0000
  O   O27       1.0  0.1450232303690839  0.25905251102611976  0.5985331748820926  1.0000
  O   O28       1.0  0.6450241991985382  0.24094865541088234  0.9014673671860861  1.0000
  O   O29       1.0  0.6975086973261997  0.9020142568375531  0.48584964643556816  1.0000
  O   O30       1.0  0.1975128566554076  0.5979886660446853  0.0141485601607556  1.0000
  O   O31       1.0  0.3024915397418937  0.09798933598739272  0.5141452671560955  1.0000
  O   O32       1.0  0.8024873804155989  0.4020096107181388  0.9858519724530197  1.0000
