data_image0
_chemical_formula_structural       Cd2H32C48I4N16O4
_chemical_formula_sum              "Cd2 H32 C48 I4 N16 O4"
_cell_length_a       4.146751973754926
_cell_length_b       13.490650016154115
_cell_length_c       22.426550808856216
_cell_angle_alpha    90.00053107723048
_cell_angle_beta     88.69558959763121
_cell_angle_gamma    89.9998651056968

_space_group_name_H-M_alt    "P 1"
_space_group_IT_number       1

loop_
  _space_group_symop_operation_xyz
  'x, y, z'

loop_
  _atom_site_type_symbol
  _atom_site_label
  _atom_site_symmetry_multiplicity
  _atom_site_fract_x
  _atom_site_fract_y
  _atom_site_fract_z
  _atom_site_occupancy
  Cd  Cd1       1.0  0.9999932951189973  0.499999364983573  0.5000017253508063  1.0000
  Cd  Cd2       1.0  1.4468320287600001e-05  1.4825024549999995e-06  6.408498600000001e-09  1.0000
  H   H1        1.0  0.7608242528976209  0.6417731561182053  0.39684289577850507  1.0000
  H   H2        1.0  0.7608528356501126  0.8582269143238364  0.8968405454428566  1.0000
  H   H3        1.0  0.23917703507429883  0.35822078948079644  0.603159050763189  1.0000
  H   H4        1.0  0.23919487546753257  0.14177740878000122  0.1031569612649008  1.0000
  H   H5        1.0  0.7852732539629413  0.8140121228569938  0.3559232303715163  1.0000
  H   H6        1.0  0.7852812958819086  0.6859924869426167  0.855920795388599  1.0000
  H   H7        1.0  0.21472375736832564  0.1859825639669594  0.6440746999083447  1.0000
  H   H8        1.0  0.21474971755704086  0.3140148011741316  0.1440753658127107  1.0000
  H   H9        1.0  0.36449096550365573  0.8915857065808128  0.5078849693349313  1.0000
  H   H10       1.0  0.364475537730435  0.6084146293674733  0.0078808935054582  1.0000
  H   H11       1.0  0.6354981441330948  0.10841713407945974  0.4921178639234824  1.0000
  H   H12       1.0  0.6355141787339066  0.3915859874958515  0.9921174796032304  1.0000
  H   H13       1.0  0.29430096592729166  0.7172838078224331  0.5435688220567203  1.0000
  H   H14       1.0  0.29433512162231784  0.7827156514520865  0.043563963247670805  1.0000
  H   H15       1.0  0.705676086779569  0.2827168090802914  0.4564340058584976  1.0000
  H   H16       1.0  0.7056762366598549  0.2172820003894813  0.9564348654735471  1.0000
  H   H17       1.0  0.4807627244778488  0.145954128287201  0.18003116215651724  1.0000
  H   H18       1.0  0.4807690897743697  0.3540391274388525  0.6800327928491542  1.0000
  H   H19       1.0  0.5192146922874626  0.8540553836443082  0.8199689896975855  1.0000
  H   H20       1.0  0.5192566154780353  0.6459563006414513  0.3199669342988543  1.0000
  H   H21       1.0  0.7132670969148477  0.035090423061824104  0.2553907324584729  1.0000
  H   H22       1.0  0.7132657056072774  0.4649052866994269  0.7553907523583092  1.0000
  H   H23       1.0  0.2866936828868275  0.9649131588296174  0.7446076278498667  1.0000
  H   H24       1.0  0.2867431199289215  0.5350908826417751  0.24460896732005472  1.0000
  H   H25       1.0  0.06260375947758233  0.29723293457362127  0.34525239823487663  1.0000
  H   H26       1.0  0.06262342996021887  0.2027646842219468  0.8452522928523011  1.0000
  H   H27       1.0  0.9373927057080208  0.7027639760438191  0.654749546180355  1.0000
  H   H28       1.0  0.9373777973049188  0.7972359326676468  0.1547500997224631  1.0000
  H   H29       1.0  0.806335076288093  0.39762674311524643  0.26617852569550143  1.0000
  H   H30       1.0  0.8063529011882978  0.10237053987049193  0.7661791935994772  1.0000
  H   H31       1.0  0.19366361822002887  0.6023753562904803  0.7338247578447367  1.0000
  H   H32       1.0  0.1936579109509751  0.8976285945104365  0.23382364925503654  1.0000
  C   C1        1.0  0.889784461661165  0.7003508886942742  0.41989356825195767  1.0000
  C   C2        1.0  0.8897944930597534  0.7996538796432587  0.9198886504181377  1.0000
  C   C3        1.0  0.11021459696063118  0.2996452806577068  0.5801070391855491  1.0000
  C   C4        1.0  0.11023676310416163  0.20035414971378873  0.0801057267278651  1.0000
  C   C5        1.0  0.9066721873142499  0.7960013983235684  0.3971697141183768  1.0000
  C   C6        1.0  0.9066609253291987  0.704003747965558  0.8971664796952298  1.0000
  C   C7        1.0  0.09333139067592103  0.20399402978962655  0.6028331255235599  1.0000
  C   C8        1.0  0.09337249949738441  0.2960035401502239  0.10282968257346432  1.0000
  C   C9        1.0  0.08183311874653747  0.8667702474398596  0.4287239565847259  1.0000
  C   C10       1.0  0.08183908159070091  0.6332367928225298  0.9287216703308447  1.0000
  C   C11       1.0  0.9181685332838395  0.1332325931879268  0.5712753138958533  1.0000
  C   C12       1.0  0.9181703507261505  0.36676975404188267  0.07127358923317931  1.0000
  C   C13       1.0  0.22472755057892604  0.8387749155444411  0.48224293810509533  1.0000
  C   C14       1.0  0.22472594937677576  0.6612261613866226  0.9822416978483517  1.0000
  C   C15       1.0  0.7752599972448311  0.1612205125271373  0.5177536498642468  1.0000
  C   C16       1.0  0.7752829368247875  0.3387744554758854  0.017757575828149203  1.0000
  C   C17       1.0  0.18721116223915155  0.7418160785188379  0.5020806915878779  1.0000
  C   C18       1.0  0.1872425431422684  0.7581865352770193  0.0020797081063577  1.0000
  C   C19       1.0  0.8127663152274212  0.25818824463032536  0.49791901423731844  1.0000
  C   C20       1.0  0.8127832227727368  0.24181408157871692  0.9979195730418697  1.0000
  C   C21       1.0  0.1181829107692138  0.9676688392695143  0.407410639504839  1.0000
  C   C22       1.0  0.11817244210432418  0.5323371023967168  0.9074100093254885  1.0000
  C   C23       1.0  0.8818043336283311  0.03233103634411091  0.5925881785487235  1.0000
  C   C24       1.0  0.8818362013750374  0.4676620319713578  0.0925910484042376  1.0000
  C   C25       1.0  0.04214903518536771  0.09692464509538472  0.35353557951515313  1.0000
  C   C26       1.0  0.04215805344900052  0.40307163518017575  0.8535330264294672  1.0000
  C   C27       1.0  0.9578236802209972  0.9030707830027396  0.6464636781359446  1.0000
  C   C28       1.0  0.95784836069128  0.596926757924365  0.1464666921877509  1.0000
  C   C29       1.0  0.6083200548572663  0.1780380665810526  0.2173995080546263  1.0000
  C   C30       1.0  0.6083360619650121  0.32195788474742676  0.717402746937843  1.0000
  C   C31       1.0  0.39166477813607503  0.821966256558298  0.7825993089440361  1.0000
  C   C32       1.0  0.3916798763729902  0.6780375433436562  0.282597867969301  1.0000
  C   C33       1.0  0.7398342822056918  0.11516812786135942  0.25957677086829284  1.0000
  C   C34       1.0  0.7398384315544106  0.3848261423029058  0.7595754512522747  1.0000
  C   C35       1.0  0.26013367107420043  0.8848361952847628  0.7404220386586432  1.0000
  C   C36       1.0  0.26017286604859186  0.615170768287996  0.24042382348121547  1.0000
  C   C37       1.0  0.9060863547175941  0.15761115442764856  0.3070178269128903  1.0000
  C   C38       1.0  0.906097568922725  0.34238741755740415  0.8070198403180557  1.0000
  C   C39       1.0  0.09389383756007422  0.8423894624326282  0.692979649897552  1.0000
  C   C40       1.0  0.0939111959343037  0.6576080105331245  0.19298032537257376  1.0000
  C   C41       1.0  0.9345940589528469  0.2610924605770323  0.3093300788279691  1.0000
  C   C42       1.0  0.9346088801653352  0.2389068651534458  0.8093283901784646  1.0000
  C   C43       1.0  0.0653904099709948  0.7389059325500398  0.6906714142401357  1.0000
  C   C44       1.0  0.0653972912472227  0.7610915279649219  0.1906731124961425  1.0000
  C   C45       1.0  0.7914853787210632  0.3168070600237272  0.264829587524396  1.0000
  C   C46       1.0  0.7915167664874972  0.18319317924816403  0.7648329456966894  1.0000
  C   C47       1.0  0.2085064457157415  0.683195039364172  0.7351710167275841  1.0000
  C   C48       1.0  0.2085036912133589  0.816802990112393  0.23516990141905586  1.0000
  I   I1        1.0  0.4850086120443465  0.458862205708762  0.4053123852422758  1.0000
  I   I2        1.0  0.48503201926789064  0.04113896059887171  0.9053104813971588  1.0000
  I   I3        1.0  0.5149755534781236  0.5411339636732109  0.5946913378913194  1.0000
  I   I4        1.0  0.514984161778507  0.9588616562572697  0.09468834946716952  1.0000
  N   N1        1.0  0.02571013323024121  0.673000838058577  0.4711929156029555  1.0000
  N   N2        1.0  0.025737144055604226  0.8269935584733545  0.9711859287042515  1.0000
  N   N3        1.0  0.9742858465054383  0.32699459007825027  0.5288125969229043  1.0000
  N   N4        1.0  0.9742983887765677  0.17300631711747633  0.028812464682765406  1.0000
  N   N5        1.0  0.29035486050213427  0.03947497337569671  0.4300285040856268  1.0000
  N   N6        1.0  0.29035621663902594  0.46052450694331537  0.9300262703734603  1.0000
  N   N7        1.0  0.7096317770760977  0.960524902272489  0.5699747741114153  1.0000
  N   N8        1.0  0.7096380798645826  0.5394783336942837  0.0699738889336459  1.0000
  N   N9        1.0  0.24148508903800087  0.1227531453165653  0.3953925241160974  1.0000
  N   N10       1.0  0.24150116977182998  0.3772436178170366  0.8953925052989364  1.0000
  N   N11       1.0  0.758480210154147  0.8772437653030778  0.6046080683800313  1.0000
  N   N12       1.0  0.758500239539103  0.6227569990621901  0.10460854923278622  1.0000
  N   N13       1.0  0.6288815037483033  0.27739281232521057  0.2194655845873684  1.0000
  N   N14       1.0  0.6288913808997875  0.22260167163317132  0.7194655863241551  1.0000
  N   N15       1.0  0.3711056192660536  0.7226122520742138  0.7805341255094621  1.0000
  N   N16       1.0  0.3711292588385788  0.7773967214793914  0.28053592275479394  1.0000
  O   O1        1.0  0.9566025897371798  0.9987259272129447  0.35806654234121293  1.0000
  O   O2        1.0  0.9566140549487726  0.5012696819478393  0.8580657473609535  1.0000
  O   O3        1.0  0.04337024703028191  0.0012702421323851  0.6419318232832654  1.0000
  O   O4        1.0  0.04339953265591842  0.4987331586820218  0.1419344204852706  1.0000
