data_image0
_chemical_formula_structural       Ni3H30C36S6N12
_chemical_formula_sum              "Ni3 H30 C36 S6 N12"
_cell_length_a       8.439951029936207
_cell_length_b       8.42970003491314
_cell_length_c       15.278134451532308
_cell_angle_alpha    93.21699874552853
_cell_angle_beta     96.17127290028468
_cell_angle_gamma    114.62306108098859

_space_group_name_H-M_alt    "P 1"
_space_group_IT_number       1

loop_
  _space_group_symop_operation_xyz
  'x, y, z'

loop_
  _atom_site_type_symbol
  _atom_site_label
  _atom_site_symmetry_multiplicity
  _atom_site_fract_x
  _atom_site_fract_y
  _atom_site_fract_z
  _atom_site_occupancy
  Ni  Ni1       1.0  5.263473092e-06  3.9389858628e-06  4.360218511600001e-06  1.0000
  Ni  Ni2       1.0  0.32667195714270747  0.3217946858238747  0.33619984547028287  1.0000
  Ni  Ni3       1.0  0.6733322236079857  0.6781987985450045  0.6638060324838551  1.0000
  H   H1        1.0  0.3733184370923013  0.24641311281223466  0.08379078087915563  1.0000
  H   H2        1.0  0.6266818931364425  0.7535961428938334  0.9162054986696546  1.0000
  H   H3        1.0  0.6787905110670139  0.35861967774760467  0.04450404045573461  1.0000
  H   H4        1.0  0.32120326432911367  0.641390926060353  0.9554892615407484  1.0000
  H   H5        1.0  0.724088289088975  0.24510228917368684  0.8988253374474766  1.0000
  H   H6        1.0  0.275909568502982  0.7549122366126538  0.10116832530718511  1.0000
  H   H7        1.0  0.46060461626132815  0.021024118615230198  0.7979437874794828  1.0000
  H   H8        1.0  0.5393952036469827  0.9789811590800497  0.20204776492559526  1.0000
  H   H9        1.0  0.1635013106318439  0.923893696119613  0.8470678947527334  1.0000
  H   H10       1.0  0.8364974089161238  0.07610637180999898  0.15293129542270387  1.0000
  H   H11       1.0  0.9539083513516076  0.039284447912976396  0.28560031166676236  1.0000
  H   H12       1.0  0.04609232266050607  0.9607064019009357  0.714401350293713  1.0000
  H   H13       1.0  0.6721752126921177  0.9123820466565534  0.3503582929534801  1.0000
  H   H14       1.0  0.3278259278167397  0.0876153903938146  0.6496442413073711  1.0000
  H   H15       1.0  0.6666246039787395  0.03495442831912499  0.5033282039117353  1.0000
  H   H16       1.0  0.3333770591897291  0.9650469396378937  0.4966718569955689  1.0000
  H   H17       1.0  0.9430264775687577  0.2762294566947929  0.5848266195545835  1.0000
  H   H18       1.0  0.05696630306230331  0.7237706503810272  0.4151715564483852  1.0000
  H   H19       1.0  0.21366710548239348  0.386765094767064  0.5108749902899421  1.0000
  H   H20       1.0  0.7863328975728835  0.6132297160501494  0.4891273993539401  1.0000
  H   H21       1.0  0.6606740708195034  0.2730766930363017  0.35525883885969733  1.0000
  H   H22       1.0  0.3393282127516527  0.7269233488362585  0.6447405670648153  1.0000
  H   H23       1.0  0.9533949675703255  0.38917583308569437  0.3006334607108628  1.0000
  H   H24       1.0  0.046602568456883306  0.6108242264008151  0.6993630391855633  1.0000
  H   H25       1.0  0.013412327452279278  0.6100424970581669  0.1908433981198456  1.0000
  H   H26       1.0  0.9865793741315586  0.38995231889028753  0.8091499784309024  1.0000
  H   H27       1.0  0.49449146799466354  0.5821165467898267  0.20439399556217816  1.0000
  H   H28       1.0  0.5055014092577252  0.4178783075770909  0.79560665340221  1.0000
  H   H29       1.0  0.7781459385638457  0.7067805903734268  0.14112604126811593  1.0000
  H   H30       1.0  0.22183935199763025  0.2932076988957561  0.858868721763109  1.0000
  C   C1        1.0  0.17012880084988063  0.9849625400552638  0.18971845513213742  1.0000
  C   C2        1.0  0.8298757801389911  0.015040226419642994  0.8102975320922428  1.0000
  C   C3        1.0  0.14040600085486685  0.33496695648239677  0.14931808549084022  1.0000
  C   C4        1.0  0.8595817738527672  0.6650463642125646  0.8506808209404042  1.0000
  C   C5        1.0  0.5317109391225401  0.33186228231981824  0.5213760821601242  1.0000
  C   C6        1.0  0.4682958603186833  0.6681180486232278  0.47863546743963076  1.0000
  C   C7        1.0  0.39818968632104657  0.20083007940583994  0.020847070595046105  1.0000
  C   C8        1.0  0.6018112643103849  0.79917785021577  0.9791485539709727  1.0000
  C   C9        1.0  0.5678449720584524  0.2626837099812889  0.9987015578683656  1.0000
  C   C10       1.0  0.4321523651173749  0.7373268763340092  0.0012932690585216917  1.0000
  C   C11       1.0  0.5925312991686695  0.19960840032086938  0.9174572423625451  1.0000
  C   C12       1.0  0.40746904003402307  0.8004008211276383  0.08253380046097192  1.0000
  C   C13       1.0  0.446246466850539  0.07573664221988707  0.8613730251392157  1.0000
  C   C14       1.0  0.5537486448505433  0.924266060992444  0.1386220944437753  1.0000
  C   C15       1.0  0.2811490784124188  0.020866982644385194  0.8884486335980811  1.0000
  C   C16       1.0  0.7188590474543092  0.9791382727908626  0.11154931353748054  1.0000
  C   C17       1.0  0.9452097523829864  0.08876414495962587  0.35143126612736353  1.0000
  C   C18       1.0  0.054792108515123034  0.9112267004507968  0.6485711223401368  1.0000
  C   C19       1.0  0.7890945407009582  0.018981666625663297  0.3876791589990418  1.0000
  C   C20       1.0  0.21090851269185154  0.9810091529703014  0.6123206830221761  1.0000
  C   C21       1.0  0.7861969061160394  0.08653496897204599  0.4726693048991352  1.0000
  C   C22       1.0  0.2137977267491209  0.9134611941079598  0.5273321428807591  1.0000
  C   C23       1.0  0.939976815823357  0.2206021117614227  0.5182767133621483  1.0000
  C   C24       1.0  0.06002423142940226  0.7794005651512778  0.4817213841652973  1.0000
  C   C25       1.0  0.09067245547885253  0.28291891037101646  0.4772657642903442  1.0000
  C   C26       1.0  0.9093228000324841  0.7170759180601465  0.5227337193254442  1.0000
  C   C27       1.0  0.6923827621462948  0.3697002302385498  0.30793387851139203  1.0000
  C   C28       1.0  0.3076165261284558  0.6303011508076395  0.6920653839725261  1.0000
  C   C29       1.0  0.8546896976037813  0.4343309203546823  0.2772438405387661  1.0000
  C   C30       1.0  0.14530313694665853  0.5656665389557175  0.7227522989916083  1.0000
  C   C31       1.0  0.8879601616646012  0.5573298624619198  0.2163233455562548  1.0000
  C   C32       1.0  0.11203091615131909  0.4426662924175773  0.7836726497492708  1.0000
  C   C33       1.0  0.5992279872616919  0.5420642680523854  0.22350290774954837  1.0000
  C   C34       1.0  0.40076540816333045  0.45793453434995257  0.7764978862239432  1.0000
  C   C35       1.0  0.7573138737591733  0.6114805644439301  0.18876686425851832  1.0000
  C   C36       1.0  0.2426778188507157  0.38851428576208497  0.8112317490175232  1.0000
  S   S1        1.0  0.2808915293977989  0.0162413261177079  0.28815295038064204  1.0000
  S   S2        1.0  0.7191175033703772  0.9837468579529512  0.7118537244283802  1.0000
  S   S3        1.0  0.059015502436729206  0.3136424943635348  0.045506445786863005  1.0000
  S   S4        1.0  0.940994993836739  0.6863627651113262  0.9544949181347209  1.0000
  S   S5        1.0  0.6354292237886839  0.37060616482511927  0.6219526720369404  1.0000
  S   S6        1.0  0.3645767080878102  0.6293886453856246  0.37805662309535404  1.0000
  N   N1        1.0  0.08658261372738704  0.960448006845162  0.11883178058175761  1.0000
  N   N2        1.0  0.9134236925114935  0.03955862618217759  0.8811732955268426  1.0000
  N   N3        1.0  0.1981477929714401  0.34623694311912345  0.22476705584102066  1.0000
  N   N4        1.0  0.8018569553842951  0.6537578586485252  0.7752395490122695  1.0000
  N   N5        1.0  0.45799881087866356  0.30793509566628774  0.4481706983564707  1.0000
  N   N6        1.0  0.542010587277943  0.6920649454785135  0.5518369941541437  1.0000
  N   N7        1.0  0.2565374415609298  0.08265948713519577  0.9665502435104045  1.0000
  N   N8        1.0  0.7434636056918293  0.9173431897775043  0.033447854017040896  1.0000
  N   N9        1.0  0.09364061141081949  0.21918486959540925  0.39496336579007624  1.0000
  N   N10       1.0  0.9063630084652914  0.7808072716815246  0.6050378577209514  1.0000
  N   N11       1.0  0.5663794628478414  0.4226960054671878  0.28204133213772314  1.0000
  N   N12       1.0  0.4336174932351397  0.5773027837246898  0.7179616413568298  1.0000
