data_image0
_chemical_formula_structural       Cu4H32C40S8N8Cl4
_chemical_formula_sum              "Cu4 H32 C40 S8 N8 Cl4"
_cell_length_a       7.843655522348816
_cell_length_b       10.145960519148547
_cell_length_c       14.784383234289871
_cell_angle_alpha    90.0002770555124
_cell_angle_beta     89.99926932474895
_cell_angle_gamma    111.18620791308062

_space_group_name_H-M_alt    "P 1"
_space_group_IT_number       1

loop_
  _space_group_symop_operation_xyz
  'x, y, z'

loop_
  _atom_site_type_symbol
  _atom_site_label
  _atom_site_symmetry_multiplicity
  _atom_site_fract_x
  _atom_site_fract_y
  _atom_site_fract_z
  _atom_site_occupancy
  Cu  Cu1       1.0  0.5269210369153116  0.6456996164151434  0.5410235121934832  1.0000
  Cu  Cu2       1.0  0.026927481268415907  0.14571234930885174  0.9589701487682659  1.0000
  Cu  Cu3       1.0  0.4730748796128454  0.35428784203708835  0.4589758298758894  1.0000
  Cu  Cu4       1.0  0.9730865486293468  0.8543046621445213  0.0410312224557359  1.0000
  H   H1        1.0  0.9699314147008097  0.9853411208174166  0.3200271939172338  1.0000
  H   H2        1.0  0.46994274433787814  0.48532396430315566  0.17998031325097225  1.0000
  H   H3        1.0  0.030069630654210804  0.014662220180973398  0.6799741773289012  1.0000
  H   H4        1.0  0.5300699241295065  0.5146664967823468  0.8200284982171551  1.0000
  H   H5        1.0  0.9958369755527984  0.20343305621505442  0.4070656285123988  1.0000
  H   H6        1.0  0.4958500192959647  0.7034116483366758  0.09295023768517299  1.0000
  H   H7        1.0  0.004155684444157245  0.7965661270293367  0.5929377719239282  1.0000
  H   H8        1.0  0.5041745929698892  0.2965850563937664  0.9070653376460597  1.0000
  H   H9        1.0  0.7850299645189055  0.1817264186424907  0.5385902362812374  1.0000
  H   H10       1.0  0.2850578224065219  0.6817272703844497  0.9614301737448085  1.0000
  H   H11       1.0  0.21494997577219266  0.8182622790691454  0.4614118114027973  1.0000
  H   H12       1.0  0.7149800578185294  0.31829160260259926  0.0385874307455438  1.0000
  H   H13       1.0  0.5846769821828203  0.9408011301012775  0.5893396481174094  1.0000
  H   H14       1.0  0.0846918614822202  0.44079994149423396  0.9106647362542046  1.0000
  H   H15       1.0  0.41531386137558723  0.059186384440224116  0.41065766480135574  1.0000
  H   H16       1.0  0.9153305351150963  0.5592159148355975  0.08933798771785458  1.0000
  H   H17       1.0  0.06945304224880998  0.6770021196039977  0.35011152813960666  1.0000
  H   H18       1.0  0.5694433524201088  0.1769915361958283  0.14987945647244058  1.0000
  H   H19       1.0  0.9305485142556549  0.32300227835812473  0.6498790208762272  1.0000
  H   H20       1.0  0.43053810241612206  0.8229950195352274  0.850114474530116  1.0000
  H   H21       1.0  0.40928082396597193  0.7547453820765498  0.33912321668653067  1.0000
  H   H22       1.0  0.9092728845384743  0.2547284068481161  0.16086771276738424  1.0000
  H   H23       1.0  0.5907243096374017  0.2452664146540471  0.6608727434443509  1.0000
  H   H24       1.0  0.09070169939799648  0.7452518491504065  0.8391275710272124  1.0000
  H   H25       1.0  0.567891684838024  0.904444329433396  0.20369014598168178  1.0000
  H   H26       1.0  0.06788256259488178  0.4044327463721871  0.2963049832061841  1.0000
  H   H27       1.0  0.4321162872738783  0.0955812499329625  0.7963098724985681  1.0000
  H   H28       1.0  0.9321080161818999  0.5955515832457862  0.7036889477612644  1.0000
  H   H29       1.0  0.372595997822998  0.9428473448760856  0.08055419324544738  1.0000
  H   H30       1.0  0.8725888945320505  0.44283681221326543  0.4194416691248719  1.0000
  H   H31       1.0  0.627404629635649  0.05718150354723409  0.9194444724867168  1.0000
  H   H32       1.0  0.12740423937626838  0.5571528022379013  0.5805509090637171  1.0000
  C   C1        1.0  0.7634160437578857  0.8492717663405642  0.4099326821383612  1.0000
  C   C2        1.0  0.26342341388364343  0.34926312807651533  0.09007444529211737  1.0000
  C   C3        1.0  0.2365801748294487  0.15072950279122208  0.5900666599527965  1.0000
  C   C4        1.0  0.7365847298752257  0.6507390718219171  0.9099323370428252  1.0000
  C   C5        1.0  0.8855004700634698  0.9795674072348394  0.37937049861174893  1.0000
  C   C6        1.0  0.3855075821543892  0.47954390418238546  0.12062945450519887  1.0000
  C   C7        1.0  0.11449044789217312  0.020441358822438395  0.6206335782358108  1.0000
  C   C8        1.0  0.6145096669496655  0.5204507567239247  0.8793752986177379  1.0000
  C   C9        1.0  0.8977492990283624  0.10069458983688409  0.4270328114725003  1.0000
  C   C10       1.0  0.39776765424328187  0.6006805556721204  0.07297865615677779  1.0000
  C   C11       1.0  0.10224031346452017  0.8993035644853294  0.5729692361938418  1.0000
  C   C12       1.0  0.602254686417986  0.3993193620241513  0.9270308316830549  1.0000
  C   C13       1.0  0.7844327371073522  0.08877954337954462  0.5018384670443296  1.0000
  C   C14       1.0  0.28444805831063746  0.5887773566996941  0.9981721704206661  1.0000
  C   C15       1.0  0.21555763263441446  0.9112175399529433  0.49816155144945634  1.0000
  C   C16       1.0  0.7155753229922935  0.41122998780903686  0.0018393465960428999  1.0000
  C   C17       1.0  0.6713603804114924  0.9552474583318186  0.5297305289670218  1.0000
  C   C18       1.0  0.17136678866424399  0.45525275663212733  0.9702733059781462  1.0000
  C   C19       1.0  0.328628702447091  0.04474432614502181  0.4702708423012253  1.0000
  C   C20       1.0  0.8286505348843961  0.5447631557888427  0.0297341527372268  1.0000
  C   C21       1.0  0.047222206679954574  0.7757099764419237  0.22383122099996902  1.0000
  C   C22       1.0  0.5472072792732379  0.2756973628802228  0.2761643014339724  1.0000
  C   C23       1.0  0.9527872427153172  0.22430283518745142  0.7761627099495455  1.0000
  C   C24       1.0  0.4527716204314487  0.7242839080176467  0.7238309823474367  1.0000
  C   C25       1.0  0.14297101342881996  0.7392300640151461  0.2928692198057873  1.0000
  C   C26       1.0  0.6429640385289093  0.23921734220512292  0.20712619871442675  1.0000
  C   C27       1.0  0.8570323222603238  0.26077537689327823  0.7071287694889674  1.0000
  C   C28       1.0  0.35700371165116  0.760767239820069  0.7928785545623637  1.0000
  C   C29       1.0  0.332512450101021  0.7845069104178395  0.2865525175506463  1.0000
  C   C30       1.0  0.832498721735391  0.2844910772862974  0.21344106838975554  1.0000
  C   C31       1.0  0.6675025833187221  0.21550690208823653  0.7134407369918987  1.0000
  C   C32       1.0  0.16748905569990308  0.7154900954545554  0.7865548917502989  1.0000
  C   C33       1.0  0.4196636774503446  0.864357445107487  0.2115678212154606  1.0000
  C   C34       1.0  0.9196555623004699  0.36434369721845883  0.2884274573999548  1.0000
  C   C35       1.0  0.5803427429651721  0.13565965048044157  0.7884328736454973  1.0000
  C   C36       1.0  0.08033145794908586  0.6356385465106342  0.711565120797516  1.0000
  C   C37       1.0  0.3129602411721206  0.8877841541171562  0.14287209160397643  1.0000
  C   C38       1.0  0.8129454497673481  0.3877705002645655  0.357121970465009  1.0000
  C   C39       1.0  0.6870487343828346  0.11223822630377359  0.8571265740887454  1.0000
  C   C40       1.0  0.1870560693648571  0.6122232719437762  0.6428800771530732  1.0000
  S   S1        1.0  0.728484104484366  0.6845071344908575  0.3571937727818621  1.0000
  S   S2        1.0  0.22847246971021215  0.1844934087938697  0.14280831597405094  1.0000
  S   S3        1.0  0.2715176981669033  0.31549513551669156  0.6428015109553582  1.0000
  S   S4        1.0  0.7715138490528589  0.8155058445626225  0.8571944080948483  1.0000
  S   S5        1.0  0.808539376371364  0.7407631389605882  0.22474301907143968  1.0000
  S   S6        1.0  0.308527697911707  0.24075051534923378  0.27525599854216404  1.0000
  S   S7        1.0  0.19146447035672048  0.2592433589141762  0.7752536174445124  1.0000
  S   S8        1.0  0.6914611387290392  0.7592433970838643  0.7247467255092344  1.0000
  N   N1        1.0  0.6614342511226354  0.8357660478706421  0.4857183842646933  1.0000
  N   N2        1.0  0.1614307261548547  0.3357628208456945  0.014286695631874097  1.0000
  N   N3        1.0  0.33855863650470047  0.16422569453827413  0.5142809578221941  1.0000
  N   N4        1.0  0.8385710949970572  0.6642447620431255  0.985718733954954  1.0000
  N   N5        1.0  0.12857705909740957  0.8436138404628012  0.1478427630268087  1.0000
  N   N6        1.0  0.6285667180841585  0.3436065116423919  0.35215174697556506  1.0000
  N   N7        1.0  0.8714303647927225  0.15640005617895272  0.852153873489051  1.0000
  N   N8        1.0  0.3714101561627531  0.6563758442667336  0.6478421840358306  1.0000
  Cl  Cl1       1.0  0.7116120512186728  0.5088816245671737  0.5563888640427875  1.0000
  Cl  Cl2       1.0  0.2116142735482711  0.008890149152271898  0.9436084832846416  1.0000
  Cl  Cl3       1.0  0.2883879350177238  0.49110897673691767  0.4435983030086915  1.0000
  Cl  Cl4       1.0  0.7883852388241267  0.9911100209439284  0.0563854476782168  1.0000
