data_image0
_chemical_formula_structural       Ag8H48W4C32S24N16
_chemical_formula_sum              "Ag8 H48 W4 C32 S24 N16"
_cell_length_a       7.842974337527994
_cell_length_b       13.03631195102603
_cell_length_c       17.128467153219848
_cell_angle_alpha    90.00021649895085
_cell_angle_beta     93.89980950826514
_cell_angle_gamma    90.00005838188926

_space_group_name_H-M_alt    "P 1"
_space_group_IT_number       1

loop_
  _space_group_symop_operation_xyz
  'x, y, z'

loop_
  _atom_site_type_symbol
  _atom_site_label
  _atom_site_symmetry_multiplicity
  _atom_site_fract_x
  _atom_site_fract_y
  _atom_site_fract_z
  _atom_site_occupancy
  Ag  Ag1       1.0  0.20445096700274953  0.646235563298397  0.23467796123445336  1.0000
  Ag  Ag2       1.0  0.2955498323131849  0.14623889733205434  0.7653212865637045  1.0000
  Ag  Ag3       1.0  0.7955481658047319  0.35376553746885253  0.7653204496260173  1.0000
  Ag  Ag4       1.0  0.7044531477292608  0.8537629705276686  0.23467840260583733  1.0000
  Ag  Ag5       1.0  0.4361134242818636  0.2495890516584041  0.2782117969894102  1.0000
  Ag  Ag6       1.0  0.06389270539168021  0.7495849732479202  0.7217879027492415  1.0000
  Ag  Ag7       1.0  0.5638921050324727  0.7504128162008429  0.7217873816650595  1.0000
  Ag  Ag8       1.0  0.936108996680055  0.25041459334696015  0.2782117496629369  1.0000
  H   H1        1.0  0.7853086733876965  0.5068582722158298  0.2907502108259692  1.0000
  H   H2        1.0  0.7146792204024734  0.006861278628399203  0.7092554266766911  1.0000
  H   H3        1.0  0.21468534754830418  0.49314436272570117  0.709248053020879  1.0000
  H   H4        1.0  0.28532253498980964  0.9931413563305328  0.29074889792415354  1.0000
  H   H5        1.0  0.8593107328907055  0.438853203444836  0.42745268107032797  1.0000
  H   H6        1.0  0.6406755315413977  0.9388553377216058  0.5725553255328891  1.0000
  H   H7        1.0  0.14068455268099467  0.5611463631418161  0.5725444514799279  1.0000
  H   H8        1.0  0.3593224099343786  0.06114192762338891  0.4274506408671641  1.0000
  H   H9        1.0  0.6872518660308631  0.5663633848519822  0.5265298229076549  1.0000
  H   H10       1.0  0.8127310416700625  0.06635531282240241  0.47347584312747415  1.0000
  H   H11       1.0  0.3127460021360449  0.4336361817414343  0.4734697192426083  1.0000
  H   H12       1.0  0.1872591786755038  0.933638884155613  0.5265252305600967  1.0000
  H   H13       1.0  0.5745369238235655  0.7714197046084909  0.483353824727466  1.0000
  H   H14       1.0  0.9254629776455092  0.2714142173753872  0.5166482519299365  1.0000
  H   H15       1.0  0.4254673541795243  0.22858062907982202  0.5166476532628366  1.0000
  H   H16       1.0  0.0745361551595352  0.7285845821275104  0.4833501589271378  1.0000
  H   H17       1.0  0.39634314537094184  0.6859361025243305  0.4776532457600596  1.0000
  H   H18       1.0  0.10364883873345582  0.1859258416199907  0.5223499500343749  1.0000
  H   H19       1.0  0.6036585766980309  0.31406653242736143  0.5223481587256984  1.0000
  H   H20       1.0  0.8963490360940584  0.8140698895342809  0.47765017613324545  1.0000
  H   H21       1.0  0.4420598892755764  0.7618906740833395  0.39410067934250054  1.0000
  H   H22       1.0  0.057938618584600504  0.2618830996802686  0.6059005882310942  1.0000
  H   H23       1.0  0.5579405614913995  0.2381134950455532  0.6059012724145632  1.0000
  H   H24       1.0  0.942057971611604  0.7381141656483124  0.39409891716180573  1.0000
  H   H25       1.0  0.1491890584786191  0.855135667281985  0.1461949936063931  1.0000
  H   H26       1.0  0.350813473756432  0.35513947352073677  0.853806075334191  1.0000
  H   H27       1.0  0.8508113456316625  0.144864666396181  0.853802869983902  1.0000
  H   H28       1.0  0.6491869570141233  0.6448623943394626  0.1461941243504299  1.0000
  H   H29       1.0  0.21295826277935964  0.0124861143722725  0.0626751192940844  1.0000
  H   H30       1.0  0.2870384798633482  0.5124893777638206  0.9373288798330038  1.0000
  H   H31       1.0  0.7870447105976128  0.9875149863978836  0.9373239858513147  1.0000
  H   H32       1.0  0.71295557439516  0.4875124900968332  0.06267230412779412  1.0000
  H   H33       1.0  0.3663223267318899  0.933663727167094  0.9337468328275522  1.0000
  H   H34       1.0  0.1336765575970773  0.4336619665635695  0.0662561096022216  1.0000
  H   H35       1.0  0.6336844872145735  0.0663373736059683  0.0662529666027751  1.0000
  H   H36       1.0  0.8663213238959105  0.5663345316802763  0.933744600589556  1.0000
  H   H37       1.0  0.45568646557237014  0.6562648348962484  0.9692253382476821  1.0000
  H   H38       1.0  0.04431177234572201  0.15626361039607423  0.030771529534241903  1.0000
  H   H39       1.0  0.5443113826013644  0.3437354987809444  0.0307724518346717  1.0000
  H   H40       1.0  0.9556924789946567  0.8437328878458601  0.9692276123583314  1.0000
  H   H41       1.0  0.48343716083667937  0.7613043583217166  0.9035929258526423  1.0000
  H   H42       1.0  0.0165574852267554  0.261302674407169  0.09640589364578743  1.0000
  H   H43       1.0  0.5165606940009012  0.23869520826880833  0.09640544825158771  1.0000
  H   H44       1.0  0.9834467661128203  0.7386930567466476  0.9035932482456559  1.0000
  H   H45       1.0  0.2900511353089001  0.6897157821749574  0.8964676000183047  1.0000
  H   H46       1.0  0.20994592867939593  0.1897134862466174  0.1035322498172846  1.0000
  H   H47       1.0  0.7099480108279084  0.3102853185951916  0.10353197888819922  1.0000
  H   H48       1.0  0.7900570513573727  0.8102830119962761  0.8964674393443418  1.0000
  W   W1        1.0  0.18740531870675173  0.4150897785266849  0.28155480424452856  1.0000
  W   W2        1.0  0.31259475767291184  0.9150889059924909  0.7184440319785779  1.0000
  W   W3        1.0  0.8125976613340669  0.584910555156803  0.7184448849227536  1.0000
  W   W4        1.0  0.6874069377349773  0.08491142768905756  0.28155503641171725  1.0000
  C   C1        1.0  0.6328701184071052  0.6212986878860819  0.33953756255348827  1.0000
  C   C2        1.0  0.8671205732458349  0.1212977118123035  0.6604684860978055  1.0000
  C   C3        1.0  0.367125207156633  0.37870471414985474  0.6604630741405304  1.0000
  C   C4        1.0  0.13287988418094437  0.8787018547893268  0.33953404967548556  1.0000
  C   C5        1.0  0.7754612933134838  0.5035846448890098  0.4151254992094309  1.0000
  C   C6        1.0  0.7245189390678705  0.0035801379869582  0.5848810761457983  1.0000
  C   C7        1.0  0.22453654819558724  0.4964156887867404  0.584871706849903  1.0000
  C   C8        1.0  0.2754751485066508  0.9964148260878716  0.415123027919897  1.0000
  C   C9        1.0  0.6913300717549262  0.5662819185694374  0.46341292178519927  1.0000
  C   C10       1.0  0.8086540870918386  0.066281827299818  0.536590444683249  1.0000
  C   C11       1.0  0.30866394917782713  0.4337176480196305  0.5365853420571229  1.0000
  C   C12       1.0  0.19134000048511987  0.9337154380393713  0.46341365938584295  1.0000
  C   C13       1.0  0.49775423678460845  0.7195199374831776  0.4447839036197792  1.0000
  C   C14       1.0  0.0022429235279873045  0.21951207771355294  0.5552189542572707  1.0000
  C   C15       1.0  0.5022474852827445  0.2804811632922864  0.5552175008637121  1.0000
  C   C16       1.0  0.9977562292686174  0.7804844205293265  0.4447812086654608  1.0000
  C   C17       1.0  0.25359276230399536  0.7625655951198528  0.06066003863121241  1.0000
  C   C18       1.0  0.24641084553592665  0.2625666916997674  0.9393402099163243  1.0000
  C   C19       1.0  0.7464063771665226  0.23743397147260484  0.9393389562500117  1.0000
  C   C20       1.0  0.7535959684081065  0.7374321078089426  0.060659589510606814  1.0000
  C   C21       1.0  0.24157621229032605  0.934514495925356  0.046992831229943  1.0000
  C   C22       1.0  0.2584252431061742  0.4345156676073502  0.9530113552682522  1.0000
  C   C23       1.0  0.7584280257255928  0.06548660484239122  0.953005142623397  1.0000
  C   C24       1.0  0.741572645054724  0.565483898990408  0.04698993895106441  1.0000
  C   C25       1.0  0.3160349031385792  0.8961394184952455  0.9836327310949999  1.0000
  C   C26       1.0  0.18396388187191803  0.3961405104717528  0.016368348557698205  1.0000
  C   C27       1.0  0.6839680635729124  0.10386091518534361  0.016365790026249303  1.0000
  C   C28       1.0  0.8160352709271238  0.603858289035479  0.9836318143684295  1.0000
  C   C29       1.0  0.3918855764122214  0.7200105261048793  0.9374166354271907  1.0000
  C   C30       1.0  0.1081115449567349  0.2200094985791381  0.0625827197692814  1.0000
  C   C31       1.0  0.608112285091643  0.27999057466333  0.062582322702319  1.0000
  C   C32       1.0  0.8918927130499343  0.7799885338404807  0.9374170061485787  1.0000
  S   S1        1.0  0.5475432587642646  0.6858381904806948  0.2599893367835975  1.0000
  S   S2        1.0  0.9524551904845853  0.18583766100110213  0.7400130346492944  1.0000
  S   S3        1.0  0.45245460274365723  0.3141667457281088  0.7400096213515681  1.0000
  S   S4        1.0  0.047547789557867814  0.8141642068586137  0.2599866545202545  1.0000
  S   S5        1.0  0.23024807233242237  0.6398446062743588  0.09167825675572061  1.0000
  S   S6        1.0  0.26975781867876963  0.13984556378214563  0.9083205351758324  1.0000
  S   S7        1.0  0.7697497825067785  0.3601564944924007  0.908320117350776  1.0000
  S   S8        1.0  0.7302489819359297  0.8601532357236723  0.09167809620507232  1.0000
  S   S9        1.0  0.19062285978953503  0.5505446902888524  0.3581761478818777  1.0000
  S   S10       1.0  0.3093764725902375  0.050544353257649284  0.6418239488752706  1.0000
  S   S11       1.0  0.8093762796826097  0.44945641047984003  0.6418228470016063  1.0000
  S   S12       1.0  0.6906226802104244  0.9494559804258246  0.3581762140531168  1.0000
  S   S13       1.0  0.4058951472170663  0.4172060565997884  0.2065113846925541  1.0000
  S   S14       1.0  0.09410621826965841  0.9172054201563926  0.793488078551782  1.0000
  S   S15       1.0  0.5941091107928431  0.5827950441723005  0.7934883412298321  1.0000
  S   S16       1.0  0.9058954838028869  0.08279491352660531  0.2065115738615333  1.0000
  S   S17       1.0  0.19887758097770106  0.2817831218445832  0.36809425412283764  1.0000
  S   S18       1.0  0.3011247628591748  0.7817818138563623  0.6319036782747603  1.0000
  S   S19       1.0  0.8011266637012682  0.7182164447483785  0.6319043037512488  1.0000
  S   S20       1.0  0.6988769458780413  0.2182185198280848  0.3680965581615681  1.0000
  S   S21       1.0  0.9454194980545838  0.4174793012994586  0.20417262398080996  1.0000
  S   S22       1.0  0.5545806855344539  0.9174778848601836  0.7958275475267629  1.0000
  S   S23       1.0  0.05458091938421462  0.582520265293482  0.7958264076543815  1.0000
  S   S24       1.0  0.44542103653208204  0.08252244882716302  0.2041738569555989  1.0000
  N   N1        1.0  0.7378428185722542  0.5383458122465614  0.3399110851597058  1.0000
  N   N2        1.0  0.7621413478640024  0.03834630347515141  0.6600980391166971  1.0000
  N   N3        1.0  0.26215120236373923  0.46165682269497677  0.6600871786871425  1.0000
  N   N4        1.0  0.23785913622224802  0.9616540302203874  0.3399068327497902  1.0000
  N   N5        1.0  0.6047553313361861  0.6386895242891057  0.41646674229051683  1.0000
  N   N6        1.0  0.895237926354959  0.1386843494098287  0.5835370950806154  1.0000
  N   N7        1.0  0.3952438014729154  0.3613131106543791  0.5835316685722134  1.0000
  N   N8        1.0  0.10475867050671893  0.8613136830083125  0.4164629943364346  1.0000
  N   N9        1.0  0.2048603282212369  0.8518815661301462  0.0934244481940922  1.0000
  N   N10       1.0  0.2951383765576594  0.35188406490473784  0.9065776689277385  1.0000
  N   N11       1.0  0.7951388179163817  0.14812030172812035  0.9065751307135415  1.0000
  N   N12       1.0  0.704859484944585  0.6481155016872365  0.0934212891995116  1.0000
  N   N13       1.0  0.3231159888957365  0.7905137102151868  0.9925662583873276  1.0000
  N   N14       1.0  0.17688384412244323  0.2905147535847661  0.0074339623567141015  1.0000
  N   N15       1.0  0.6768857131759987  0.20948585637969336  0.007433394024850802  1.0000
  N   N16       1.0  0.8231191359159455  0.7094832788343697  0.9925657268071716  1.0000
