data_image0
_chemical_formula_structural       Ca4H16C20N8O20
_chemical_formula_sum              "Ca4 H16 C20 N8 O20"
_cell_length_a       6.630810004647168
_cell_length_b       8.784403038746776
_cell_length_c       12.71959570319587
_cell_angle_alpha    89.99967455067004
_cell_angle_beta     89.99956984909245
_cell_angle_gamma    105.46565813215948

_space_group_name_H-M_alt    "P 1"
_space_group_IT_number       1

loop_
  _space_group_symop_operation_xyz
  'x, y, z'

loop_
  _atom_site_type_symbol
  _atom_site_label
  _atom_site_symmetry_multiplicity
  _atom_site_fract_x
  _atom_site_fract_y
  _atom_site_fract_z
  _atom_site_occupancy
  Ca  Ca1       1.0  0.7399281895442728  0.8936324766236793  0.330609542416319  1.0000
  Ca  Ca2       1.0  0.7399272773824065  0.39362787731960214  0.16938527155529215  1.0000
  Ca  Ca3       1.0  0.26007371192410744  0.1063693326948751  0.6693892804950609  1.0000
  Ca  Ca4       1.0  0.2600704131713912  0.6063703527130712  0.8306151237481745  1.0000
  H   H1        1.0  0.7357858901258538  0.20921016652803093  0.42129694943123774  1.0000
  H   H2        1.0  0.7357842174448949  0.7092047750964028  0.07870096143162195  1.0000
  H   H3        1.0  0.2642186459301287  0.7907904980175074  0.5787026596658508  1.0000
  H   H4        1.0  0.2642195304438815  0.2907935274173141  0.9213002200486219  1.0000
  H   H5        1.0  0.7116818939299421  0.1064951885529837  0.5246801997167483  1.0000
  H   H6        1.0  0.7116879648391431  0.6064946092025566  0.9753169712545928  1.0000
  H   H7        1.0  0.2883165847910689  0.8935054035115113  0.4753186232035633  1.0000
  H   H8        1.0  0.2883131484545629  0.39350483807943687  0.02468421022845041  1.0000
  H   H9        1.0  0.7710148642960136  0.8694992925669283  0.6309146726522812  1.0000
  H   H10       1.0  0.7710147689351958  0.36949704633357777  0.8690820270080339  1.0000
  H   H11       1.0  0.2289844025251  0.13050366148673478  0.3690896535814759  1.0000
  H   H12       1.0  0.22898976710587965  0.6305036182024821  0.1309191544660777  1.0000
  H   H13       1.0  0.7752148942646712  0.39215380897354624  0.5930574780566433  1.0000
  H   H14       1.0  0.7751937600466335  0.8921454787368502  0.9069383306359885  1.0000
  H   H15       1.0  0.22479115611200484  0.607846873683961  0.4069437034145339  1.0000
  H   H16       1.0  0.22478721087632889  0.10784784605561981  0.09305891995506242  1.0000
  C   C1        1.0  0.7456494923838195  0.523764011451398  0.37356287900954044  1.0000
  C   C2        1.0  0.7456456401594523  0.023762237569464197  0.12643414817097923  1.0000
  C   C3        1.0  0.2543569520764635  0.4762378522220201  0.626437516270052  1.0000
  C   C4        1.0  0.25434941580673615  0.9762371372362182  0.8735654609467861  1.0000
  C   C5        1.0  0.7556780025683736  0.5858647377675295  0.48164085889799696  1.0000
  C   C6        1.0  0.7556655382604304  0.08585943394532339  0.018353528061339806  1.0000
  C   C7        1.0  0.24432844189936284  0.4141371259106279  0.5183587501930875  1.0000
  C   C8        1.0  0.24432346037078648  0.9141398683793155  0.9816452948796555  1.0000
  C   C9        1.0  0.7698940689303413  0.5123334942137416  0.5783555277011063  1.0000
  C   C10       1.0  0.7698800737088688  0.012328107422305796  0.9216402168870349  1.0000
  C   C11       1.0  0.23011046713310182  0.487667170336536  0.4216432952074671  1.0000
  C   C12       1.0  0.2301066224568161  0.9876688147727536  0.07835624749749573  1.0000
  C   C13       1.0  0.7651554033758147  0.6263675897049693  0.6534740532167689  1.0000
  C   C14       1.0  0.7651424390675247  0.12636192741981486  0.8465204766088024  1.0000
  C   C15       1.0  0.2348445896658973  0.3736330204714874  0.346526342077631  1.0000
  C   C16       1.0  0.23484728575446215  0.8736350310086677  0.15347756014688235  1.0000
  C   C17       1.0  0.762533253519038  0.6133633357951848  0.770117728259095  1.0000
  C   C18       1.0  0.7625334963042577  0.11336038742365417  0.7298800072746305  1.0000
  C   C19       1.0  0.23746707160000113  0.38663374945024737  0.22988581179561868  1.0000
  C   C20       1.0  0.2374634680811455  0.8866401865193863  0.2701188156486226  1.0000
  N   N1        1.0  0.747298400523256  0.7366560240738094  0.4961866394079452  1.0000
  N   N2        1.0  0.747299114979775  0.23665340258506967  0.0038079750864881013  1.0000
  N   N3        1.0  0.25270462118966464  0.26334462234554223  0.5038137558805857  1.0000
  N   N4        1.0  0.2526997578099284  0.7633483704858505  0.996191634019276  1.0000
  N   N5        1.0  0.7485436393694513  0.7568437773694469  0.6000876986533117  1.0000
  N   N6        1.0  0.7485384162473991  0.25684110518628245  0.8999063836366975  1.0000
  N   N7        1.0  0.25145714181709183  0.2431591948246208  0.39991348282346467  1.0000
  N   N8        1.0  0.25146006247361197  0.7431594868782057  0.10009243928362115  1.0000
  O   O1        1.0  0.7462827848231085  0.619346044872003  0.2971058579325857  1.0000
  O   O2        1.0  0.7462823573774102  0.11933987881865697  0.20288764763574826  1.0000
  O   O3        1.0  0.2537225393628049  0.38065698168166756  0.702896109723895  1.0000
  O   O4        1.0  0.2537165154197468  0.8806618942570025  0.7971111752815008  1.0000
  O   O5        1.0  0.7359382327556859  0.37894708716419245  0.3581200803467582  1.0000
  O   O6        1.0  0.7359383283503151  0.878936264505299  0.14187559263210406  1.0000
  O   O7        1.0  0.2640636686828657  0.6210547221354048  0.641881887318661  1.0000
  O   O8        1.0  0.2640600883942597  0.12105962163121117  0.8581240164860592  1.0000
  O   O9        1.0  0.631237983226825  0.6640805518663696  0.8225613710999016  1.0000
  O   O10       1.0  0.6312369184298773  0.16407585556947163  0.6774295928609321  1.0000
  O   O11       1.0  0.3687612216476738  0.33591769627827256  0.17744059657766095  1.0000
  O   O12       1.0  0.36876419490857176  0.8359235917409578  0.32256687149104835  1.0000
  O   O13       1.0  0.8907629994272315  0.5451032526680137  0.8114742768380839  1.0000
  O   O14       1.0  0.8907587575393591  0.045103092358786484  0.6885240212317785  1.0000
  O   O15       1.0  0.10924226279714597  0.4548950679671507  0.18852690463922533  1.0000
  O   O16       1.0  0.1092382068311295  0.9548974815747825  0.3114763740684908  1.0000
  O   O17       1.0  0.7348742710694866  0.10269025028685516  0.44870998080277513  1.0000
  O   O18       1.0  0.7348739065619725  0.6026875513279109  0.05128756463811612  1.0000
  O   O19       1.0  0.26512723631528706  0.8973103780157955  0.5512896283001754  1.0000
  O   O20       1.0  0.2651302354104033  0.39731193220171684  0.9487128306505429  1.0000
