data_image0
_chemical_formula_structural       Cu4H48C28N8O12
_chemical_formula_sum              "Cu4 H48 C28 N8 O12"
_cell_length_a       8.761546873019366
_cell_length_b       9.849778168015549
_cell_length_c       10.648293191027339
_cell_angle_alpha    89.99984067354592
_cell_angle_beta     89.99979569311286
_cell_angle_gamma    90.00012782220985

_space_group_name_H-M_alt    "P 1"
_space_group_IT_number       1

loop_
  _space_group_symop_operation_xyz
  'x, y, z'

loop_
  _atom_site_type_symbol
  _atom_site_label
  _atom_site_symmetry_multiplicity
  _atom_site_fract_x
  _atom_site_fract_y
  _atom_site_fract_z
  _atom_site_occupancy
  Cu  Cu1       1.0  0.033008408169287407  0.19855315247067304  0.39196767952680023  1.0000
  Cu  Cu2       1.0  0.5330042512383315  0.30144904346531115  0.6080277333435545  1.0000
  Cu  Cu3       1.0  0.9669976900101603  0.6985556192636153  0.10802626879929988  1.0000
  Cu  Cu4       1.0  0.4669919431254144  0.8014455970771195  0.891968468668949  1.0000
  H   H1        1.0  0.7757936205190961  0.6766988472210257  0.2750805795097762  1.0000
  H   H2        1.0  0.2757897950096719  0.8233050338082462  0.7249203524999783  1.0000
  H   H3        1.0  0.22421014036019932  0.17669523441798418  0.22491999872606525  1.0000
  H   H4        1.0  0.724204171223356  0.3233022663053475  0.7750804890237857  1.0000
  H   H5        1.0  0.6945365101590114  0.6260267628846279  0.13982152763948355  1.0000
  H   H6        1.0  0.1945356478640861  0.8739718799532026  0.8601777640566438  1.0000
  H   H7        1.0  0.30546598283977733  0.1260269654049537  0.36017542414008824  1.0000
  H   H8        1.0  0.8054630103100139  0.37397374301772146  0.6398220083327714  1.0000
  H   H9        1.0  0.8321462877687722  0.46689916200168097  0.3365431985279058  1.0000
  H   H10       1.0  0.3321454285179826  0.0331046453492903  0.6634541558184565  1.0000
  H   H11       1.0  0.16785591512690698  0.9668958081172719  0.16345381774438286  1.0000
  H   H12       1.0  0.667852378411567  0.5331007510438327  0.8365446129609564  1.0000
  H   H13       1.0  0.7281532336447899  0.2729496793929016  0.2259653145245224  1.0000
  H   H14       1.0  0.22815237853497913  0.2270518902004639  0.7740342225496731  1.0000
  H   H15       1.0  0.27184391949098347  0.7729451842520304  0.2740359558738773  1.0000
  H   H16       1.0  0.771848195438544  0.7270505669034577  0.7259649876990933  1.0000
  H   H17       1.0  0.5682447027776832  0.29580717761725595  0.033505566968521784  1.0000
  H   H18       1.0  0.0682440961497477  0.20419407328216  0.9664981947854369  1.0000
  H   H19       1.0  0.43175479014103507  0.79580546690714  0.46649752300909597  1.0000
  H   H20       1.0  0.9317575620860766  0.7041926334412165  0.5335038914647183  1.0000
  H   H21       1.0  0.7560073461001766  0.35423410571330993  0.0040018972660718  1.0000
  H   H22       1.0  0.2560064654491327  0.1457644736392254  0.9959966191380544  1.0000
  H   H23       1.0  0.2439911513833621  0.8542349776453902  0.49599916455924375  1.0000
  H   H24       1.0  0.7439939055329391  0.6457647790061855  0.504000921445545  1.0000
  H   H25       1.0  0.60263041665646  0.47115533328413756  0.026903294641016397  1.0000
  H   H26       1.0  0.10263048481546382  0.028843955643537797  0.973099427316107  1.0000
  H   H27       1.0  0.39736723146179304  0.9711565799038766  0.4730974671818798  1.0000
  H   H28       1.0  0.8973718768726685  0.5288424671666191  0.5269031088564516  1.0000
  H   H29       1.0  0.5671335539496098  0.4027654114899448  0.37794748741312384  1.0000
  H   H30       1.0  0.0671364586993661  0.0972327914488815  0.622053460240096  1.0000
  H   H31       1.0  0.43286164067669125  0.9027657562794859  0.12205344989330055  1.0000
  H   H32       1.0  0.9328649324293468  0.597232346276698  0.8779470222212706  1.0000
  H   H33       1.0  0.4525923058904269  0.3300470891250171  0.25800552130620247  1.0000
  H   H34       1.0  0.9525872388232629  0.16995492775411236  0.7419961759731846  1.0000
  H   H35       1.0  0.5474106965892958  0.8300432397247945  0.24199560257900288  1.0000
  H   H36       1.0  0.04740862715446781  0.6699530793945243  0.7580050590210942  1.0000
  H   H37       1.0  0.49552445059596545  0.5057516025815473  0.25401116570332494  1.0000
  H   H38       1.0  0.9955247414357944  0.9942445943510306  0.7459900620602083  1.0000
  H   H39       1.0  0.504472035279825  0.0057525458386181  0.2459898511635501  1.0000
  H   H40       1.0  0.004476499793135201  0.4942465474736508  0.7540103408403381  1.0000
  H   H41       1.0  0.19208432551654653  0.419455867242526  0.9865046995784608  1.0000
  H   H42       1.0  0.6920890468654264  0.08054359996913261  0.013495882216993499  1.0000
  H   H43       1.0  0.8079098808346004  0.9194583018858393  0.5134977734642447  1.0000
  H   H44       1.0  0.30791675659311574  0.5805415821533799  0.4865040036168081  1.0000
  H   H45       1.0  0.2765290804540044  0.45846522374564813  0.1322258319563119  1.0000
  H   H46       1.0  0.7765311359407434  0.0415384727620705  0.8677745025849785  1.0000
  H   H47       1.0  0.723468535966802  0.9584643919160173  0.36777684066559146  1.0000
  H   H48       1.0  0.22347239879960062  0.5415332933294437  0.6322261227829884  1.0000
  C   C1        1.0  0.8163376634572259  0.4713532079867021  0.23412680231824362  1.0000
  C   C2        1.0  0.3163477618238133  0.028645491607392194  0.7658743547765494  1.0000
  C   C3        1.0  0.18365085434641062  0.9713536379443681  0.26587395901135114  1.0000
  C   C4        1.0  0.6836625888312682  0.5286470137112786  0.7341272427720326  1.0000
  C   C5        1.0  0.9685277471603442  0.4235340937439034  0.17761335847891493  1.0000
  C   C6        1.0  0.4685365781824445  0.07646287865670591  0.8223845356573559  1.0000
  C   C7        1.0  0.0314606512368769  0.9235370958423771  0.3223837690740082  1.0000
  C   C8        1.0  0.5314681851351822  0.5764642677582684  0.6776150609717104  1.0000
  C   C9        1.0  0.6853915620104446  0.37417124551609504  0.19956477209640153  1.0000
  C   C10       1.0  0.1853949048768655  0.1258271931074333  0.8004339510633897  1.0000
  C   C11       1.0  0.31460241985905674  0.8741698017879642  0.30043436034735993  1.0000
  C   C12       1.0  0.8146088403670078  0.6258290803401891  0.699565518904741  1.0000
  C   C13       1.0  0.6518053331970677  0.37424553775893793  0.058629558300104585  1.0000
  C   C14       1.0  0.1518046398003179  0.1257548644277193  0.941369263202915  1.0000
  C   C15       1.0  0.3481932142626576  0.8742447514894277  0.4413695739455007  1.0000
  C   C16       1.0  0.8481968225585775  0.6257531823305768  0.5586292678410841  1.0000
  C   C17       1.0  0.5426118509580606  0.405017366907316  0.27674914236700227  1.0000
  C   C18       1.0  0.04260974521734081  0.09498281765875298  0.7232518770900923  1.0000
  C   C19       1.0  0.4573879146950688  0.9050154250918824  0.22325085003983247  1.0000
  C   C20       1.0  0.9573893575877581  0.5949817110906251  0.776749550266224  1.0000
  C   C21       1.0  0.19318212378374264  0.49557877194205685  0.06250393433426638  1.0000
  C   C22       1.0  0.6931837838087844  0.0044206974558136  0.9374957051336918  1.0000
  C   C23       1.0  0.8068155853291332  0.9955819571070776  0.4374967648190021  1.0000
  C   C24       1.0  0.3068207995958049  0.5044209705034957  0.5625050154646585  1.0000
  C   C25       1.0  0.2515202787205482  0.6291027299984934  0.008981484934956497  1.0000
  C   C26       1.0  0.7515214801693234  0.8708990721649031  0.9910148225537722  1.0000
  C   C27       1.0  0.7484787979128529  0.12910443636458524  0.4910135807199082  1.0000
  C   C28       1.0  0.2484840184309506  0.3708961584926414  0.5089849577161445  1.0000
  N   N1        1.0  0.78558079222708  0.6141655836378773  0.19897736899804386  1.0000
  N   N2        1.0  0.2855893472348967  0.8858291796417248  0.8010272908191993  1.0000
  N   N3        1.0  0.21441139898105632  0.11416984397239817  0.30102712616663035  1.0000
  N   N4        1.0  0.7144173300006359  0.3858357592377145  0.6989780858341419  1.0000
  N   N5        1.0  0.04469798176618411  0.5189181546801436  0.11641041357782457  1.0000
  N   N6        1.0  0.544701066223361  0.9810801895321146  0.8835958906607643  1.0000
  N   N7        1.0  0.9552985369785678  0.0189195817146128  0.3835962042107396  1.0000
  N   N8        1.0  0.45530242482295347  0.48108447106231017  0.6164101807173381  1.0000
  O   O1        1.0  0.012379052482792498  0.3022583064050082  0.19229050526170965  1.0000
  O   O2        1.0  0.5123703453912257  0.1977418179079038  0.8077068462556126  1.0000
  O   O3        1.0  0.9876261633185662  0.8022591972934662  0.3077059943280104  1.0000
  O   O4        1.0  0.48762558999022343  0.6977430754122409  0.6922905609668177  1.0000
  O   O5        1.0  0.38028430002461994  0.628352178428088  0.954291481795181  1.0000
  O   O6        1.0  0.8802896084831248  0.8716590176259943  0.04570069218630829  1.0000
  O   O7        1.0  0.6197137447678928  0.1283458329300586  0.5457042252425308  1.0000
  O   O8        1.0  0.11972034601755877  0.3716473985453063  0.45429656845784894  1.0000
  O   O9        1.0  0.16896532761710867  0.7357212735325191  0.021602271010493695  1.0000
  O   O10       1.0  0.6689617522150827  0.764282394601409  0.9783942782021594  1.0000
  O   O11       1.0  0.8310397220253594  0.23572115196422763  0.4783925210700132  1.0000
  O   O12       1.0  0.33104005608544185  0.26427859218027555  0.5216029582845392  1.0000
