data_image0
_chemical_formula_structural       Co4P4H24C24N4O12
_chemical_formula_sum              "Co4 P4 H24 C24 N4 O12"
_cell_length_a       8.669769216913897
_cell_length_b       8.77091444400193
_cell_length_c       10.148327583203272
_cell_angle_alpha    90.00000626322066
_cell_angle_beta     111.5764870826993
_cell_angle_gamma    90.00006781592043

_space_group_name_H-M_alt    "P 1"
_space_group_IT_number       1

loop_
  _space_group_symop_operation_xyz
  'x, y, z'

loop_
  _atom_site_type_symbol
  _atom_site_label
  _atom_site_symmetry_multiplicity
  _atom_site_fract_x
  _atom_site_fract_y
  _atom_site_fract_z
  _atom_site_occupancy
  Co  Co1       1.0  0.6204634433020003  0.18063266565988562  0.9491159464477976  1.0000
  Co  Co2       1.0  0.37953432451276825  0.6806350990890094  0.5508822492964641  1.0000
  Co  Co3       1.0  0.3795354664742376  0.8193640489351707  0.05088382078913873  1.0000
  Co  Co4       1.0  0.6204645826214658  0.3193661760338813  0.4491165317288903  1.0000
  P   P1        1.0  0.4105344793251006  0.1537516062638886  0.1578946921492204  1.0000
  P   P2        1.0  0.5894678151031627  0.6537531782409688  0.3421073297629605  1.0000
  P   P3        1.0  0.5894656707974731  0.8462473885958559  0.8421054626593901  1.0000
  P   P4        1.0  0.41053606134570225  0.3462480968850841  0.6578959601851012  1.0000
  H   H1        1.0  0.9608894593662639  0.180883692806745  0.9329631237507597  1.0000
  H   H2        1.0  0.039108308809794295  0.6808868701427427  0.567035072133095  1.0000
  H   H3        1.0  0.0391094530544365  0.8191118816563969  0.06703762969871012  1.0000
  H   H4        1.0  0.9608930763685635  0.3191144049815832  0.43296349782148985  1.0000
  H   H5        1.0  0.24153843810700687  0.272739145383099  0.942151412011448  1.0000
  H   H6        1.0  0.7584607050651471  0.7727431628234668  0.5578482086616674  1.0000
  H   H7        1.0  0.7584592260356189  0.7272598494750397  0.05784599522938548  1.0000
  H   H8        1.0  0.2415394450598853  0.22725925243220496  0.44215194614789516  1.0000
  H   H9        1.0  0.35229942534311925  0.40739444735901736  0.07231036195962304  1.0000
  H   H10       1.0  0.6476995072707936  0.9073960971870816  0.4276886656555521  1.0000
  H   H11       1.0  0.6476994791425668  0.5926022672359182  0.9276874328516129  1.0000
  H   H12       1.0  0.3523006428534218  0.0926051779366119  0.5723114891536909  1.0000
  H   H13       1.0  0.7302232744312888  0.4043813051496912  0.1712720705570874  1.0000
  H   H14       1.0  0.26977441086377496  0.904384782044282  0.32872558160158144  1.0000
  H   H15       1.0  0.26977439235661643  0.5956176897085043  0.8287263228965928  1.0000
  H   H16       1.0  0.7302257366151607  0.09561649307936189  0.6712735869948077  1.0000
  H   H17       1.0  0.9882820597905423  0.5437443555892685  0.3087419416148408  1.0000
  H   H18       1.0  0.0117175879233429  0.043749161865150696  0.1912562854332194  1.0000
  H   H19       1.0  0.0117156043529008  0.4562557794008483  0.6912554656263055  1.0000
  H   H20       1.0  0.9882838025472083  0.9562543935232451  0.8087442569476976  1.0000
  H   H21       1.0  0.2451596839667332  0.49927079016544706  0.2555010714192534  1.0000
  H   H22       1.0  0.7548418666643782  0.9992748246535613  0.24450075478109307  1.0000
  H   H23       1.0  0.7548392231650495  0.5007270645615235  0.7444977096051488  1.0000
  H   H24       1.0  0.24515952645145225  0.0007287307348917999  0.7555007738126704  1.0000
  C   C1        1.0  0.12501128233800074  0.33452620075283324  0.09004327661351401  1.0000
  C   C2        1.0  0.874990028892604  0.8345292544649963  0.409957471894991  1.0000
  C   C3        1.0  0.8749863844490803  0.6654716539733839  0.9099551168398536  1.0000
  C   C4        1.0  0.12501011594269326  0.1654743009225328  0.590040710489184  1.0000
  C   C5        1.0  0.274777279781901  0.3044439041168586  0.05389681591957902  1.0000
  C   C6        1.0  0.7252215075295395  0.804449067088342  0.44610314074345336  1.0000
  C   C7        1.0  0.7252203975838327  0.695550530213673  0.9461055223842367  1.0000
  C   C8        1.0  0.27477988558629113  0.19555448830011096  0.5538983878503105  1.0000
  C   C9        1.0  0.9736893894386539  0.2623631796245078  0.017326349411206383  1.0000
  C   C10       1.0  0.0263093374004271  0.7623709499099361  0.4826735838861326  1.0000
  C   C11       1.0  0.0263095229836807  0.7376346751025764  0.982674404038896  1.0000
  C   C12       1.0  0.9736920583590417  0.23763032521462427  0.5173289309198523  1.0000
  C   C13       1.0  0.8430401935024036  0.3874344482184853  0.1497450780290847  1.0000
  C   C14       1.0  0.15695870513928864  0.887440075913048  0.35025196607819004  1.0000
  C   C15       1.0  0.156958713628562  0.6125622663765141  0.8502537029950049  1.0000
  C   C16       1.0  0.8430439256743227  0.11256119921214489  0.6497489638731366  1.0000
  C   C17       1.0  0.13096507464159396  0.4376956125539521  0.19727200618621768  1.0000
  C   C18       1.0  0.8690338988754931  0.9377009273411689  0.3027260520426439  1.0000
  C   C19       1.0  0.8690350701887863  0.5623011020417295  0.8027261761960602  1.0000
  C   C20       1.0  0.1309687372303117  0.06230262804808722  0.6972768503350153  1.0000
  C   C21       1.0  0.9885268646676265  0.4638803865351447  0.22676728708781008  1.0000
  C   C22       1.0  0.0114746298135557  0.9638846951974853  0.2732325470354696  1.0000
  C   C23       1.0  0.011472042464149002  0.5361174681918258  0.7732314939365923  1.0000
  C   C24       1.0  0.9885267606578124  0.0361200003228817  0.7267679953457603  1.0000
  N   N1        1.0  0.8356409049546016  0.28798300614063516  0.04603775129420748  1.0000
  N   N2        1.0  0.1643578587004058  0.7879875141794485  0.4539621962282965  1.0000
  N   N3        1.0  0.16435800482163634  0.7120137084544212  0.9539620159427286  1.0000
  N   N4        1.0  0.8356422861340747  0.21201490107610246  0.5460359861555659  1.0000
  O   O1        1.0  0.5652551611378555  0.15334580744072918  0.1175604918584057  1.0000
  O   O2        1.0  0.4347446440818814  0.653347203096878  0.3824377960477748  1.0000
  O   O3        1.0  0.43474250829450506  0.846652047285552  0.8824388878078083  1.0000
  O   O4        1.0  0.5652567437409388  0.34665293189553387  0.6175617601193437  1.0000
  O   O5        1.0  0.3113879233491089  0.0029189267340115  0.1197101582017268  1.0000
  O   O6        1.0  0.688614159608086  0.5029206189986083  0.3802937523824141  1.0000
  O   O7        1.0  0.6886147127534201  0.9970800681273458  0.8802927441746603  1.0000
  O   O8        1.0  0.3113897221321551  0.497081796259536  0.6197115099916601  1.0000
  O   O9        1.0  0.4554019501717406  0.1904080246232098  0.31624003849819365  1.0000
  O   O10       1.0  0.544599153943814  0.6904072458177026  0.18376062998387255  1.0000
  O   O11       1.0  0.544595713974978  0.8095966708947983  0.6837573687442174  1.0000
  O   O12       1.0  0.45540347951425986  0.30959288917556893  0.8162412861799809  1.0000
