data_image0
_chemical_formula_structural       V2Zn4P4H16C24N4O18
_chemical_formula_sum              "V2 Zn4 P4 H16 C24 N4 O18"
_cell_length_a       7.968528708379179
_cell_length_b       9.094997388891604
_cell_length_c       11.80144480360787
_cell_angle_alpha    81.5586555224123
_cell_angle_beta     71.6143274775082
_cell_angle_gamma    75.26202878983875

_space_group_name_H-M_alt    "P 1"
_space_group_IT_number       1

loop_
  _space_group_symop_operation_xyz
  'x, y, z'

loop_
  _atom_site_type_symbol
  _atom_site_label
  _atom_site_symmetry_multiplicity
  _atom_site_fract_x
  _atom_site_fract_y
  _atom_site_fract_z
  _atom_site_occupancy
  V   V1        1.0  0.7770489295179317  0.63296966187648  0.15478758560558253  1.0000
  V   V2        1.0  0.22295321351430897  0.36702918616949626  0.8452122487306114  1.0000
  Zn  Zn1       1.0  0.0636473724080275  0.8813124618710402  0.17592420139839499  1.0000
  Zn  Zn2       1.0  0.936351520531531  0.11868866163673175  0.8240760707733727  1.0000
  Zn  Zn3       1.0  0.4783544652094207  0.7466832978563857  0.9668976857605288  1.0000
  Zn  Zn4       1.0  0.5216463587901785  0.25331554848582977  0.03310327892896233  1.0000
  P   P1        1.0  0.722361757891882  0.9226714771222572  0.05371554831727113  1.0000
  P   P2        1.0  0.2776403823125762  0.0773273704482875  0.9462834393232596  1.0000
  P   P3        1.0  0.21323590736793113  0.5386126012037024  0.07385062376427949  1.0000
  P   P4        1.0  0.7867662384920989  0.46138624731770517  0.9261500572675844  1.0000
  H   H1        1.0  0.8034111442365415  0.221797958314454  0.17253407554791517  1.0000
  H   H2        1.0  0.1965880518889236  0.778202025283228  0.8274662613636964  1.0000
  H   H3        1.0  0.5413133937336239  0.3641605806445796  0.32438510997507564  1.0000
  H   H4        1.0  0.4586834590290961  0.6358382582092117  0.6756150122959782  1.0000
  H   H5        1.0  0.4722902416732139  0.25896888107298816  0.541082179594774  1.0000
  H   H6        1.0  0.5277069171032024  0.7410288183461516  0.45891885411178635  1.0000
  H   H7        1.0  0.5610628043880297  0.05220446533969888  0.694542160947428  1.0000
  H   H8        1.0  0.438936088551529  0.9477966581680729  0.30545811122433963  1.0000
  H   H9        1.0  0.7664087015201134  0.8130943476796374  0.7394339683231691  1.0000
  H   H10       1.0  0.23359283231252445  0.1869067797110802  0.2605648898376813  1.0000
  H   H11       1.0  0.03546629091978557  0.5963954698871416  0.6667766459269089  1.0000
  H   H12       1.0  0.9645315776896766  0.40360451058049307  0.3332222812510039  1.0000
  H   H13       1.0  0.28338750366081905  0.47771164840911223  0.4945495930572363  1.0000
  H   H14       1.0  0.7166116896368636  0.5222883347131386  0.5054498971587121  1.0000
  H   H15       1.0  0.29945856486902755  0.5938834266615983  0.28535612972869023  1.0000
  H   H16       1.0  0.7005419531168684  0.40611655911528277  0.7146439235253012  1.0000
  C   C1        1.0  0.7657270218265069  0.17571428464174227  0.2653611658432027  1.0000
  C   C2        1.0  0.2342705492526136  0.8242868366868448  0.7346393899861994  1.0000
  C   C3        1.0  0.6192613909105943  0.25602961567012983  0.35218318656379216  1.0000
  C   C4        1.0  0.38073678654035337  0.7439692258382847  0.6478174987452903  1.0000
  C   C5        1.0  0.5817163128727428  0.19813802038535036  0.4703325716485906  1.0000
  C   C6        1.0  0.4182815585645089  0.8018619605577156  0.5296672022249922  1.0000
  C   C7        1.0  0.6915483508947416  0.05960783929463527  0.5019681974769412  1.0000
  C   C8        1.0  0.3084521699189436  0.9403921469576699  0.4980327024727131  1.0000
  C   C9        1.0  0.8314756981119729  0.9838407254001993  0.40764690448822444  1.0000
  C   C10       1.0  0.168521569781241  0.016161535838463695  0.5923535866013339  1.0000
  C   C11       1.0  0.6697179199122091  0.9944436416166195  0.622367363109987  1.0000
  C   C12       1.0  0.3302809758551319  0.005557482366583599  0.3776337557574507  1.0000
  C   C13       1.0  0.7824527362093789  0.8614440772969302  0.6475746393626453  1.0000
  C   C14       1.0  0.2175471782324863  0.13855818877554776  0.3524261311073218  1.0000
  C   C15       1.0  0.9250517466491105  0.7820762515547484  0.5541577135944209  1.0000
  C   C16       1.0  0.07494744947635465  0.21792373204293364  0.44584262331719055  1.0000
  C   C17       1.0  0.947913095050737  0.8420493330918218  0.43365586162734354  1.0000
  C   C18       1.0  0.05208711692147008  0.1579517921197109  0.5663432801911341  1.0000
  C   C19       1.0  0.04847312823481791  0.6466481104709912  0.575373942000482  1.0000
  C   C20       1.0  0.9515231181560891  0.3533530082029727  0.42462605079088434  1.0000
  C   C21       1.0  0.18457672361115127  0.5800317651740485  0.479596018296597  1.0000
  C   C22       1.0  0.8154240890773041  0.41996707926644916  0.5204015596102279  1.0000
  C   C23       1.0  0.1956977901292447  0.6450384856435035  0.3627983412737734  1.0000
  C   C24       1.0  0.8043011028103136  0.3549626378642614  0.6372019308980016  1.0000
  N   N1        1.0  0.8657150757178512  0.04198496565926749  0.29240150115870034  1.0000
  N   N2        1.0  0.13428249536126893  0.9580161556693129  0.7075990546707019  1.0000
  N   N3        1.0  0.07968174582097017  0.7723680181783477  0.34062107932941643  1.0000
  N   N4        1.0  0.9203190725230569  0.22763082721301228  0.6593781919687416  1.0000
  O   O1        1.0  0.24922415505425727  0.7005987218820521  0.07641360660697673  1.0000
  O   O2        1.0  0.7507776847920767  0.29940126607400686  0.9235861629893805  1.0000
  O   O3        1.0  0.8589712465618362  0.8312515509000277  0.1260197481435129  1.0000
  O   O4        1.0  0.14103353453570117  0.16874730055346987  0.8739778254860937  1.0000
  O   O5        1.0  0.5941118859117367  0.05978030401244179  0.11863674661061917  1.0000
  O   O6        1.0  0.4058889380878625  0.9402185423297806  0.8813642180788791  1.0000
  O   O7        1.0  0.8192391359299619  0.9582942320917238  0.9233474865955955  1.0000
  O   O8        1.0  0.18076005453993818  0.0417057505550957  0.0766511569246831  1.0000
  O   O9        1.0  0.6214047988457949  0.7885586808568305  0.0668665074827928  1.0000
  O   O10       1.0  0.3785963255119285  0.21143902509987805  0.933133675250879  1.0000
  O   O11       1.0  0.6526243238146847  0.6090733135872453  0.29029450058756373  1.0000
  O   O12       1.0  0.34737944709168994  0.390924397203264  0.7097059615265094  1.0000
  O   O13       1.0  0.02264741921748477  0.5315561566935543  0.1583679892815795  1.0000
  O   O14       1.0  0.9773547238147556  0.46844269135242905  0.8416318450546214  1.0000
  O   O15       1.0  0.22537256184482138  0.5215909404847706  0.9425757524685993  1.0000
  O   O16       1.0  0.7746312062337638  0.47840676983030755  0.05742386294981119  1.0000
  O   O17       1.0  0.35406106581628904  0.4178908513448291  0.12147153548701077  1.0000
  O   O18       1.0  0.6459410828715234  0.5821079976520096  0.8785299922405231  1.0000
