data_image0
_chemical_formula_structural       Co6H6C36O42
_chemical_formula_sum              "Co6 H6 C36 O42"
_cell_length_a       6.842814348643479
_cell_length_b       15.189113164653273
_cell_length_c       15.186512360822148
_cell_angle_alpha    117.80359486969121
_cell_angle_beta     98.62797377409036
_cell_angle_gamma    98.6298058644077

_space_group_name_H-M_alt    "P 1"
_space_group_IT_number       1

loop_
  _space_group_symop_operation_xyz
  'x, y, z'

loop_
  _atom_site_type_symbol
  _atom_site_label
  _atom_site_symmetry_multiplicity
  _atom_site_fract_x
  _atom_site_fract_y
  _atom_site_fract_z
  _atom_site_occupancy
  Co  Co1       1.0  0.5208217427444736  0.40233244554779185  0.7291436941029303  1.0000
  Co  Co2       1.0  0.7916762176930872  0.2708095340083645  0.6731023018428246  1.0000
  Co  Co3       1.0  0.1185359994442833  0.3267782722633398  0.5975217849463019  1.0000
  Co  Co4       1.0  0.4791858053668533  0.5976624483182392  0.27086060063849254  1.0000
  Co  Co5       1.0  0.20831768230804906  0.7291876698313328  0.32691201841031864  1.0000
  Co  Co6       1.0  0.8814623429756308  0.6732189304961975  0.402488886139352  1.0000
  H   H1        1.0  0.17740152335612436  0.5260516087397279  0.5507135735628522  1.0000
  H   H2        1.0  0.6267363699249555  0.4494056658713674  0.9754307657571673  1.0000
  H   H3        1.0  0.6514251063234155  0.024731394190716592  0.474020608129301  1.0000
  H   H4        1.0  0.8226008811996548  0.47394482347934985  0.44929108836617354  1.0000
  H   H5        1.0  0.37327233540968036  0.5505915346546216  0.02457270751111191  1.0000
  H   H6        1.0  0.34857584137691305  0.9752681183106444  0.5260038279751738  1.0000
  C   C1        1.0  0.7488311167044868  0.3929975048715732  0.5650754976755435  1.0000
  C   C2        1.0  0.18362358615900104  0.43480006214835487  0.8278495321744117  1.0000
  C   C3        1.0  0.3558225392343388  0.1720518999588734  0.6068542249865558  1.0000
  C   C4        1.0  0.25115826704984556  0.6069935429286701  0.43491786678674055  1.0000
  C   C5        1.0  0.8163840698940631  0.5652009852519625  0.17216290619084873  1.0000
  C   C6        1.0  0.6441771460300384  0.8279391520614253  0.3931615720604567  1.0000
  C   C7        1.0  0.6203451799640687  0.4496440793779328  0.5356307505231257  1.0000
  C   C8        1.0  0.08459789721018747  0.4642698523074671  0.9139750209446049  1.0000
  C   C9        1.0  0.17071181057434603  0.08595287558892302  0.5502554523815206  1.0000
  C   C10       1.0  0.37965652618405693  0.5503538898271928  0.46436931251926683  1.0000
  C   C11       1.0  0.9154093717372261  0.535730426349609  0.0860383496984127  1.0000
  C   C12       1.0  0.8292820245395445  0.9140412526309374  0.44976006368673876  1.0000
  C   C13       1.0  0.435152052497564  0.4655219769270005  0.5665117983384604  1.0000
  C   C14       1.0  0.8685594904424148  0.43344346376220233  0.8989973480576552  1.0000
  C   C15       1.0  0.9696970823736135  0.10098753976091501  0.5344301574478649  1.0000
  C   C16       1.0  0.564856007035729  0.5344798374955957  0.43349180630848133  1.0000
  C   C17       1.0  0.13144816561064923  0.566557583638115  0.10101509030761228  1.0000
  C   C18       1.0  0.030293025103737964  0.8990050508321018  0.4655857052339626  1.0000
  C   C19       1.0  0.31985168259647856  0.5150113799145897  0.5287231769310167  1.0000
  C   C20       1.0  0.7911336114561747  0.4713531253477042  0.9863437968142675  1.0000
  C   C21       1.0  0.8048544130270655  0.013733789532629697  0.4850571988498586  1.0000
  C   C22       1.0  0.6801545144830923  0.4849896655511684  0.4712799425693249  1.0000
  C   C23       1.0  0.20887513556839812  0.5286471532361432  0.013669674346345992  1.0000
  C   C24       1.0  0.19513979554699265  0.9862611088646033  0.5149639694744437  1.0000
  C   C25       1.0  0.8037811705204162  0.6501172631892516  0.8977441442938812  1.0000
  C   C26       1.0  0.9066865122039045  0.10235090891372067  0.7524213328384306  1.0000
  C   C27       1.0  0.15424608032128612  0.24763335366825598  0.34968896230680707  1.0000
  C   C28       1.0  0.19616760984074932  0.34985147316083237  0.10218535466519535  1.0000
  C   C29       1.0  0.09332143451381102  0.8977008905528621  0.24759107791997081  1.0000
  C   C30       1.0  0.8458058471899927  0.752382301751666  0.6503253955088297  1.0000
  C   C31       1.0  0.7051236074490248  0.333083472515277  0.20754989976363453  1.0000
  C   C32       1.0  0.4972281921129561  0.7927391021570713  0.125326973496513  1.0000
  C   C33       1.0  0.3717789103460659  0.8748036567108386  0.6674353547868749  1.0000
  C   C34       1.0  0.29484410046421755  0.6668760457754529  0.7924292681994131  1.0000
  C   C35       1.0  0.5027264604737312  0.2072473233216812  0.8746170969747808  1.0000
  C   C36       1.0  0.6282950234119937  0.1252412204815201  0.33258951234508055  1.0000
  O   O1        1.0  0.6873778185188966  0.3572280007933415  0.6208878446552717  1.0000
  O   O2        1.0  0.06644577148154696  0.3790541749425387  0.7362365521933825  1.0000
  O   O3        1.0  0.3300918656684785  0.2636442752798374  0.6426999616249987  1.0000
  O   O4        1.0  0.3126129258190246  0.6427568944032913  0.379102085874429  1.0000
  O   O5        1.0  0.9335538483843493  0.6209514867205146  0.26377551496255347  1.0000
  O   O6        1.0  0.6699126491203343  0.7363475444035358  0.3573112539767606  1.0000
  O   O7        1.0  0.9094759614091215  0.3776655232742172  0.5337574379316478  1.0000
  O   O8        1.0  0.37557423758956787  0.4660844746243171  0.8438627128900862  1.0000
  O   O9        1.0  0.5317800184922348  0.1560639039584473  0.6220785239821041  1.0000
  O   O10       1.0  0.09051188483898887  0.6223224484057679  0.4662343880146407  1.0000
  O   O11       1.0  0.6244304028801009  0.5339134967289638  0.15614808644157566  1.0000
  O   O12       1.0  0.46821515264337416  0.8439240742392401  0.3779454103144104  1.0000
  O   O13       1.0  0.3648293196222028  0.43706989030450677  0.6297891787322668  1.0000
  O   O14       1.0  0.7349834231216119  0.3700727197620707  0.8072659278096949  1.0000
  O   O15       1.0  0.9279507039771885  0.19273466370624695  0.5628607158419996  1.0000
  O   O16       1.0  0.635169929512628  0.5629350008943489  0.37021591926087166  1.0000
  O   O17       1.0  0.2650227534897381  0.6299283278548841  0.19274706849135007  1.0000
  O   O18       1.0  0.07204049856531466  0.8072571576400662  0.4371542042750463  1.0000
  O   O19       1.0  0.8758907505530187  0.7214188284193168  0.9803122399011881  1.0000
  O   O20       1.0  0.8965950694295728  0.019791582664929298  0.741064945376948  1.0000
  O   O21       1.0  0.15482970562462128  0.2589770466497399  0.2784333588949437  1.0000
  O   O22       1.0  0.12403797383068842  0.2785629811824108  0.019614745446951087  1.0000
  O   O23       1.0  0.10340485041056256  0.9802440624376556  0.2589176592109225  1.0000
  O   O24       1.0  0.8452309908374499  0.741053221558907  0.7215943334697099  1.0000
  O   O25       1.0  0.7315598533526851  0.5791884937784744  0.8144302307478241  1.0000
  O   O26       1.0  0.9174051172544677  0.18566249265928994  0.7648993254091677  1.0000
  O   O27       1.0  0.15320957772743063  0.23518921456013686  0.42058779654138323  1.0000
  O   O28       1.0  0.26840864848659857  0.42076947748727633  0.18550744436525693  1.0000
  O   O29       1.0  0.082608804683545  0.8143954647813061  0.23514336000501146  1.0000
  O   O30       1.0  0.8468361956653038  0.7648141368089793  0.5794223825703994  1.0000
  O   O31       1.0  0.8656428086982116  0.3899347855560436  0.2326256647225264  1.0000
  O   O32       1.0  0.6329717068835591  0.7680764613522156  0.15746729505988094  1.0000
  O   O33       1.0  0.4759032741694325  0.8430538042119692  0.6107891097478626  1.0000
  O   O34       1.0  0.1343141603532984  0.6100447327005439  0.7673811914961702  1.0000
  O   O35       1.0  0.3669622670218188  0.2319130460778354  0.8424985351249887  1.0000
  O   O36       1.0  0.5241316221575261  0.1569426291209624  0.3892302741825375  1.0000
  O   O37       1.0  0.5452890877245335  0.27522387852166463  0.18194205752691062  1.0000
  O   O38       1.0  0.36266867598208546  0.8179544656219376  0.09276693763098372  1.0000
  O   O39       1.0  0.2692910621947816  0.9070034675005942  0.7250716912482388  1.0000
  O   O40       1.0  0.4546835061708378  0.724718716289608  0.8180104581084962  1.0000
  O   O41       1.0  0.6373142683779419  0.18204118389087395  0.9071688706955142  1.0000
  O   O42       1.0  0.7308115583605995  0.09308985449402479  0.2749599308222415  1.0000
