data_image0
_chemical_formula_structural       K2MnH32C28S4O26
_chemical_formula_sum              "K2 Mn1 H32 C28 S4 O26"
_cell_length_a       7.99696090894575
_cell_length_b       9.912443365852205
_cell_length_c       12.508787768691649
_cell_angle_alpha    98.512919153261
_cell_angle_beta     95.39494537393227
_cell_angle_gamma    105.61996774672058

_space_group_name_H-M_alt    "P 1"
_space_group_IT_number       1

loop_
  _space_group_symop_operation_xyz
  'x, y, z'

loop_
  _atom_site_type_symbol
  _atom_site_label
  _atom_site_symmetry_multiplicity
  _atom_site_fract_x
  _atom_site_fract_y
  _atom_site_fract_z
  _atom_site_occupancy
  K   K1        1.0  0.36897117331852763  0.0772805016007823  0.0963965232006387  1.0000
  K   K2        1.0  0.6310359573801209  0.9227091229631488  0.903597153481357  1.0000
  Mn  Mn1       1.0  7.179950713999095e-06  0.5000025594277561  3.4590730988527366e-07  1.0000
  H   H1        1.0  0.23840316674190387  0.3649704109609361  0.9085128711653141  1.0000
  H   H2        1.0  0.7616185116371244  0.6350350842518326  0.09148921948553833  1.0000
  H   H3        1.0  0.10814490005424203  0.3866166638063434  0.8123331762468952  1.0000
  H   H4        1.0  0.8918652972346665  0.6133814148618414  0.18766891531363686  1.0000
  H   H5        1.0  0.9992450787344469  0.812519980540124  0.13630252720017216  1.0000
  H   H6        1.0  0.000758246081744609  0.18748338842341644  0.8637093931590416  1.0000
  H   H7        1.0  0.9685772258828181  0.9641641905036593  0.13536069368459638  1.0000
  H   H8        1.0  0.031414086778355006  0.035837234311820516  0.8646374758167995  1.0000
  H   H9        1.0  0.5442671099233962  0.4326684701658652  0.11575824545047912  1.0000
  H   H10       1.0  0.4557250374865519  0.5673317866264186  0.8842502240434061  1.0000
  H   H11       1.0  0.68964219525828  0.3515645839963071  0.1273723291870255  1.0000
  H   H12       1.0  0.3103437855002227  0.648432522851735  0.8726337851942464  1.0000
  H   H13       1.0  0.634893536698776  0.24216716943190875  0.4786144217689455  1.0000
  H   H14       1.0  0.3651260861685446  0.7578361152947724  0.5213968681433699  1.0000
  H   H15       1.0  0.7557827639552528  0.33194617950179867  0.6772599805376417  1.0000
  H   H16       1.0  0.24423241768279522  0.6680379270133869  0.32274789392855047  1.0000
  H   H17       1.0  0.24963424530866254  0.1258388840733531  0.7608042065886738  1.0000
  H   H18       1.0  0.7503617084030626  0.8741753429780847  0.23919341149480297  1.0000
  H   H19       1.0  0.13599409808534801  0.03346408857722592  0.5652619904608472  1.0000
  H   H20       1.0  0.8640085222503234  0.966565063138383  0.43473545784195283  1.0000
  H   H21       1.0  0.38022855689553137  0.4933321639225597  0.4541464550331897  1.0000
  H   H22       1.0  0.6197697991591227  0.506643652903847  0.5458434043666786  1.0000
  H   H23       1.0  0.2915180738707407  0.4065986160860718  0.25487245551734367  1.0000
  H   H24       1.0  0.7084801872629926  0.5933804034044173  0.7451177904980923  1.0000
  H   H25       1.0  0.7884268651579874  0.1570031969655616  0.31423344686943017  1.0000
  H   H26       1.0  0.21155935929146355  0.8430015196540668  0.685758424637257  1.0000
  H   H27       1.0  0.88605496627045  0.23671144412674047  0.5157590703459151  1.0000
  H   H28       1.0  0.11394243911787082  0.7632825383419973  0.4842313582803542  1.0000
  H   H29       1.0  0.11829473595915377  0.961283253437138  0.2860120863752941  1.0000
  H   H30       1.0  0.881701311635723  0.03874162461053031  0.7139892404301308  1.0000
  H   H31       1.0  0.36621778514120956  0.5624300773572558  0.7275847461268868  1.0000
  H   H32       1.0  0.6337604894335771  0.4375596341490252  0.2724168017230682  1.0000
  C   C1        1.0  0.3207827956523914  0.07619095725910799  0.3911236312567255  1.0000
  C   C2        1.0  0.6792218288407458  0.9238263971810029  0.6088772890198373  1.0000
  C   C3        1.0  0.38170399669370164  0.13035615283479277  0.5101203020773682  1.0000
  C   C4        1.0  0.6183064133100942  0.8696633012074101  0.4898812228448008  1.0000
  C   C5        1.0  0.5544497861327287  0.21578945883816664  0.5422122799574965  1.0000
  C   C6        1.0  0.44556512716878427  0.7842181606966606  0.4577952608353471  1.0000
  C   C7        1.0  0.6202555654485027  0.2674126065742329  0.6522361859411063  1.0000
  C   C8        1.0  0.37975557897410556  0.7325811527737759  0.34777023013876374  1.0000
  C   C9        1.0  0.5086714765582772  0.2352262890778576  0.7299786017846729  1.0000
  C   C10       1.0  0.4913323592476291  0.7647750302979407  0.27002350471082803  1.0000
  C   C11       1.0  0.3348358173913868  0.15071494473793481  0.6991436870789373  1.0000
  C   C12       1.0  0.6651651420854209  0.8492992298642152  0.30085662357369364  1.0000
  C   C13       1.0  0.2714745147229182  0.09807014094644732  0.5892893350307064  1.0000
  C   C14       1.0  0.7285316617767847  0.9019514955819617  0.4107098046234299  1.0000
  C   C15       1.0  0.18280790963925858  0.4270664157969863  0.6164219444754481  1.0000
  C   C16       1.0  0.8171835928637634  0.572928603690336  0.38357545179481184  1.0000
  C   C17       1.0  0.13498368044664494  0.37353238239406045  0.496801343308647  1.0000
  C   C18       1.0  0.8650160217658043  0.6264679314801712  0.5031963944867998  1.0000
  C   C19       1.0  0.25123233096502423  0.41987851467366977  0.4238932761130414  1.0000
  C   C20       1.0  0.7487667873711887  0.5800994028370283  0.5761000842208546  1.0000
  C   C21       1.0  0.20195027163036636  0.3720579487739785  0.31224320766676783  1.0000
  C   C22       1.0  0.7980477022457322  0.6279306713705921  0.6877489966036024  1.0000
  C   C23       1.0  0.034661596697581835  0.279593715912995  0.27371770057477113  1.0000
  C   C24       1.0  0.9653355914054627  0.7204065911641849  0.7262822837731094  1.0000
  C   C25       1.0  0.91761954274115  0.2307661022637789  0.3453653435072894  1.0000
  C   C26       1.0  0.08236762884199321  0.769234295035666  0.6546308525187358  1.0000
  C   C27       1.0  0.9701338346614252  0.2767444632201972  0.45716453800346823  1.0000
  C   C28       1.0  0.029866453502798262  0.7232505396969559  0.5428293865785038  1.0000
  S   S1        1.0  0.5799074774331746  0.3025169261043247  0.8716558631513254  1.0000
  S   S2        1.0  0.4201016464057332  0.6974747254917802  0.12834857447484896  1.0000
  S   S3        1.0  0.9732257764813  0.22607147911224257  0.13020574947759667  1.0000
  S   S4        1.0  0.026761881142981378  0.7739267952178893  0.8697886167669752  1.0000
  O   O1        1.0  0.41612724845852983  0.10550064791643622  0.32057657083337443  1.0000
  O   O2        1.0  0.5838819017860505  0.8945049380596971  0.6794231796398337  1.0000
  O   O3        1.0  0.15536924546286474  0.9935220593253437  0.36923622431265113  1.0000
  O   O4        1.0  0.8446361577380727  0.006511300826453199  0.6307667033778729  1.0000
  O   O5        1.0  0.5630520901971822  0.17899936602068325  0.9251489999404543  1.0000
  O   O6        1.0  0.4369399782987531  0.8209902838043137  0.07485097038213692  1.0000
  O   O7        1.0  0.46126536367003734  0.38662632167586963  0.9074029733763143  1.0000
  O   O8        1.0  0.5387577403992483  0.6133727092329339  0.09260400723709952  1.0000
  O   O9        1.0  0.761483606704687  0.3954550170675547  0.8804366817618929  1.0000
  O   O10       1.0  0.23853167484400478  0.6045259014598587  0.11956920927228515  1.0000
  O   O11       1.0  0.07890274368579503  0.3892761202149161  0.6818272787735753  1.0000
  O   O12       1.0  0.9210786473764119  0.6107221921587469  0.3181667157903974  1.0000
  O   O13       1.0  0.3408076737893638  0.5181809187249017  0.6444045350618738  1.0000
  O   O14       1.0  0.6591808335528315  0.4818162316109778  0.35559534072583443  1.0000
  O   O15       1.0  0.8968341482316406  0.3382864931420714  0.09613896147494931  1.0000
  O   O16       1.0  0.10315486261569626  0.6617085855915904  0.9038534956737225  1.0000
  O   O17       1.0  0.13268878970713163  0.22579418120169248  0.08289003614481771  1.0000
  O   O18       1.0  0.8672962624194512  0.7741934426733155  0.9171020695220238  1.0000
  O   O19       1.0  0.8390023381470686  0.08715349177379751  0.11187291928558106  1.0000
  O   O20       1.0  0.1609831939931611  0.9128458481158933  0.8881230487537624  1.0000
  O   O21       1.0  0.11585333406675605  0.367246473925974  0.8894344534795808  1.0000
  O   O22       1.0  0.8841691140784037  0.6327611439855474  0.11056874288062352  1.0000
  O   O23       1.0  0.054467455414034346  0.9166885383864243  0.16140493181002571  1.0000
  O   O24       1.0  0.9455299189982259  0.08331920968473842  0.8385991730524652  1.0000
  O   O25       1.0  0.5821330968784226  0.36467394086715643  0.15576550151649127  1.0000
  O   O26       1.0  0.4178472932009854  0.6353146757269458  0.8442376381715848  1.0000
