data_image0
_chemical_formula_structural       Zn2H16C20Se4N12
_chemical_formula_sum              "Zn2 H16 C20 Se4 N12"
_cell_length_a       8.946717193081437
_cell_length_b       9.240356731125257
_cell_length_c       9.446334799746058
_cell_angle_alpha    119.26470328835337
_cell_angle_beta     89.99951651870795
_cell_angle_gamma    90.00028735967491

_space_group_name_H-M_alt    "P 1"
_space_group_IT_number       1

loop_
  _space_group_symop_operation_xyz
  'x, y, z'

loop_
  _atom_site_type_symbol
  _atom_site_label
  _atom_site_symmetry_multiplicity
  _atom_site_fract_x
  _atom_site_fract_y
  _atom_site_fract_z
  _atom_site_occupancy
  Zn  Zn1       1.0  0.5000003523523162  0.499998866431966  1.9390955117315215e-06  1.0000
  Zn  Zn2       1.0  1.1581969942999988e-06  3.5271573749977913e-07  0.9999986715973394  1.0000
  H   H1        1.0  0.2500289758889664  0.2087010553469071  0.9174711993511693  1.0000
  H   H2        1.0  0.7500218715832928  0.2912984136660343  0.08252963892417851  1.0000
  H   H3        1.0  0.7499751224754121  0.791299513171225  0.08253148230352994  1.0000
  H   H4        1.0  0.24997440268627005  0.708700916174166  0.9174713902433849  1.0000
  H   H5        1.0  0.44875446055972634  0.5549406469976503  0.3479557541682111  1.0000
  H   H6        1.0  0.9487542948111242  0.9450599876893833  0.6520435020181454  1.0000
  H   H7        1.0  0.050981055501189594  0.2921819197868487  0.34764420381752364  1.0000
  H   H8        1.0  0.5509796407790617  0.20781486813038444  0.652355890069906  1.0000
  H   H9        1.0  0.5512429314401216  0.4450624044544115  0.6520470593865754  1.0000
  H   H10       1.0  0.05124421491120051  0.0549405808259209  0.3479591796576501  1.0000
  H   H11       1.0  0.949016336509615  0.7078149345691003  0.652352462592937  1.0000
  H   H12       1.0  0.4490222221319371  0.7921832211755415  0.34764454427940455  1.0000
  H   H13       1.0  0.24986390545700488  0.5033690697606586  0.5078284504815826  1.0000
  H   H14       1.0  0.7498620740416797  0.9966326074609809  0.49217078682833193  1.0000
  H   H15       1.0  0.7501323688178799  0.4966315024797651  0.4921721157636015  1.0000
  H   H16       1.0  0.2501375534224977  0.003366726107174099  0.5078281268875102  1.0000
  C   C1        1.0  0.23498439543156013  0.37783314691393594  0.7555282558686757  1.0000
  C   C2        1.0  0.7349783209175696  0.12217126712560142  0.24447613290773526  1.0000
  C   C3        1.0  0.2650280129661553  0.8778417291222312  0.7555198040756893  1.0000
  C   C4        1.0  0.7650230561180535  0.6221674216059014  0.24447442577336173  1.0000
  C   C5        1.0  0.24998604958641824  0.27464816998468683  0.04959477680390734  1.0000
  C   C6        1.0  0.7499809682537019  0.2253488179115379  0.9504048721936231  1.0000
  C   C7        1.0  0.7500191665098229  0.7253499193229446  0.9504056575327411  1.0000
  C   C8        1.0  0.2500164237436522  0.7746492713921287  0.04959556217256996  1.0000
  C   C9        1.0  0.357892118858814  0.4675592708772172  0.2879477874962362  1.0000
  C   C10       1.0  0.8578959603137901  0.03243782646897839  0.7120510467032803  1.0000
  C   C11       1.0  0.1419276006230632  0.31967925134328823  0.2877836278107822  1.0000
  C   C12       1.0  0.6419288642274522  0.18031142613377685  0.712212805372417  1.0000
  C   C13       1.0  0.6421063908688183  0.5324425400383177  0.7120544312571796  1.0000
  C   C14       1.0  0.1421047848694172  0.9675615033734815  0.28794998244740105  1.0000
  C   C15       1.0  0.8580720268404961  0.6803188416877646  0.712214691107917  1.0000
  C   C16       1.0  0.3580718809567144  0.8196804623492041  0.2877835972758405  1.0000
  C   C17       1.0  0.2499067910951212  0.43746121389101944  0.37577389003429573  1.0000
  C   C18       1.0  0.7499048624963647  0.0625370144635156  0.6242263543469448  1.0000
  C   C19       1.0  0.7500906009094165  0.5625418394241776  0.6242278658009681  1.0000
  C   C20       1.0  0.2500947649578151  0.9374610748412806  0.3757740800108139  1.0000
  Se  Se1       1.0  0.047302360589846194  0.343884385208085  0.6871647567742301  1.0000
  Se  Se2       1.0  0.5473025650164373  0.15612232327561062  0.3128401232609336  1.0000
  Se  Se3       1.0  0.45269818020837244  0.843875782797916  0.6871507916168582  1.0000
  Se  Se4       1.0  0.9526961491477977  0.6561186699708088  0.3128359413372905  1.0000
  N   N1        1.0  0.3602592457476277  0.4017794051254384  0.8036012149044042  1.0000
  N   N2        1.0  0.8602646487100927  0.09822513784504851  0.19640117019869763  1.0000
  N   N3        1.0  0.1397349787506457  0.9017766749341761  0.803599990830975  1.0000
  N   N4        1.0  0.6397347930845001  0.5982211727032408  0.19639617819063918  1.0000
  N   N5        1.0  0.35376934497013923  0.392514930285664  0.12468628894810513  1.0000
  N   N6        1.0  0.8537643098728009  0.10748588075949073  0.8753164762451817  1.0000
  N   N7        1.0  0.1461341048743634  0.23171620290987963  0.12453464306566531  1.0000
  N   N8        1.0  0.646128795365442  0.26828068151587564  0.8754647323661261  1.0000
  N   N9        1.0  0.6462325179421027  0.6074856400944668  0.8753153349955127  1.0000
  N   N10       1.0  0.14623308212111394  0.8925146877552451  0.12468620543483415  1.0000
  N   N11       1.0  0.85386887576567  0.7682831269337171  0.8754663860765747  1.0000
  N   N12       1.0  0.3538685966306616  0.7317149267135862  0.12453451240576642  1.0000
