data_image0
_chemical_formula_structural       Co2H44C56N8O8
_chemical_formula_sum              "Co2 H44 C56 N8 O8"
_cell_length_a       8.767616073414706
_cell_length_b       9.962468394852795
_cell_length_c       14.538070143980786
_cell_angle_alpha    72.88251851614822
_cell_angle_beta     86.85683927466688
_cell_angle_gamma    90.00060202779432

_space_group_name_H-M_alt    "P 1"
_space_group_IT_number       1

loop_
  _space_group_symop_operation_xyz
  'x, y, z'

loop_
  _atom_site_type_symbol
  _atom_site_label
  _atom_site_symmetry_multiplicity
  _atom_site_fract_x
  _atom_site_fract_y
  _atom_site_fract_z
  _atom_site_occupancy
  Co  Co1       1.0  0.3210012691008899  0.7312814901873068  0.24850011609213854  1.0000
  Co  Co2       1.0  0.6789956904705506  0.26872093990289864  0.7515008223753484  1.0000
  H   H1        1.0  0.2629753855303534  0.572757961167582  0.48603763260405947  1.0000
  H   H2        1.0  0.7370272343494693  0.42723820375293536  0.5139623347400146  1.0000
  H   H3        1.0  0.5606341928071288  0.9003471898017635  0.3241809920825816  1.0000
  H   H4        1.0  0.4393627221410057  0.0996489193367438  0.6758198842521637  1.0000
  H   H5        1.0  0.6216120760109265  0.8366098762421641  0.5182984969703384  1.0000
  H   H6        1.0  0.3783859772457703  0.16338832754846777  0.4817005270014008  1.0000
  H   H7        1.0  0.5377270296552723  0.5764807430350698  0.6607312471467283  1.0000
  H   H8        1.0  0.46227444877943213  0.4235185407337383  0.3392667389743451  1.0000
  H   H9        1.0  0.3473092983859019  0.5296546080711835  0.6494001849636319  1.0000
  H   H10       1.0  0.6526990264256228  0.47034161263133684  0.3505988733897709  1.0000
  H   H11       1.0  0.25696982466077156  0.8611836601154507  0.5741244537065954  1.0000
  H   H12       1.0  0.7430339203821887  0.1388104077079362  0.42587521970811787  1.0000
  H   H13       1.0  0.1559828356173654  0.009195708356763503  0.6717270475921495  1.0000
  H   H14       1.0  0.8440220548499227  0.9908004636409798  0.32827145911190303  1.0000
  H   H15       1.0  0.3706829213110865  0.7468233013613385  0.9194901183229477  1.0000
  H   H16       1.0  0.6293139722897579  0.25317277921045894  0.08050870105475381  1.0000
  H   H17       1.0  0.4763570752528353  0.5998657562541891  0.8191381231295766  1.0000
  H   H18       1.0  0.5236398173836393  0.40012719240846906  0.1808627221387908  1.0000
  H   H19       1.0  0.221868699824185  0.9294490636511692  0.939329154985174  1.0000
  H   H20       1.0  0.7781339311506059  0.07055233381422708  0.0606683500775773  1.0000
  H   H21       1.0  0.2613688954464166  0.0813511263624846  0.8407672127685473  1.0000
  H   H22       1.0  0.7386348515252904  0.9186492052791878  0.15922840886482703  1.0000
  H   H23       1.0  0.037920650330427505  0.21292051217719887  0.7500778082338755  1.0000
  H   H24       1.0  0.9620808524663929  0.7870808912718201  0.24992111280123913  1.0000
  H   H25       1.0  0.9400617465840425  0.8200112379571108  0.9588800814743692  1.0000
  H   H26       1.0  0.0599409493969745  0.17999337711754748  0.0411215685688475  1.0000
  H   H27       1.0  0.6683615581111226  0.956196664566214  0.9014813431781761  1.0000
  H   H28       1.0  0.3316423402203057  0.04381013086069169  0.0985246253731518  1.0000
  H   H29       1.0  0.5686969869314353  0.6281949716436799  0.9514647108130134  1.0000
  H   H30       1.0  0.4313034272454317  0.37181170842278977  0.048535906522538134  1.0000
  H   H31       1.0  0.7933852658534377  0.5195304463996491  0.8981748825614987  1.0000
  H   H32       1.0  0.2066071383115613  0.4804719504916334  0.10182760588134701  1.0000
  H   H33       1.0  0.025304722154054098  0.5571404975325648  0.145235302763183  1.0000
  H   H34       1.0  0.9746762427201364  0.4428586177966237  0.8547682869422815  1.0000
  H   H35       1.0  0.7940646369846575  0.6601615923064585  0.19828547842924144  1.0000
  H   H36       1.0  0.20591977332873063  0.33984280427238633  0.8017162006442575  1.0000
  H   H37       1.0  0.22579802261090987  0.26708448782662936  0.2689445146540734  1.0000
  H   H38       1.0  0.7742034719840588  0.732921078804928  0.7310507909903592  1.0000
  H   H39       1.0  0.14926004171339  0.0240560261612472  0.35424644295232355  1.0000
  H   H40       1.0  0.8507482738101829  0.975948530428589  0.645746070272054  1.0000
  H   H41       1.0  0.9299314063802342  0.16382503572770446  0.5836329111954228  1.0000
  H   H42       1.0  0.0700872124194873  0.8361650577486444  0.4163711682350383  1.0000
  H   H43       1.0  0.005130363738644001  0.4024519852192227  0.4977047665147866  1.0000
  H   H44       1.0  0.9948802256306666  0.5975400603335146  0.5022950752845928  1.0000
  C   C1        1.0  0.35243479636747577  0.6526947810603828  0.4664386071223988  1.0000
  C   C2        1.0  0.6475644084649376  0.34730240451769834  0.5335619616816913  1.0000
  C   C3        1.0  0.5077054153450007  0.8228131979333495  0.38633812764597053  1.0000
  C   C4        1.0  0.4922937793568138  0.17718188700898443  0.6136628775487694  1.0000
  C   C5        1.0  0.5396738666890569  0.792407460271761  0.4816466022950223  1.0000
  C   C6        1.0  0.46032645112542525  0.20758656836908068  0.5183532051226862  1.0000
  C   C7        1.0  0.4270865379887212  0.6196536292708359  0.6354967161108576  1.0000
  C   C8        1.0  0.5729160940721699  0.3803435954897835  0.3645037186902371  1.0000
  C   C9        1.0  0.37159306224018  0.71901446856819  0.6906066951451636  1.0000
  C   C10       1.0  0.6284061283607086  0.2809826979654204  0.3093925023542354  1.0000
  C   C11       1.0  0.2823819151070809  0.835361937411072  0.6497454130550225  1.0000
  C   C12       1.0  0.7176184107875374  0.16463523266114066  0.3502530541243658  1.0000
  C   C13       1.0  0.2252498660668678  0.9188067760477451  0.7051958995134554  1.0000
  C   C14       1.0  0.7747539164836397  0.0811936032051079  0.2948031503816537  1.0000
  C   C15       1.0  0.25615851478673335  0.887533565227663  0.8026040458302718  1.0000
  C   C16       1.0  0.7438406960753455  0.11246780257742019  0.1973942788878276  1.0000
  C   C17       1.0  0.346680737493287  0.7719109928708433  0.8433382541119913  1.0000
  C   C18       1.0  0.6533184632382002  0.22808827429849998  0.15666050699675796  1.0000
  C   C19       1.0  0.4050675441536952  0.6895046326862582  0.7874060081142745  1.0000
  C   C20       1.0  0.5949305111534643  0.3104925303087355  0.2125939197051352  1.0000
  C   C21       1.0  0.1999131411355677  0.979463129890135  0.8633041425579648  1.0000
  C   C22       1.0  0.8000894725928659  0.020536157417282697  0.13669311324309774  1.0000
  C   C23       1.0  0.9739448405471194  0.12507902374636606  0.7987467625084292  1.0000
  C   C24       1.0  0.026054389611779496  0.8749234134210652  0.20125271531904332  1.0000
  C   C25       1.0  0.9186647204081172  0.9207530563300708  0.9075149053183792  1.0000
  C   C26       1.0  0.08133684232963391  0.07925051441034726  0.09248837889251861  1.0000
  C   C27       1.0  0.7856167608489173  0.9889213368923319  0.8781572886449  1.0000
  C   C28       1.0  0.21438597782667299  0.011083335315745999  0.1218484753123974  1.0000
  C   C29       1.0  0.5253611239137541  0.7148771054124975  0.11002652016271955  1.0000
  C   C30       1.0  0.47462898614431037  0.28513360124440357  0.8899695124864239  1.0000
  C   C31       1.0  0.6676792639084825  0.6560667326782407  0.07658347553275041  1.0000
  C   C32       1.0  0.33230631112606085  0.3439408374373015  0.9234181899394542  1.0000
  C   C33       1.0  0.6704227981371602  0.6143644181464936  0.9925318275619048  1.0000
  C   C34       1.0  0.3295719152089376  0.3856401245466969  0.007471506459651801  1.0000
  C   C35       1.0  0.7987845456439616  0.5529816908143842  0.9628648313444045  1.0000
  C   C36       1.0  0.2012055605566232  0.4470164882059535  0.0371393048674165  1.0000
  C   C37       1.0  0.9310385814944482  0.5318204994710172  0.016000636088698183  1.0000
  C   C38       1.0  0.06895383786643813  0.46818504837388275  0.9840011977681656  1.0000
  C   C39       1.0  0.9267545256994152  0.5727740353690007  0.10112108829155629  1.0000
  C   C40       1.0  0.0732275947296941  0.4272292847702842  0.8988808983125979  1.0000
  C   C41       1.0  0.7974324800429642  0.6328031952192177  0.13100181057144764  1.0000
  C   C42       1.0  0.2025496343564797  0.3671959426930513  0.8690024201186972  1.0000
  C   C43       1.0  0.15644341251682192  0.503216210476907  0.32514932930712354  1.0000
  C   C44       1.0  0.8435603649683898  0.4967831184580687  0.6748499387833107  1.0000
  C   C45       1.0  0.1158342276005442  0.35344187293684115  0.37511029052763684  1.0000
  C   C46       1.0  0.8841729984604213  0.6465575237473898  0.6248909005168528  1.0000
  C   C47       1.0  0.15935338517535066  0.2437526200424713  0.33752143895596015  1.0000
  C   C48       1.0  0.8406561165383832  0.7562478340368556  0.6624780732531761  1.0000
  C   C49       1.0  0.11574667740516283  0.10589944122870779  0.38674837230784936  1.0000
  C   C50       1.0  0.8842650857297939  0.8941020512012442  0.6132480897612425  1.0000
  C   C51       1.0  0.0282095098084056  0.0722196838997036  0.47530611189112193  1.0000
  C   C52       1.0  0.9718067925727355  0.9277755588664148  0.524691480679259  1.0000
  C   C53       1.0  0.9935426883573087  0.18275504359291259  0.5144386034887418  1.0000
  C   C54       1.0  0.0064758999289082995  0.8172360525901323  0.48556182948465215  1.0000
  C   C55       1.0  0.0351133612367676  0.3203389730468871  0.4649089946270665  1.0000
  C   C56       1.0  0.9648984020199125  0.6796552147691484  0.5350924230710349  1.0000
  N   N1        1.0  0.3905008215970938  0.7350351939987191  0.37759699161215826  1.0000
  N   N2        1.0  0.6094972408258245  0.2649619785185067  0.622403621859597  1.0000
  N   N3        1.0  0.4407041085192205  0.6839711660900034  0.5313010860492541  1.0000
  N   N4        1.0  0.559296228592082  0.31602393191318606  0.468699874477828  1.0000
  N   N5        1.0  0.03643567443832301  0.0087100384364334  0.8571170078910129  1.0000
  N   N6        1.0  0.9635658354742632  0.991291374534825  0.14288259879645435  1.0000
  N   N7        1.0  0.8215836700613721  0.1165731444720919  0.8101417645427985  1.0000
  N   N8        1.0  0.17841563426997453  0.8834314790312092  0.18986344776514838  1.0000
  O   O1        1.0  0.4060896540278876  0.7259076894900784  0.06490610051888981  1.0000
  O   O2        1.0  0.5939004702617012  0.27410303621129367  0.9350913034349445  1.0000
  O   O3        1.0  0.5315035100133939  0.7478684279924577  0.19039562043474234  1.0000
  O   O4        1.0  0.4684911687182733  0.252139198998698  0.8096022594344134  1.0000
  O   O5        1.0  0.26891229933782773  0.530551462098714  0.2603109338657177  1.0000
  O   O6        1.0  0.7310880346369261  0.4694488494048769  0.7396861930753431  1.0000
  O   O7        1.0  0.08749864071042171  0.6002600011124244  0.3489605225506692  1.0000
  O   O8        1.0  0.9125039709675491  0.3997403269906313  0.6510358294027156  1.0000
