data_image0
_chemical_formula_structural       Cu2H28C32O12
_chemical_formula_sum              "Cu2 H28 C32 O12"
_cell_length_a       5.73143431601817
_cell_length_b       9.194176762435113
_cell_length_c       15.291862938956479
_cell_angle_alpha    104.68790233481462
_cell_angle_beta     100.84297146015902
_cell_angle_gamma    89.98902220210454

_space_group_name_H-M_alt    "P 1"
_space_group_IT_number       1

loop_
  _space_group_symop_operation_xyz
  'x, y, z'

loop_
  _atom_site_type_symbol
  _atom_site_label
  _atom_site_symmetry_multiplicity
  _atom_site_fract_x
  _atom_site_fract_y
  _atom_site_fract_z
  _atom_site_occupancy
  Cu  Cu1       1.0  0.631128810947864  0.1765848641700245  0.4833337699875243  1.0000
  Cu  Cu2       1.0  0.14706332616082557  0.8229169546527332  0.5166507190917642  1.0000
  H   H1        1.0  0.2446888075885738  0.20112251188897554  0.2462073274876246  1.0000
  H   H2        1.0  0.9974190010186275  0.799028917835159  0.7535491434733145  1.0000
  H   H3        1.0  0.7512279484835814  0.5646160804110069  0.2718441925778449  1.0000
  H   H4        1.0  0.4784087419655734  0.4355149734611601  0.728549325661916  1.0000
  H   H5        1.0  0.45903029686913754  0.9394672025814405  0.7970609748536005  1.0000
  H   H6        1.0  0.6610167962242953  0.06036447232028762  0.2021930526751276  1.0000
  H   H7        1.0  0.3908339330763225  0.3090687088099031  0.0033231013319294975  1.0000
  H   H8        1.0  0.38714557236894354  0.6919867790203611  0.9968104234785711  1.0000
  H   H9        1.0  0.5929806254833705  0.9986741870077438  0.665004308710415  1.0000
  H   H10       1.0  0.9259159223061741  0.0008692627883135967  0.334597752364317  1.0000
  H   H11       1.0  0.07080510984398102  0.3537382560491694  0.8509535998158737  1.0000
  H   H12       1.0  0.21897515024437553  0.6458733506755294  0.14930111735698404  1.0000
  H   H13       1.0  0.6829487695775781  0.5143452804682694  0.10197775862580019  1.0000
  H   H14       1.0  0.5799699334863886  0.4862723186126773  0.8984621431377062  1.0000
  H   H15       1.0  0.6292115024582613  0.08804236462147941  0.9574946481716822  1.0000
  H   H16       1.0  0.6724723272698582  0.91206543354793  0.04186682463197404  1.0000
  H   H17       1.0  0.17355833631846448  0.1526895003378073  0.07696687898019407  1.0000
  H   H18       1.0  0.09612861502760241  0.848214782616772  0.9228431517601335  1.0000
  H   H19       1.0  0.9328078534819397  0.2956861401049338  0.9842086433775277  1.0000
  H   H20       1.0  0.9491248321532024  0.7042254447225248  0.01569391588849813  1.0000
  H   H21       1.0  0.6067076471493991  0.5355165977284032  0.40677983434598985  1.0000
  H   H22       1.0  0.1986097075630013  0.4644154262149273  0.5933774660196605  1.0000
  H   H23       1.0  0.07404940769741589  0.2962315133845763  0.6925739690426693  1.0000
  H   H24       1.0  0.38028991515589883  0.703529135874618  0.3075839923876771  1.0000
  H   H25       1.0  0.9016118460097501  0.36965026378034344  0.4007510902621973  1.0000
  H   H26       1.0  0.49971957902588565  0.6300693605120457  0.5993761285428788  1.0000
  H   H27       1.0  0.7629292326540238  0.39687940753672285  0.624443657990497  1.0000
  H   H28       1.0  0.13824915060899198  0.6029512478937705  0.3757701662483655  1.0000
  C   C1        1.0  0.5563368077651488  0.4148300731196387  0.3747806807533749  1.0000
  C   C2        1.0  0.18044123736741108  0.585128168373501  0.6253278552413588  1.0000
  C   C3        1.0  0.33803016161662913  0.3811538852484588  0.411906521880951  1.0000
  C   C4        1.0  0.9248256218765648  0.6188671813436813  0.5881695260893806  1.0000
  C   C5        1.0  0.5023682127969237  0.38685829502347974  0.27069819879500295  1.0000
  C   C6        1.0  0.23063147785303778  0.6132632714138638  0.7293915146050907  1.0000
  C   C7        1.0  0.9844378766118209  0.0791197563777502  0.6004725379403552  1.0000
  C   C8        1.0  0.3831447599118504  0.9207104656884227  0.39976564396744146  1.0000
  C   C9        1.0  0.9165649138394654  0.2175143899370156  0.6685234835107535  1.0000
  C   C10       1.0  0.24693742458373438  0.7823374424316043  0.33162174865474003  1.0000
  C   C11       1.0  0.34073607165412767  0.27064092490344643  0.2150756285298314  1.0000
  C   C12       1.0  0.124791755209678  0.729699351154153  0.7848439728543966  1.0000
  C   C13       1.0  0.624481199467425  0.47410039611786897  0.22911096941435716  1.0000
  C   C14       1.0  0.39432746604673236  0.5261274417469721  0.7711424152808134  1.0000
  C   C15       1.0  0.841749250371656  0.1794233576468898  0.7497716741209856  1.0000
  C   C16       1.0  0.0905942104462412  0.8202135098927741  0.2502299141571029  1.0000
  C   C17       1.0  0.5941435606902983  0.029526302685610503  0.8093904623084853  1.0000
  C   C18       1.0  0.7836328504872083  0.9701339687621345  0.1900853790997985  1.0000
  C   C19       1.0  0.42269505989627015  0.33063500910598254  0.07817641525407029  1.0000
  C   C20       1.0  0.3437303607503921  0.6701148914194662  0.9219326792422606  1.0000
  C   C21       1.0  0.6699476710611093  0.0628123358011266  0.7349486932481353  1.0000
  C   C22       1.0  0.9333087484717028  0.9367478446425184  0.26472021800199036  1.0000
  C   C23       1.0  0.9370250496617128  0.26284444702277204  0.8396235196654441  1.0000
  C   C24       1.0  0.096460882339322  0.7367719620981887  0.1604425006383607  1.0000
  C   C25       1.0  0.585796979572457  0.44556865501265003  0.133172241306255  1.0000
  C   C26       1.0  0.4516097455229583  0.5549339901380536  0.8670871020581004  1.0000
  C   C27       1.0  0.689572618477456  0.11300510969656592  0.8991247121072516  1.0000
  C   C28       1.0  0.7903723018555907  0.8868647669126802  0.10042141383394214  1.0000
  C   C29       1.0  0.30082195811628765  0.24295222444517614  0.11935132905493617  1.0000
  C   C30       1.0  0.1807699394956401  0.7577436744666884  0.8805759759747074  1.0000
  C   C31       1.0  0.8601949722099603  0.22982522703458852  0.9142449205640515  1.0000
  C   C32       1.0  0.9458368706209722  0.7699343079200888  0.08560954401407635  1.0000
  O   O1        1.0  0.7440832150725211  0.3256250995182271  0.40432103648839746  1.0000
  O   O2        1.0  0.33859946801248236  0.6741406903950278  0.595767771415062  1.0000
  O   O3        1.0  0.3477057228799437  0.2917681811085303  0.46343380290571184  1.0000
  O   O4        1.0  0.8829674816127945  0.7082891206942251  0.5366471363568834  1.0000
  O   O5        1.0  0.14810966749217158  0.44590116570649485  0.38935977813057576  1.0000
  O   O6        1.0  0.7575387752937244  0.5540920787387835  0.610668284226449  1.0000
  O   O7        1.0  0.8957592840409276  0.0576031273070114  0.5145936803826243  1.0000
  O   O8        1.0  0.38069169942340136  0.9420554670188185  0.4856172321855965  1.0000
  O   O9        1.0  0.1260557399338182  0.9896791630800057  0.6303304847388844  1.0000
  O   O10       1.0  0.49487307100994116  0.0100853808498584  0.36989753005287435  1.0000
  O   O11       1.0  0.7250065804852851  0.28545901410960545  0.6191005320239922  1.0000
  O   O12       1.0  0.1048797562303676  0.7142867992636113  0.38097025184400474  1.0000
