data_image0
_chemical_formula_structural       Al2H18C26O11
_chemical_formula_sum              "Al2 H18 C26 O11"
_cell_length_a       6.899919598069505
_cell_length_b       11.124892679535275
_cell_length_c       17.591584923662335
_cell_angle_alpha    79.96947590892403
_cell_angle_beta     81.69714750212486
_cell_angle_gamma    72.1318989417503

_space_group_name_H-M_alt    "P 1"
_space_group_IT_number       1

loop_
  _space_group_symop_operation_xyz
  'x, y, z'

loop_
  _atom_site_type_symbol
  _atom_site_label
  _atom_site_symmetry_multiplicity
  _atom_site_fract_x
  _atom_site_fract_y
  _atom_site_fract_z
  _atom_site_occupancy
  Al  Al1       1.0  0.49983608863428947  0.5006122650040227  0.5009110238266957  1.0000
  Al  Al2       1.0  0.0016959227597581556  0.49720834846618817  0.5007081685542475  1.0000
  H   H1        1.0  0.23413447770853676  0.6002626051789408  0.4114415284400368  1.0000
  H   H2        1.0  0.7979628843815689  0.3520788273769355  0.5616678397466259  1.0000
  H   H3        1.0  0.13393527574317693  0.115238097095137  0.4925776632407662  1.0000
  H   H4        1.0  0.7505593999761757  0.12036542746111682  0.505533214097845  1.0000
  H   H5        1.0  0.25732228432007526  0.8796809483193471  0.4953718863153683  1.0000
  H   H6        1.0  0.5458797524439873  0.4898132884386116  0.2581015257885042  1.0000
  H   H7        1.0  0.6383815562607253  0.48777496129135056  0.1145975229307155  1.0000
  H   H8        1.0  0.1514293183638742  0.5014459894852125  0.27921803411522467  1.0000
  H   H9        1.0  0.8509851187863976  0.4953658438904185  0.7206284831617185  1.0000
  H   H10       1.0  0.452130237856224  0.5145183629218196  0.7418269932712749  1.0000
  H   H11       1.0  0.35912161988716923  0.5157568695513819  0.8856049738602962  1.0000
  H   H12       1.0  0.9361175488478891  0.7848949163368462  0.5101532561420755  1.0000
  H   H13       1.0  0.4128511992971439  0.41038531141664697  0.15280326094008967  1.0000
  H   H14       1.0  0.31815560892690087  0.5027837954510731  0.06555388327719673  1.0000
  H   H15       1.0  0.33979883960266477  0.5793077871534039  0.14364631291437044  1.0000
  H   H16       1.0  0.6592894798065743  0.42037160976197907  0.8541115556814208  1.0000
  H   H17       1.0  0.6845513618223434  0.49027256737905145  0.9347054427220984  1.0000
  H   H18       1.0  0.5880744295665393  0.5886726427959844  0.8493743225205606  1.0000
  C   C1        1.0  0.7965928749379856  0.5038642951093524  0.36222585235246657  1.0000
  C   C2        1.0  0.6403060115606323  0.7269452387742422  0.5020821093666898  1.0000
  C   C3        1.0  0.20325175909022164  0.4987137860287447  0.6379299770421272  1.0000
  C   C4        1.0  0.3614374078240275  0.27254762578301245  0.5000538527372813  1.0000
  C   C5        1.0  0.5726717129414994  0.8664294674938091  0.5017008151807689  1.0000
  C   C6        1.0  0.4351386515090497  0.13165558268666183  0.4993920622288286  1.0000
  C   C7        1.0  0.7138438439425413  0.9351480805194544  0.5048292618462754  1.0000
  C   C8        1.0  0.2950689589456843  0.06407490578909861  0.4960435002736504  1.0000
  C   C9        1.0  0.6424014691931248  0.0677689046663659  0.5033504963728961  1.0000
  C   C10       1.0  0.3643749211397919  0.9331346451374145  0.49732196360920977  1.0000
  C   C11       1.0  0.8432398294391987  0.4982134791876193  0.27728742263811773  1.0000
  C   C12       1.0  0.6971823063179343  0.49265387304148334  0.23112919500590584  1.0000
  C   C13       1.0  0.7474380486253621  0.49136394490120255  0.15201339856414361  1.0000
  C   C14       1.0  0.9421073476631888  0.4954372799205445  0.11656915742712931  1.0000
  C   C15       1.0  0.09097279807745909  0.49785760538830465  0.16311664076337715  1.0000
  C   C16       1.0  0.03838106546883319  0.49936765540175554  0.24247195257530768  1.0000
  C   C17       1.0  0.9835415377620366  0.49808968495568007  0.035239528849530195  1.0000
  C   C18       1.0  0.015243546209582222  0.5023627337867185  0.9647760839851004  1.0000
  C   C19       1.0  0.0570102904734071  0.5051508775155257  0.8834273315554101  1.0000
  C   C20       1.0  0.9093629752225069  0.5008002219658466  0.8369166644600342  1.0000
  C   C21       1.0  0.9622295407654065  0.49956488228920665  0.7575356210983416  1.0000
  C   C22       1.0  0.15641276644303287  0.5033368144557074  0.7229012359443631  1.0000
  C   C23       1.0  0.3014995949580239  0.5104143391561423  0.768959268919055  1.0000
  C   C24       1.0  0.2509441296533766  0.5111493364146469  0.8481073405344903  1.0000
  C   C25       1.0  0.30144066888256293  0.49795812317311333  0.12886445996295495  1.0000
  C   C26       1.0  0.6994641295975299  0.4993453025498625  0.8712036296831942  1.0000
  O   O1        1.0  0.6195835213028571  0.499317174137687  0.39363025751035263  1.0000
  O   O2        1.0  0.8329778225017964  0.6699720919279599  0.5076000628238903  1.0000
  O   O3        1.0  0.06146678231738882  0.4861794692229326  0.6034224155816831  1.0000
  O   O4        1.0  0.49445381019724977  0.3278767350700847  0.5062371318501351  1.0000
  O   O5        1.0  0.37831692523637633  0.5061416405843602  0.6062646445376745  1.0000
  O   O6        1.0  0.17029323289963116  0.3259961034509119  0.4954588149440655  1.0000
  O   O7        1.0  0.9403488161812276  0.5146897722873761  0.39663453371252905  1.0000
  O   O8        1.0  0.5088266289211134  0.6714018927558315  0.496053535437355  1.0000
  O   O9        1.0  0.23312413346884145  0.5604748159997825  0.46506267349838765  1.0000
  O   O10       1.0  0.76700967421813  0.4388958010750415  0.5352928202512715  1.0000
  O   O11       1.0  0.9159366056925363  0.8782424981022106  0.5092134135955462  1.0000
