data_image0
_chemical_formula_structural       ZnSiC8S4N4F10
_chemical_formula_sum              "Zn1 Si1 C8 S4 N4 F10"
_cell_length_a       7.7788286608146935
_cell_length_b       8.936199622532458
_cell_length_c       8.936297617725604
_cell_angle_alpha    96.8443514788537
_cell_angle_beta     94.99288616210016
_cell_angle_gamma    94.99228601293831

_space_group_name_H-M_alt    "P 1"
_space_group_IT_number       1

loop_
  _space_group_symop_operation_xyz
  'x, y, z'

loop_
  _atom_site_type_symbol
  _atom_site_label
  _atom_site_symmetry_multiplicity
  _atom_site_fract_x
  _atom_site_fract_y
  _atom_site_fract_z
  _atom_site_occupancy
  Zn  Zn1       1.0  0.5000016747435295  0.5000027374588639  0.499998256416049  1.0000
  Si  Si1       1.0  4.428645889378401e-08  0.5000043879429654  0.4999992557940161  1.0000
  C   C1        1.0  0.3681642931188379  0.4539927166745557  0.1434742896295091  1.0000
  C   C2        1.0  0.6318434889314092  0.5460020744070847  0.856523771167673  1.0000
  C   C3        1.0  0.5878119647033984  0.5264457194393941  0.003936938183322505  1.0000
  C   C4        1.0  0.4121940181836834  0.473544124109317  0.9960563632411306  1.0000
  C   C5        1.0  0.3681687889170107  0.1434759977694071  0.4539831792658617  1.0000
  C   C6        1.0  0.6318220245744044  0.8565187430058286  0.5460231644459909  1.0000
  C   C7        1.0  0.5877847039984089  0.00393698422097802  0.5264566384616104  1.0000
  C   C8        1.0  0.4122109501572595  0.9960580916606575  0.47354735721101093  1.0000
  S   S1        1.0  0.6832161580498736  0.545407456339852  0.1868825284715498  1.0000
  S   S2        1.0  0.3167869617244037  0.4545944848833018  0.8131115290182223  1.0000
  S   S3        1.0  0.6832101308363717  0.1868836046032314  0.5454255590793835  1.0000
  S   S4        1.0  0.3167809167075646  0.8131095578936608  0.4545727845618899  1.0000
  N   N1        1.0  0.49590457786398895  0.48799905645802977  0.2528842129845188  1.0000
  N   N2        1.0  0.5040996749727  0.5120029270425661  0.7471086922428752  1.0000
  N   N3        1.0  0.49590593198608707  0.252888123588022  0.4879985880955999  1.0000
  N   N4        1.0  0.5040842122082196  0.7471085303260097  0.5120033631503844  1.0000
  F   F1        1.0  0.23262288236477965  0.4900803943229661  0.4900669750890856  1.0000
  F   F2        1.0  0.7673798176664163  0.5099395079560977  0.5099281188382676  1.0000
  F   F3        1.0  5.815135324380465e-06  0.37337799844384273  0.6266213790508883  1.0000
  F   F4        1.0  0.9999923033746897  0.6266371614631437  0.37337693431144453  1.0000
  F   F5        1.0  0.047860402157773776  0.6418858714394063  0.6418739674828728  1.0000
  F   F6        1.0  0.9521360451624332  0.3581255464989397  0.358120781789232  1.0000
  F   F7        1.0  0.21095044657764817  0.4031596116273732  0.1725640612966117  1.0000
  F   F8        1.0  0.7890627436945364  0.5968312732915849  0.8274347838673675  1.0000
  F   F9        1.0  0.21094806121654133  0.17256545371520102  0.40313081156020303  1.0000
  F   F10       1.0  0.7890388630883934  0.8274283273774474  0.5968845984443831  1.0000
