data_image0
_chemical_formula_structural       Al6H59C84Cl3O28
_chemical_formula_sum              "Al6 H59 C84 Cl3 O28"
_cell_length_a       12.818687659095474
_cell_length_b       13.18181161658738
_cell_length_c       27.719727948309817
_cell_angle_alpha    89.93798052552351
_cell_angle_beta     90.0099038807049
_cell_angle_gamma    121.01968489419318

_space_group_name_H-M_alt    "P 1"
_space_group_IT_number       1

loop_
  _space_group_symop_operation_xyz
  'x, y, z'

loop_
  _atom_site_type_symbol
  _atom_site_label
  _atom_site_symmetry_multiplicity
  _atom_site_fract_x
  _atom_site_fract_y
  _atom_site_fract_z
  _atom_site_occupancy
  Al  Al1       1.0  0.1510323686537234  0.573122734642034  0.504508100982143  1.0000
  Al  Al2       1.0  0.41143726554949467  0.593932279988948  0.5020305595593371  1.0000
  Al  Al3       1.0  0.4070727610486102  0.8190996644273056  0.5019685149338784  1.0000
  Al  Al4       1.0  0.18336493979717267  0.08278038789215712  0.0126543353909625  1.0000
  Al  Al5       1.0  0.9329950669438462  0.08317855025197937  0.0154927213629392  1.0000
  Al  Al6       1.0  0.9177639742557775  0.848417845735611  0.015550101912509698  1.0000
  H   H1        1.0  0.4595371636705253  0.7065997873828422  0.7311115907066322  1.0000
  H   H2        1.0  0.6247898526342367  0.6674553407220996  0.21966187949732333  1.0000
  H   H3        1.0  0.3351796482422245  0.9633900887111225  0.2183067552341242  1.0000
  H   H4        1.0  0.0355119675685457  0.36658816164627683  0.22110266860681088  1.0000
  H   H5        1.0  0.67920917281139  0.6973015486011888  0.1326580221841027  1.0000
  H   H6        1.0  0.29883634425389255  0.9849210639568753  0.1314007887991124  1.0000
  H   H7        1.0  0.006403213526837755  0.3089983461506095  0.1343500096391779  1.0000
  H   H8        1.0  0.612132165754218  0.9718893963377155  0.2880261672844568  1.0000
  H   H9        1.0  0.0269878472826263  0.6395433334882554  0.2877701557493282  1.0000
  H   H10       1.0  0.3654797143211681  0.38619641983839875  0.2865920180135006  1.0000
  H   H11       1.0  0.7627642675472687  0.04137096955844304  0.234459627442078  1.0000
  H   H12       1.0  0.3001627357915239  0.76505693628944  0.7329653397910576  1.0000
  H   H13       1.0  0.9507853188022468  0.7181437924403582  0.2373256287677492  1.0000
  H   H14       1.0  0.2749955992204746  0.22967440203881043  0.23672714508721526  1.0000
  H   H15       1.0  0.8087390142893938  0.06834082985981381  0.1468484934561118  1.0000
  H   H16       1.0  0.9176438009223773  0.7351811374771489  0.1499269323460766  1.0000
  H   H17       1.0  0.25135904817430793  0.18011064481312644  0.1491919209495478  1.0000
  H   H18       1.0  0.6970012590635758  0.6955412797839382  0.2963067855947585  1.0000
  H   H19       1.0  0.3098245279777672  0.007417579317738883  0.29557986716239526  1.0000
  H   H20       1.0  0.9923641948915501  0.29686189261795454  0.2985713505750737  1.0000
  H   H21       1.0  0.5012027453000626  0.8569442562637305  0.726026932597506  1.0000
  H   H22       1.0  0.14637413678347824  0.6531753526856006  0.7234704244531471  1.0000
  H   H23       1.0  0.24577268696206295  0.534271915101357  0.729740440021267  1.0000
  H   H24       1.0  0.36302150724444715  0.5005797307640306  0.7285586539733302  1.0000
  H   H25       1.0  0.6375112675828092  0.6652316265099144  0.3827883182754448  1.0000
  H   H26       1.0  0.3472945506395106  0.9791756858284587  0.38134003094338453  1.0000
  H   H27       1.0  0.029725958529027707  0.3650510597236831  0.38426405091689736  1.0000
  H   H28       1.0  0.8311983619515786  0.9796572515964285  0.7037091352514864  1.0000
  H   H29       1.0  0.028912294835194464  0.8550770175836817  0.7010959952337145  1.0000
  H   H30       1.0  0.1610643143857473  0.1771326789680288  0.7050509175473323  1.0000
  H   H31       1.0  0.867980048114589  0.9900522984740687  0.7870105731757349  1.0000
  H   H32       1.0  0.0005763391211246645  0.8640616979932005  0.7842519030979958  1.0000
  H   H33       1.0  0.12087440790558186  0.13997643656850298  0.7879253965920086  1.0000
  H   H34       1.0  0.4932450352682097  0.7301793217360669  0.813478654138983  1.0000
  H   H35       1.0  0.7756481554475626  0.7637737138180472  0.7122912956587442  1.0000
  H   H36       1.0  0.24907129251733554  0.019306347235108517  0.7160504193236646  1.0000
  H   H37       1.0  0.990520200489577  0.22358086648655015  0.7078888131445636  1.0000
  H   H38       1.0  0.6405825104775857  0.6678612609037698  0.8035188297716758  1.0000
  H   H39       1.0  0.32705939128205574  0.9738285155283959  0.8095957144799897  1.0000
  H   H40       1.0  0.014697754355765383  0.3553251860957971  0.7977285191780368  1.0000
  H   H41       1.0  0.7968209610809752  0.7723454190905771  0.7965251639819968  1.0000
  H   H42       1.0  0.2200633748465677  0.017404924029094104  0.7997973736173591  1.0000
  H   H43       1.0  0.9653060459203856  0.2039238748752582  0.7920420445352505  1.0000
  H   H44       1.0  0.7170412357399415  0.014975242006293958  0.7125925630634028  1.0000
  H   H45       1.0  0.26334405201684075  0.7646173177164928  0.8147226365619105  1.0000
  H   H46       1.0  0.9889566061781707  0.7056263812881199  0.7062898667957497  1.0000
  H   H47       1.0  0.3120774359289983  0.29117353203122326  0.7171333167951204  1.0000
  H   H48       1.0  0.7643353003785336  0.0393424216592138  0.794720070829463  1.0000
  H   H49       1.0  0.9490122222619134  0.711281406525657  0.7882819242034174  1.0000
  H   H50       1.0  0.2761422727865863  0.2429729992173151  0.7991685560154238  1.0000
  H   H51       1.0  0.6220365757038946  0.6508127626357662  0.7197683171977189  1.0000
  H   H52       1.0  0.36178998015960684  0.9828809711531152  0.7264942767408016  1.0000
  H   H53       1.0  0.026658155743419266  0.3715321512716018  0.7136196102970942  1.0000
  H   H54       1.0  0.22679788695764092  0.5018893395815666  0.8122723938855642  1.0000
  H   H55       1.0  0.5593735609281225  0.9449886258592102  0.37511013401961424  1.0000
  H   H56       1.0  0.06107162130263794  0.6146279905102859  0.3743702804167341  1.0000
  H   H57       1.0  0.39917572204748103  0.4478629764023553  0.37285094889900716  1.0000
  H   H58       1.0  0.9500241235269157  0.5114331587448219  0.48339925336255624  1.0000
  H   H59       1.0  0.3859073393196297  0.20412961962519913  0.0373089775328737  1.0000
  C   C1        1.0  0.2390748129473792  0.7847938055430888  0.5715125679908226  1.0000
  C   C2        1.0  0.7098882252758542  0.8641399784901511  0.8574469639239695  1.0000
  C   C3        1.0  0.11807096962166222  0.8311091114550493  0.8563964292975611  1.0000
  C   C4        1.0  0.14138431248506583  0.2915509638044256  0.8564559752028202  1.0000
  C   C5        1.0  0.624408979022846  0.81348548932241  0.6605944487564271  1.0000
  C   C6        1.0  0.20392390677248057  0.8268742747127787  0.6614796152105596  1.0000
  C   C7        1.0  0.20211316247632274  0.37633170580595277  0.6605361464095907  1.0000
  C   C8        1.0  0.5998753734889275  0.8017789793179231  0.6177949791299113  1.0000
  C   C9        1.0  0.2195385579370851  0.8156384550483936  0.6190553791883247  1.0000
  C   C10       1.0  0.21834531533165363  0.40279004893847775  0.6180644489760994  1.0000
  C   C11       1.0  0.10218986241878983  0.21465402274056095  0.946528581454622  1.0000
  C   C12       1.0  0.23851309289478445  0.4537054041087529  0.5705874862092557  1.0000
  C   C13       1.0  0.783983526365013  0.89736568784825  0.9481730279532528  1.0000
  C   C14       1.0  0.08808353510351456  0.8770176423817946  0.9463799229734278  1.0000
  C   C15       1.0  0.5963449441080753  0.8043377090954137  0.3845022932267028  1.0000
  C   C16       1.0  0.20569406782512092  0.7953512150230255  0.383005859111222  1.0000
  C   C17       1.0  0.21630349105105748  0.4098298595114187  0.383486401230769  1.0000
  C   C18       1.0  0.5910403538425796  0.8918125840481678  0.3575786605480218  1.0000
  C   C19       1.0  0.11417339792691185  0.7002945703613576  0.3566196637657058  1.0000
  C   C20       1.0  0.31028936532711526  0.41375852423819026  0.3561808410795706  1.0000
  C   C21       1.0  0.6212236489813349  0.9067080020532072  0.3088959899032488  1.0000
  C   C22       1.0  0.09517561577833791  0.7151100534219665  0.3084720886184442  1.0000
  C   C23       1.0  0.5499716916222254  0.7765246967440191  0.5698198715085709  1.0000
  C   C24       1.0  0.29064117830780833  0.3785331160183674  0.3081807928774722  1.0000
  C   C25       1.0  0.6588865135582153  0.8360021350373258  0.2856004312663529  1.0000
  C   C26       1.0  0.16570730036932002  0.8253657165355224  0.2854425386582022  1.0000
  C   C27       1.0  0.17655562520859286  0.3372927480947395  0.2863890354404433  1.0000
  C   C28       1.0  0.2304448280933612  0.7739287849880655  0.4331937479504973  1.0000
  C   C29       1.0  0.23962247978884227  0.4585431599286239  0.43320543433962655  1.0000
  C   C30       1.0  0.551219604384862  0.7807831420315383  0.4349737029169845  1.0000
  C   C31       1.0  0.6654196733766683  0.7496038471889578  0.3132005908563613  1.0000
  C   C32       1.0  0.25617531200847315  0.9205759490649899  0.3124765967399554  1.0000
  C   C33       1.0  0.0822482920754624  0.3315742510009656  0.3145150233940299  1.0000
  C   C34       1.0  0.705569059957199  0.7516112351469674  0.7858013058216784  1.0000
  C   C35       1.0  0.6337863347484499  0.7332243958912626  0.36178620232333  1.0000
  C   C36       1.0  0.2766443195940196  0.9057090594201894  0.36053545825532046  1.0000
  C   C37       1.0  0.10184140695486833  0.368012501212135  0.3623582066851654  1.0000
  C   C38       1.0  0.6667908933386713  0.7559835452475241  0.2040778266924974  1.0000
  C   C39       1.0  0.2430793497839687  0.9147772305276405  0.2036798607092081  1.0000
  C   C40       1.0  0.0811974916958319  0.32357041192364017  0.2057179026889457  1.0000
  C   C41       1.0  0.6954035403412672  0.7717741309256422  0.1551903688065366  1.0000
  C   C42       1.0  0.22393828373503785  0.9259265710868122  0.1551132637418817  1.0000
  C   C43       1.0  0.0658531549684298  0.2930910439882268  0.1571229477045293  1.0000
  C   C44       1.0  0.767195078825388  0.980690201949443  0.1631203929406411  1.0000
  C   C45       1.0  0.24491041998359012  0.9524005627525369  0.7891169973755296  1.0000
  C   C46       1.0  0.008758440961635493  0.7838656439673458  0.16531885410586258  1.0000
  C   C47       1.0  0.20535795368446233  0.2217391219872624  0.1654677244452145  1.0000
  C   C48       1.0  0.7405207113722412  0.9647668987880496  0.2121107235724011  1.0000
  C   C49       1.0  0.0280158491506625  0.7743364188461398  0.214020338640708  1.0000
  C   C50       1.0  0.21873072015468142  0.25037216863599804  0.2141403070524319  1.0000
  C   C51       1.0  0.6890685526347085  0.8521217692744755  0.23361439754931007  1.0000
  C   C52       1.0  0.14551164861538285  0.8389145184344501  0.2340614594445114  1.0000
  C   C53       1.0  0.1580267186033169  0.3029541555735094  0.2350911327557554  1.0000
  C   C54       1.0  0.7451900928885208  0.8843085810692344  0.1341592878232802  1.0000
  C   C55       1.0  0.10660168055336763  0.8599624456362917  0.1355190978043339  1.0000
  C   C56       1.0  0.03792913038387983  0.29323088964542887  0.7818124107007804  1.0000
  C   C57       1.0  0.12883578937097437  0.24299969456149734  0.1365445615819354  1.0000
  C   C58       1.0  0.11059482269901363  0.20445424460992706  0.0853414887634401  1.0000
  C   C59       1.0  0.7860732044966314  0.9052285942599174  0.0830867300763742  1.0000
  C   C60       1.0  0.08515203743727534  0.8787319815422664  0.08447763635579258  1.0000
  C   C61       1.0  0.5314263567554534  0.7978306596948457  0.7392634352026093  1.0000
  C   C62       1.0  0.20563661678400522  0.7412500837972827  0.7390479145799632  1.0000
  C   C63       1.0  0.26863200301956874  0.4672609421674991  0.7396129454522439  1.0000
  C   C64       1.0  0.7486947059430592  0.9558186167374957  0.7244947637678081  1.0000
  C   C65       1.0  0.04787801261215201  0.7945961210693325  0.7212984835832117  1.0000
  C   C66       1.0  0.21644985240454417  0.25752868720405075  0.7265372225167184  1.0000
  C   C67       1.0  0.6902206030117171  0.7416988370514233  0.7303899192661588  1.0000
  C   C68       1.0  0.7746058992209015  0.968303069937484  0.7793439648734264  1.0000
  C   C69       1.0  0.02441287028565848  0.7970524629034443  0.7758316696026029  1.0000
  C   C70       1.0  0.19456776382114063  0.2314792795359608  0.7811214209916599  1.0000
  C   C71       1.0  0.7342021988633294  0.8756362366083934  0.9002172610857073  1.0000
  C   C72       1.0  0.10360206603321115  0.8430440070395661  0.8988262812078318  1.0000
  C   C73       1.0  0.12503978719909983  0.2651582825477591  0.8988908581835205  1.0000
  C   C74       1.0  0.6494285003613103  0.8268019880619522  0.7121050172715471  1.0000
  C   C75       1.0  0.18219166393571837  0.8313846540237009  0.712550886679665  1.0000
  C   C76       1.0  0.18396747747490855  0.35118693814484914  0.7117647996577645  1.0000
  C   C77       1.0  0.5533917676111529  0.8129503075107465  0.7942154758128482  1.0000
  C   C78       1.0  0.26677877632318553  0.955535909656156  0.7342274394067303  1.0000
  C   C79       1.0  0.1814849250802337  0.7400406709043992  0.7935415847446734  1.0000
  C   C80       1.0  0.2548202852845947  0.4454795126833631  0.7944840861888167  1.0000
  C   C81       1.0  0.6867104503898818  0.8511345807036934  0.8058136869923871  1.0000
  C   C82       1.0  0.13968005600992223  0.828204192985794  0.8052147331534627  1.0000
  C   C83       1.0  0.157955938861562  0.3147929964059911  0.8050693962544813  1.0000
  C   C84       1.0  0.05096771565830239  0.30752484949508135  0.7264755560448535  1.0000
  Cl  Cl1       1.0  0.5158267859622686  0.9177404816510234  0.8181087567067067  1.0000
  Cl  Cl2       1.0  0.0711025258959593  0.5922336602050818  0.8139524365929134  1.0000
  Cl  Cl3       1.0  0.3990698336409507  0.48611294439835  0.8220491719860163  1.0000
  O   O1        1.0  0.15994557970905993  0.4760950351923939  0.5551183392363157  1.0000
  O   O2        1.0  0.16093636510713344  0.4760036046266123  0.4523770884428018  1.0000
  O   O3        1.0  0.5327152203894556  0.6854231950153888  0.45515105175092435  1.0000
  O   O4        1.0  0.33096390716045937  0.8540632701370044  0.45275933207447133  1.0000
  O   O5        1.0  0.1541346545109048  0.6769138486511749  0.4528992399853635  1.0000
  O   O6        1.0  0.3421408124489459  0.4842787331861657  0.45274215621804353  1.0000
  O   O7        1.0  0.5268997988064256  0.8541645213243212  0.4546915447711939  1.0000
  O   O8        1.0  0.3252617786065457  0.6632845921141453  0.5029367020952549  1.0000
  O   O9        1.0  0.009244006417681298  0.003959173980888399  0.014617623731155  1.0000
  O   O10       1.0  0.1768297520009979  0.18849656186385025  0.9631537337844093  1.0000
  O   O11       1.0  0.8095035104534102  0.9943819440309055  0.9684907194422294  1.0000
  O   O12       1.0  0.5281866469125802  0.6789592912015223  0.5508775574799927  1.0000
  O   O13       1.0  0.9925082555475345  0.8024222633519288  0.9702717358829531  1.0000
  O   O14       1.0  0.16850472972250677  0.9675352495117481  0.0625520027361617  1.0000
  O   O15       1.0  0.018185927371796046  0.19656813625363162  0.0631226520071522  1.0000
  O   O16       1.0  0.7953708974604936  0.8248222095029689  0.0612084131945068  1.0000
  O   O17       1.0  0.18380850345046437  0.1775553853598595  0.0673632836605265  1.0000
  O   O18       1.0  0.8165090525900993  0.006055136319346847  0.06463394809333779  1.0000
  O   O19       1.0  0.9791687326340293  0.8046302411928463  0.0666577365012984  1.0000
  O   O20       1.0  0.3354212899250513  0.8633675336047234  0.5488172349489702  1.0000
  O   O21       1.0  0.16788566717723824  0.9797950103803076  0.959792804931034  1.0000
  O   O22       1.0  0.0031967985602250363  0.19552615288665726  0.9672717147448253  1.0000
  O   O23       1.0  0.8049079038798581  0.8196481132296114  0.9657668214447668  1.0000
  O   O24       1.0  0.16319547604999934  0.6821727361240305  0.5567519222944881  1.0000
  O   O25       1.0  0.33726071812700537  0.47646611140297773  0.548826494764505  1.0000
  O   O26       1.0  0.525524909723288  0.8501902004155968  0.550753704888038  1.0000
  O   O27       1.0  0.991518324856422  0.490242652670233  0.5067681333144449  1.0000
  O   O28       1.0  0.3423833818831383  0.15412463052062725  0.0101840170572913  1.0000
