data_image0
_chemical_formula_structural       Zn4H52C44Br4N20Cl4O4
_chemical_formula_sum              "Zn4 H52 C44 Br4 N20 Cl4 O4"
_cell_length_a       7.948101287021809
_cell_length_b       8.758683764
_cell_length_c       21.113
_cell_angle_alpha    90.0
_cell_angle_beta     92.1760192667753
_cell_angle_gamma    90.0

_space_group_name_H-M_alt    "P 1"
_space_group_IT_number       1

loop_
  _space_group_symop_operation_xyz
  'x, y, z'

loop_
  _atom_site_type_symbol
  _atom_site_label
  _atom_site_symmetry_multiplicity
  _atom_site_fract_x
  _atom_site_fract_y
  _atom_site_fract_z
  _atom_site_occupancy
  Zn  Zn1       1.0  0.3064173587207506  0.7855095794505473  0.21590690423051484  1.0000
  Zn  Zn2       1.0  0.6935826566399046  0.7855072960024287  0.2840929065323152  1.0000
  Zn  Zn3       1.0  0.6935851747799975  0.2144911325285719  0.7840938898098884  1.0000
  Zn  Zn4       1.0  0.306418617790797  0.2144911325285719  0.7159064485856419  1.0000
  H   H1        1.0  0.0887279251438571  0.11705982629651861  0.4769240205379361  1.0000
  H   H2        1.0  0.9112733492868443  0.11705982629651861  0.023076281863680503  1.0000
  H   H3        1.0  0.9112708311467514  0.8829408856826007  0.5230771931534336  1.0000
  H   H4        1.0  0.0887279251438571  0.8829397439585449  0.9769225996124434  1.0000
  H   H5        1.0  0.1281808850051149  0.3498516538060983  0.2988544118108365  1.0000
  H   H6        1.0  0.8718140940753616  0.3498459451857912  0.20114627424784004  1.0000
  H   H7        1.0  0.8718203894255865  0.6501479164489652  0.7011463642326136  1.0000
  H   H8        1.0  0.128178366865022  0.6501501998970909  0.7988529548914303  1.0000
  H   H9        1.0  0.22752402969868515  0.2387345012494251  0.21276386902982133  1.0000
  H   H10       1.0  0.7724785038020627  0.2387265091809994  0.28723597772691534  1.0000
  H   H11       1.0  0.7724785038020627  0.761267352453757  0.7872378722942487  1.0000
  H   H12       1.0  0.22751773434846007  0.7612684941778198  0.7127623581195479  1.0000
  H   H13       1.0  0.27976284586730327  0.1593903875988829  0.1160388627955697  1.0000
  H   H14       1.0  0.7202346513532663  0.1593903875988829  0.3839590174060206  1.0000
  H   H15       1.0  0.7202359104233127  0.8406114661043063  0.8839623508957999  1.0000
  H   H16       1.0  0.2797653640073889  0.8406091826561806  0.6160384251476501  1.0000
  H   H17       1.0  0.4817818936636513  0.0830227485765391  0.1363991394193675  1.0000
  H   H18       1.0  0.5182118263467785  0.083023890300602  0.3636015286423487  1.0000
  H   H19       1.0  0.5182168626269572  0.9169791051266429  0.8636016006301689  1.0000
  H   H20       1.0  0.4817856708737907  0.9169768216785243  0.6363987197684013  1.0000
  H   H21       1.0  0.3649653748850525  0.9481378964877081  0.04247389952281111  1.0000
  H   H22       1.0  0.6350321223355169  0.9481378964877081  0.45752682252977195  1.0000
  H   H23       1.0  0.6350321223355169  0.0518639572154811  0.957526822529772  1.0000
  H   H24       1.0  0.3649704111652312  0.0518628154914182  0.5424730242269646  1.0000
  H   H25       1.0  0.1755042917179068  0.908007437451765  0.081656549906711  1.0000
  H   H26       1.0  0.8244932055026624  0.9080108626239465  0.41834322486221254  1.0000
  H   H27       1.0  0.8244944645727088  0.0919944162514241  0.918345137426492  1.0000
  H   H28       1.0  0.1755080689280391  0.09199327452736131  0.5816551829720781  1.0000
  H   H29       1.0  0.2029268372988255  0.64052546605906  0.06935255428034993  1.0000
  H   H30       1.0  0.7970744371318761  0.64052546605906  0.43064585355394064  1.0000
  H   H31       1.0  0.7970719189917832  0.359477529368192  0.9306486594110197  1.0000
  H   H32       1.0  0.2029318735790042  0.35947638764412915  0.5693521526263369  1.0000
  H   H33       1.0  0.3835568031700803  0.6790963300270576  0.02541856076358331  1.0000
  H   H34       1.0  0.6164469894007141  0.6790929048548762  0.4745813039901138  1.0000
  H   H35       1.0  0.6164406940504892  0.3209055236761245  0.9745816876471736  1.0000
  H   H36       1.0  0.383561839450259  0.3209043819520616  0.5254186327514037  1.0000
  H   H37       1.0  0.5560305132895778  0.5136970486927623  0.10500697316741281  1.0000
  H   H38       1.0  0.4439707611411237  0.5136981904168252  0.3949923819505372  1.0000
  H   H39       1.0  0.4439695020710772  0.48630594673448974  0.8949947321627434  1.0000
  H   H40       1.0  0.5560355495697564  0.4863048050104268  0.6050065715133996  1.0000
  H   H41       1.0  0.3989665614512959  0.4139297750309794  0.0594464321846289  1.0000
  H   H42       1.0  0.6010334539093591  0.4139274915828537  0.4405524312945347  1.0000
  H   H43       1.0  0.6010334539093591  0.5860720786722098  0.9405547995036941  1.0000
  H   H44       1.0  0.3989703386614282  0.5860709369481469  0.5594460125336626  1.0000
  H   H45       1.0  0.3628879093107358  0.4613684097842707  0.1393693217732803  1.0000
  H   H46       1.0  0.6371121060499192  0.4613684097842707  0.3606295417058832  1.0000
  H   H47       1.0  0.6371108469798727  0.5386345856429742  0.8606318919180895  1.0000
  H   H48       1.0  0.3628942046609609  0.5386323021948556  0.6393689381162205  1.0000
  H   H49       1.0  0.508724733557415  0.7886881392376281  0.12293354816659981  1.0000
  H   H50       1.0  0.4912740227331939  0.7886869975135654  0.37706624459927707  1.0000
  H   H51       1.0  0.4912752818032403  0.2113137144655539  0.8770667362380636  1.0000
  H   H52       1.0  0.5087285107675543  0.2113114310174353  0.6229336021574597  1.0000
  C   C1        1.0  0.196333087472965  0.1105360150093873  0.2982674455139573  1.0000
  C   C2        1.0  0.8036669278876902  0.1105280229409615  0.201732838890706  1.0000
  C   C3        1.0  0.8036694460277831  0.889464696969732  0.7017342958101125  1.0000
  C   C4        1.0  0.1963305693328721  0.8894658386937948  0.7982659885945509  1.0000
  C   C5        1.0  0.218594704939278  0.971400524239776  0.3341537830542691  1.0000
  C   C6        1.0  0.7814015332112447  0.9713959573435318  0.1658455000758607  1.0000
  C   C7        1.0  0.781405310421377  0.0285990460152874  0.6658474486340539  1.0000
  C   C8        1.0  0.2185972230793638  0.0286001877393502  0.8341533454063494  1.0000
  C   C9        1.0  0.1766626361593353  0.9822263517904516  0.399521352262397  1.0000
  C   C10       1.0  0.8233373792013197  0.9822229266182703  0.1004770375749402  1.0000
  C   C11       1.0  0.8233361201312732  0.0177743601886675  0.6004798614289726  1.0000
  C   C12       1.0  0.1766651542994282  0.0177755019127304  0.899520440972644  1.0000
  C   C13       1.0  0.1199453078405242  0.1145937023237877  0.427231459985407  1.0000
  C   C14       1.0  0.8800547075201308  0.11459027715159918  0.0727683507774231  1.0000
  C   C15       1.0  0.8800547075201308  0.8854070096553386  0.5727692980610827  1.0000
  C   C16       1.0  0.1199453078405242  0.8854081513794014  0.9272309863435811  1.0000
  C   C17       1.0  0.10187513455414182  0.24764451582499453  0.3904137019540813  1.0000
  C   C18       1.0  0.8981261398765596  0.2476399489287431  0.10958612680570211  1.0000
  C   C19       1.0  0.8981248808065132  0.7523561961541319  0.6095870560924086  1.0000
  C   C20       1.0  0.10187387548409532  0.7523573378781947  0.8904127366734614  1.0000
  C   C21       1.0  0.1393828311958174  0.2456784669911727  0.3270323396530729  1.0000
  C   C22       1.0  0.8606134069547056  0.2456716166468027  0.172968364402557  1.0000
  C   C23       1.0  0.8606171841648376  0.7543222449879536  0.6729688920352572  1.0000
  C   C24       1.0  0.1393828311958174  0.7543245284360722  0.8270313923694063  1.0000
  C   C25       1.0  0.2398969110312663  0.1233644265638532  0.23295398707869452  1.0000
  C   C26       1.0  0.7600993271192493  0.12335985966760889  0.2670452960514353  1.0000
  C   C27       1.0  0.760104363399428  0.8766351436912103  0.767047262606589  1.0000
  C   C28       1.0  0.239895651961227  0.8766374271393289  0.7329525481562416  1.0000
  C   C29       1.0  0.346041552108133  0.0566420724126502  0.13379626276912404  1.0000
  C   C30       1.0  0.6539546860423897  0.0566409306885873  0.36620302036100594  1.0000
  C   C31       1.0  0.6539584632525219  0.9433597812905319  0.8662040216355394  1.0000
  C   C32       1.0  0.3460440702482259  0.9433586395664761  0.6337958251212044  1.0000
  C   C33       1.0  0.3123513558430133  0.9233818936632615  0.08901640061925781  1.0000
  C   C34       1.0  0.687646141377556  0.9233818936632615  0.41098384779149205  1.0000
  C   C35       1.0  0.6876486595176416  0.0766199600399204  0.9109848310690652  1.0000
  C   C36       1.0  0.312356392123192  0.0766188183158647  0.5890155253234185  1.0000
  C   C37       1.0  0.3407232402378924  0.6510179101837963  0.07329301869835801  1.0000
  C   C38       1.0  0.6592792932628484  0.6510179101837963  0.4267063544165524  1.0000
  C   C39       1.0  0.6592755160527162  0.3489839435193929  0.9267077213511783  1.0000
  C   C40       1.0  0.3407270174480317  0.3489816600712672  0.5732935463310582  1.0000
  C   C41       1.0  0.419507030166038  0.5020126446478699  0.09595468898809402  1.0000
  C   C42       1.0  0.5804942442646563  0.5020137863719327  0.40404419248802276  1.0000
  C   C43       1.0  0.5804917261245706  0.49799035077937504  0.9040465247032757  1.0000
  C   C44       1.0  0.4195120664462237  0.49798692560719365  0.5959547609759142  1.0000
  Br  Br1       1.0  0.2027090181810323  0.8021833176439799  0.4497558254990182  1.0000
  Br  Br2       1.0  0.7972784064791725  0.80217646729961  0.05024522621975791  1.0000
  Br  Br3       1.0  0.797279665549212  0.197819677783265  0.5502471387840373  1.0000
  Br  Br4       1.0  0.2027203498114361  0.197819677783265  0.9497531456206192  1.0000
  N   N1        1.0  0.2950958008757709  0.0156644541231117  0.19723089003756664  1.0000
  N   N2        1.0  0.7048941419245267  0.0156576037787417  0.30276877674962327  1.0000
  N   N3        1.0  0.7049029554148376  0.9843385413041404  0.8027703236538102  1.0000
  N   N4        1.0  0.2950983190158567  0.9843373995800776  0.6972304523896398  1.0000
  N   N5        1.0  0.3797984790856432  0.7802176884257221  0.1163542776398145  1.0000
  N   N6        1.0  0.6202002772049726  0.7802176884257221  0.3836455151260623  1.0000
  N   N7        1.0  0.6202015362750117  0.2197841652774599  0.883646006764849  1.0000
  N   N8        1.0  0.37980225629577563  0.2197830235534042  0.6163543316306744  1.0000
  N   N9        1.0  0.5000006372153507  0.6506696843450541  0.24999967755897498  1.0000
  N   N10       1.0  0.5000006372153507  0.3493298859100094  0.7500006248426416  1.0000
  N   N11       1.0  0.5000006372153507  0.5128304801301198  0.24999920391714175  1.0000
  N   N12       1.0  0.5000018962853972  0.4871690901249437  0.7500001691977616  1.0000
  N   N13       1.0  0.5000018962853972  0.3802774583197035  0.24999874827226884  1.0000
  N   N14       1.0  0.5000006372153507  0.6197198284872344  0.7499996775589751  1.0000
  N   N15       1.0  0.10197208294761143  0.6444746895876179  0.21064764585916151  1.0000
  N   N16       1.0  0.8980291914830902  0.6444724061394922  0.2893526565424551  1.0000
  N   N17       1.0  0.8980304505531367  0.3555271641155713  0.789351727255749  1.0000
  N   N18       1.0  0.10197082387756502  0.3555248806674456  0.7106466805785416  1.0000
  N   N19       1.0  0.9999987409299536  0.647492266282029  0.25000092928670636  1.0000
  N   N20       1.0  0.0  0.3525073039730344  0.7499995263581668  1.0000
  Cl  Cl1       1.0  0.03671825972343611  0.4145794160219438  0.4261000832060303  1.0000
  Cl  Cl2       1.0  0.9632767193570402  0.4145759908497624  0.0739015501363056  1.0000
  Cl  Cl3       1.0  0.963279237497126  0.5854224376812454  0.5739001652047193  1.0000
  Cl  Cl4       1.0  0.03671825972343611  0.5854235794053011  0.9260996095641975  1.0000
  O   O1        1.0  0.2771628662242946  0.8458462709260601  0.3117076622339995  1.0000
  O   O2        1.0  0.7228384082063997  0.8458417040298087  0.1882916928839578  1.0000
  O   O3        1.0  0.7228384082063997  0.1541532993290033  0.6882935874512839  1.0000
  O   O4        1.0  0.277166643434434  0.1541532993290033  0.8117072425830331  1.0000
