data_image0
_chemical_formula_structural       K2H22C18N32O10
_chemical_formula_sum              "K2 H22 C18 N32 O10"
_cell_length_a       7.970482543136237
_cell_length_b       9.73810322763106
_cell_length_c       12.45202275241919
_cell_angle_alpha    84.09125269634194
_cell_angle_beta     86.35537135479356
_cell_angle_gamma    69.67102243415678

_space_group_name_H-M_alt    "P 1"
_space_group_IT_number       1

loop_
  _space_group_symop_operation_xyz
  'x, y, z'

loop_
  _atom_site_type_symbol
  _atom_site_label
  _atom_site_symmetry_multiplicity
  _atom_site_fract_x
  _atom_site_fract_y
  _atom_site_fract_z
  _atom_site_occupancy
  K   K1        1.0  0.41364330100312674  0.5217834941208609  0.3315279203397026  1.0000
  K   K2        1.0  0.5863571938868474  0.47821715167989953  0.6684734432789912  1.0000
  H   H1        1.0  0.6938581586959174  0.8245139580661699  0.5823845402510417  1.0000
  H   H2        1.0  0.3061410847420447  0.17548669366820488  0.41761526504328833  1.0000
  H   H3        1.0  0.1910215797660797  0.9257926627121688  0.2937244685719663  1.0000
  H   H4        1.0  0.8089776612908038  0.07420798492153581  0.7062761402219098  1.0000
  H   H5        1.0  0.6666680413323647  0.019562802421951596  0.08086953491702792  1.0000
  H   H6        1.0  0.3333299458914283  0.9804378470446973  0.9191303190520376  1.0000
  H   H7        1.0  0.7906175142367075  0.7383013711818974  0.8727617145789782  1.0000
  H   H8        1.0  0.20938172682017606  0.2616992764518073  0.12723889421489795  1.0000
  H   H9        1.0  0.5138221903857102  0.9292766205068471  0.40038623082167407  1.0000
  H   H10       1.0  0.48618002295989265  0.07072292835614749  0.5996151508178544  1.0000
  H   H11       1.0  0.6003943110603415  0.7353763663054452  0.4377563920886801  1.0000
  H   H12       1.0  0.39960790228525406  0.26462318255754985  0.5622449895508483  1.0000
  H   H13       1.0  0.3688803972293041  0.8342630202305087  0.45814979026003766  1.0000
  H   H14       1.0  0.631121816116291  0.16573652863249316  0.5418515913794837  1.0000
  H   H15       1.0  0.3580118263362163  0.7068005480472407  0.06765787021667084  1.0000
  H   H16       1.0  0.6419874171017453  0.29320010368713406  0.9323419350776592  1.0000
  H   H17       1.0  0.7872151934829643  0.309615194293599  0.18878226928776345  1.0000
  H   H18       1.0  0.21278530855023084  0.6903854638091785  0.8112166838322923  1.0000
  H   H19       1.0  0.07283316577962745  0.43549020834250735  0.7046450335586771  1.0000
  H   H20       1.0  0.9271665398997865  0.5645093441863835  0.29535483843122295  1.0000
  H   H21       1.0  0.5452580615097914  0.8080454474169159  0.24928282198670368  1.0000
  H   H22       1.0  0.4547416417885515  0.19195410101130514  0.7507178535027423  1.0000
  C   C1        1.0  0.11434461252589036  0.5943803837585478  0.5740947631995683  1.0000
  C   C2        1.0  0.8856546309120646  0.4056202679758272  0.42590504209476193  1.0000
  C   C3        1.0  0.8204103944257283  0.7355013612060831  0.5932477752513068  1.0000
  C   C4        1.0  0.1795910320903857  0.2644970984857196  0.40675131125987474  1.0000
  C   C5        1.0  0.7602990893435261  0.14371504539838745  0.3075380683997083  1.0000
  C   C6        1.0  0.23970141030859057  0.8562856086037202  0.6924616882198936  1.0000
  C   C7        1.0  0.05980386769465439  0.012498932980470598  0.2861240404069677  1.0000
  C   C8        1.0  0.9401966319574694  0.9875017210216301  0.713875716212634  1.0000
  C   C9        1.0  0.0323858161092261  0.7400845456474981  0.1521927520993246  1.0000
  C   C10       1.0  0.9676135554578805  0.259912802102022  0.8478081054559754  1.0000
  C   C11       1.0  0.7669090664559093  0.9183762385441268  0.11333607839515032  1.0000
  C   C12       1.0  0.23309063684243367  0.08162330988408678  0.8866645970942958  1.0000
  C   C13       1.0  0.6302652473505785  0.5707203188812002  0.07744426079293022  1.0000
  C   C14       1.0  0.36973731439377383  0.42928145936521384  0.9225513142839221  1.0000
  C   C15       1.0  0.7089204036125732  0.7019934719313596  0.9345466097194548  1.0000
  C   C16       1.0  0.2910805606620811  0.2980060869659269  0.06545241009616384  1.0000
  C   C17       1.0  0.48489597405185253  0.8260942088835249  0.4036848179267168  1.0000
  C   C18       1.0  0.515105777052284  0.17390643918495394  0.5963164970172488  1.0000
  N   N1        1.0  0.02511809865553267  0.5359292748209085  0.65191389256362  1.0000
  N   N2        1.0  0.9748824057587342  0.4640713873825461  0.34808425705688967  1.0000
  N   N3        1.0  0.847814389357488  0.6216162709742717  0.6635153722018146  1.0000
  N   N4        1.0  0.1521878311313215  0.37838329019074723  0.3364835989390756  1.0000
  N   N5        1.0  0.9775977858363659  0.7259307594728169  0.5349014031086841  1.0000
  N   N6        1.0  0.0224027161968223  0.27406989862996056  0.4650975500113719  1.0000
  N   N7        1.0  0.012765771403543612  0.8143784302802428  0.45075041957507994  1.0000
  N   N8        1.0  0.9872347306296515  0.18562222782253454  0.549248533544983  1.0000
  N   N9        1.0  0.8736376326352228  0.922635190756729  0.4264530563367118  1.0000
  N   N10       1.0  0.12636161080273203  0.07736546097764568  0.5735467489576183  1.0000
  N   N11       1.0  0.9038585342045093  0.0136813079688594  0.3438681331569314  1.0000
  N   N12       1.0  0.0961419630665361  0.986319341932571  0.6561324269622163  1.0000
  N   N13       1.0  0.8468091184300234  0.2078537719002256  0.2309323252812093  1.0000
  N   N14       1.0  0.1531901250079314  0.7921468798341493  0.769067480013128  1.0000
  N   N15       1.0  0.02603545654237388  0.12991986171412154  0.21847720695329545  1.0000
  N   N16       1.0  0.9739655053512094  0.870079693082495  0.7815226163618694  1.0000
  N   N17       1.0  0.8988978287146094  0.7097521631791252  0.2103275729112611  1.0000
  N   N18       1.0  0.10110061598849998  0.2902473788806929  0.7896739547524522  1.0000
  N   N19       1.0  0.7379932712664823  0.8200412615565114  0.18493224795579988  1.0000
  N   N20       1.0  0.26200517819876973  0.1799582887046539  0.8150676727088356  1.0000
  N   N21       1.0  0.9485887708487296  0.8751257602982817  0.08880073377660842  1.0000
  N   N22       1.0  0.05141093244961328  0.1248737881299391  0.9111999417128306  1.0000
  N   N23       1.0  0.04752008573105114  0.9387039893231302  0.02230279540142283  1.0000
  N   N24       1.0  0.9524791553258324  0.061296658310574494  0.9776978133924603  1.0000
  N   N25       1.0  0.4891208695225868  0.6837311250065594  0.0364628277273624  1.0000
  N   N26       1.0  0.5108788385379054  0.3162684316230012  0.9635362407629917  1.0000
  N   N27       1.0  0.5362620398099125  0.7634249044813686  0.9498440804142381  1.0000
  N   N28       1.0  0.4637384598422044  0.2365757495207319  0.050155676205363924  1.0000
  N   N29       1.0  0.7746264988104767  0.5824475990575166  0.010394714611507516  1.0000
  N   N30       1.0  0.22537320686893733  0.41755195347137425  0.9896051573783854  1.0000
  N   N31       1.0  0.9413851904277306  0.4850772965447519  0.030402364133159696  1.0000
  N   N32       1.0  0.05861451525168354  0.514922255984139  0.9695975078567403  1.0000
  O   O1        1.0  0.27321209359151055  0.5495346223791486  0.5425335402817242  1.0000
  O   O2        1.0  0.7267888706831441  0.45046493651814506  0.4574654795338945  1.0000
  O   O3        1.0  0.6029824476962132  0.1841958374923252  0.33949479462620513  1.0000
  O   O4        1.0  0.39701804957483217  0.8158048124091052  0.6605057654929356  1.0000
  O   O5        1.0  0.1975327921432494  0.6692852270639875  0.15054886581364008  1.0000
  O   O6        1.0  0.8024669087740223  0.3307143172635562  0.8494526131753449  1.0000
  O   O7        1.0  0.6357925912948373  0.47836990625882686  0.15505882044159597  1.0000
  O   O8        1.0  0.36420804124857376  0.521627451959766  0.8449403814398838  1.0000
  O   O9        1.0  0.4455574758887336  0.7973445087874822  0.2994944675802956  1.0000
  O   O10       1.0  0.554443021382319  0.2026561411139483  0.7005060925388522  1.0000
