data_image0
_chemical_formula_structural       Dy2H30C46Cl12O14
_chemical_formula_sum              "Dy2 H30 C46 Cl12 O14"
_cell_length_a       9.216749739398615
_cell_length_b       10.614265636152604
_cell_length_c       14.294
_cell_angle_alpha    77.94897531306447
_cell_angle_beta     86.51793122156049
_cell_angle_gamma    75.5961071433024

_space_group_name_H-M_alt    "P 1"
_space_group_IT_number       1

loop_
  _space_group_symop_operation_xyz
  'x, y, z'

loop_
  _atom_site_type_symbol
  _atom_site_label
  _atom_site_symmetry_multiplicity
  _atom_site_fract_x
  _atom_site_fract_y
  _atom_site_fract_z
  _atom_site_occupancy
  Dy  Dy1       1.0  0.21908657152217603  0.45363400324930586  0.993353893548125  1.0000
  Dy  Dy2       1.0  0.780917198469929  0.5463633422208432  0.006646020558029871  1.0000
  H   H1        1.0  0.47359827584071473  0.149650274548101  0.7743429543163528  1.0000
  H   H2        1.0  0.5263910890826509  0.8503440924317331  0.22565658651229367  1.0000
  H   H3        1.0  0.5377467373102363  0.2735713569266096  0.6916461528697366  1.0000
  H   H4        1.0  0.46223882480799006  0.7264249957134368  0.30835252944487473  1.0000
  H   H5        1.0  0.34558136753602037  0.3035667400571356  0.7273856403242576  1.0000
  H   H6        1.0  0.6544066394787292  0.6964286197528011  0.2726172977310383  1.0000
  H   H7        1.0  0.6134843845101584  0.2730789131945599  0.8568521214381875  1.0000
  H   H8        1.0  0.3865104153527881  0.7269154537852742  0.14314720654417806  1.0000
  H   H9        1.0  0.4837919478790694  0.4241330495110418  0.8101138560096287  1.0000
  H   H10       1.0  0.5161979588856838  0.5758593318085801  0.18988737063506986  1.0000
  H   H11       1.0  0.7984357472779634  0.21540144107802206  0.008884000594257199  1.0000
  H   H12       1.0  0.20155607245733628  0.7846038470329617  0.9911186480960906  1.0000
  H   H13       1.0  0.8312655285881334  0.8194988467313777  0.1747960656906001  1.0000
  H   H14       1.0  0.16872629114716628  0.180506441379606  0.8252142785363359  1.0000
  H   H15       1.0  0.19484113353406943  0.0106649809872934  0.17381806940797156  1.0000
  H   H16       1.0  0.8051495992133154  0.9893403071236975  0.8261860210401009  1.0000
  H   H17       1.0  0.7792910094883326  0.4532388568675429  0.3125989496338164  1.0000
  H   H18       1.0  0.2207179278277991  0.5467634527531331  0.6873915973570275  1.0000
  H   H19       1.0  0.038049683521684585  0.28563722119197626  0.5707280441239957  1.0000
  H   H20       1.0  0.9619646854288887  0.7143611171082753  0.42926290584497195  1.0000
  H   H21       1.0  0.25593947728548727  0.41437849372998414  0.3039109989868223  1.0000
  H   H22       1.0  0.7440667442134127  0.585625801550897  0.6960800461091948  1.0000
  H   H23       1.0  0.2053256177252862  0.7524500512542929  0.7626853942297629  1.0000
  H   H24       1.0  0.7946702724307073  0.2475482870459587  0.23731397495317447  1.0000
  H   H25       1.0  0.3888989248801309  0.0410465750286377  0.5642924291370334  1.0000
  H   H26       1.0  0.6111029420568316  0.9589497776114017  0.43570911260989215  1.0000
  H   H27       1.0  0.6594713729510601  0.774362804500484  0.7953238049637861  1.0000
  H   H28       1.0  0.34052343352215797  0.225639505120192  0.2046812873121198  1.0000
  H   H29       1.0  0.40188253455445283  0.2073446247764181  0.9388413975535455  1.0000
  H   H30       1.0  0.5981179678636295  0.792644778052896  0.06116337388037605  1.0000
  C   C1        1.0  0.4606625216944451  0.2573365990505891  0.7521483505834325  1.0000
  C   C2        1.0  0.5393257562410056  0.742657767929245  0.24785263200293872  1.0000
  C   C3        1.0  0.4972429310928916  0.316769394792658  0.8327496602097639  1.0000
  C   C4        1.0  0.5027502366356059  0.6832229865269639  0.16725143872715606  1.0000
  C   C5        1.0  0.0684091268858396  0.2417283169707858  0.05478152895127407  1.0000
  C   C6        1.0  0.9315979040700099  0.7582690284993632  0.9452210558240495  1.0000
  C   C7        1.0  0.003399442581830697  0.12426956574534391  0.08750289269119796  1.0000
  C   C8        1.0  0.996587216439714  0.8757387008559547  0.9124987967405784  1.0000
  C   C9        1.0  0.8612187844979218  0.1278626178951328  0.05666119950146249  1.0000
  C   C10       1.0  0.13878036992696255  0.8721396917255362  0.9433451216858728  1.0000
  C   C11       1.0  0.8012480482705939  0.0184994033453947  0.08938038965929708  1.0000
  C   C12       1.0  0.19874485845262058  0.9815058847655963  0.9106243152444974  1.0000
  C   C13       1.0  0.8791398990996199  0.9049149991499023  0.15074134386049548  1.0000
  C   C14       1.0  0.1208603456183113  0.0950912817911913  0.8492657181216501  1.0000
  C   C15       1.0  0.021228197065319466  0.9039747890405253  0.18024980669804333  1.0000
  C   C16       1.0  0.9787622614562255  0.0960275205801508  0.8197533570721801  1.0000
  C   C17       1.0  0.084832531792614  0.0119834593666539  0.14944699540449588  1.0000
  C   C18       1.0  0.9151677129253242  0.9880228215744324  0.8505572682007098  1.0000
  C   C19       1.0  0.010063111067452729  0.4888596153726681  0.19169072330478087  1.0000
  C   C20       1.0  0.989949354827985  0.5111377300974738  0.8083039530876661  1.0000
  C   C21       1.0  0.01676860878067289  0.4397244534790659  0.298269954683576  1.0000
  C   C22       1.0  0.9832376061079628  0.5602718991609805  0.7017237212497277  1.0000
  C   C23       1.0  0.8859613537345227  0.4240248310296053  0.34946808915412214  1.0000
  C   C24       1.0  0.11404975425229942  0.5759735072706462  0.6505229885226169  1.0000
  C   C25       1.0  0.8953939697149521  0.3675447120196367  0.4467770226671561  1.0000
  C   C26       1.0  0.10461388061325753  0.6324575976010394  0.5532170648641213  1.0000
  C   C27       1.0  0.03186595823243012  0.3295699533356853  0.494762839016559  1.0000
  C   C28       1.0  0.9681459691267518  0.6704333491150933  0.5052260377642597  1.0000
  C   C29       1.0  0.16021576611304772  0.3490472943344471  0.4423406907440465  1.0000
  C   C30       1.0  0.8397909972272473  0.6509550152862218  0.5576534393564925  1.0000
  C   C31       1.0  0.1549370652877968  0.4025777151026375  0.3446498789860398  1.0000
  C   C32       1.0  0.8450762199800009  0.5974245945180386  0.6553397981335394  1.0000
  C   C33       1.0  0.4492185045940786  0.6436865060879384  0.8740943332401299  1.0000
  C   C34       1.0  0.550776840415395  0.3563098465521009  0.1259081635165771  1.0000
  C   C35       1.0  0.43428153328235203  0.7522653848547733  0.7864409561873413  1.0000
  C   C36       1.0  0.5657154438615632  0.24773295344547822  0.21356326758598237  1.0000
  C   C37       1.0  0.2980996900702595  0.7974202908576657  0.73757825685135  1.0000
  C   C38       1.0  0.7018997352753119  0.2025810259329006  0.2624205121131951  1.0000
  C   C39       1.0  0.283204359916965  0.9015046277394276  0.6585009908664076  1.0000
  C   C40       1.0  0.7167958748855553  0.0984897392404065  0.3415030214293182  1.0000
  C   C41       1.0  0.402019270376627  0.9597043284911564  0.6260729580855511  1.0000
  C   C42       1.0  0.5979817904085252  0.0403029452800396  0.373925522882729  1.0000
  C   C43       1.0  0.5372587966208542  0.9117327634805434  0.6755428651468804  1.0000
  C   C44       1.0  0.4627422575540265  0.0882665676498107  0.3244659421952747  1.0000
  C   C45       1.0  0.5550381374769557  0.8092329834462717  0.755792235709464  1.0000
  C   C46       1.0  0.44495286949626217  0.1907752831550269  0.2442099830395179  1.0000
  Cl  Cl1       1.0  0.6215505123056744  0.0263904170194778  0.05536652408842708  1.0000
  Cl  Cl2       1.0  0.3784448360089313  0.9736099069409861  0.9446381552208151  1.0000
  Cl  Cl3       1.0  0.11853465512617589  0.7650153090624485  0.2576790390636887  1.0000
  Cl  Cl4       1.0  0.8814661314331501  0.2349889862184398  0.7423227127921519  1.0000
  Cl  Cl5       1.0  0.73417337121532  0.3421848526490834  0.5086966413315394  1.0000
  Cl  Cl6       1.0  0.2658358436317699  0.6578244067823249  0.49130051286086734  1.0000
  Cl  Cl7       1.0  0.33093340922930276  0.30391621625407345  0.5002144716602999  1.0000
  Cl  Cl8       1.0  0.6690752571661278  0.6960870861967052  0.4997759320167603  1.0000
  Cl  Cl9       1.0  0.11272961549537544  0.9622568946909666  0.6004310648271697  1.0000
  Cl  Cl10      1.0  0.8872744287225557  0.0377434292694971  0.3995662779856559  1.0000
  Cl  Cl11      1.0  0.6861901384308736  0.9824272311029816  0.6356195044243191  1.0000
  Cl  Cl12      1.0  0.3138109124388748  0.0175681287069622  0.3643864207710621  1.0000
  O   O1        1.0  0.98154366272734  0.3563495597563033  0.02437486514656229  1.0000
  O   O2        1.0  0.018456581990591286  0.6436567211847901  0.9756238017047636  1.0000
  O   O3        1.0  0.20932818184464705  0.2270820872626729  0.05700638313660279  1.0000
  O   O4        1.0  0.7906649891889898  0.7729142653773665  0.942994799570151  1.0000
  O   O5        1.0  0.8811764510444605  0.5366961554890111  0.15435618453158634  1.0000
  O   O6        1.0  0.11883221204583802  0.463303175641343  0.8456397321295269  1.0000
  O   O7        1.0  0.13433407403603329  0.47479816259637186  0.14624617255628886  1.0000
  O   O8        1.0  0.865674589054258  0.5252011685339895  0.8537490445105859  1.0000
  O   O9        1.0  0.3325484244210486  0.6014038575786458  0.9014801080040371  1.0000
  O   O10       1.0  0.6674572453210601  0.3985905094011883  0.0985215926626921  1.0000
  O   O11       1.0  0.5743759616212287  0.6003047946524731  0.9150398511707394  1.0000
  O   O12       1.0  0.42562998234670596  0.39969255081767596  0.08496347576807747  1.0000
  O   O13       1.0  0.3973292370949365  0.3011700481838062  0.9139837450565053  1.0000
  O   O14       1.0  0.6026669173714865  0.6988193546455079  0.08601839827750263  1.0000
