data_image0
_chemical_formula_structural       Zn16H32C96S24O76
_chemical_formula_sum              "Zn16 H32 C96 S24 O76"
_cell_length_a       19.634271945166972
_cell_length_b       19.593020289657705
_cell_length_c       33.271225366615084
_cell_angle_alpha    79.43672036481692
_cell_angle_beta     79.31769985620822
_cell_angle_gamma    64.04057080227822

_space_group_name_H-M_alt    "P 1"
_space_group_IT_number       1

loop_
  _space_group_symop_operation_xyz
  'x, y, z'

loop_
  _atom_site_type_symbol
  _atom_site_label
  _atom_site_symmetry_multiplicity
  _atom_site_fract_x
  _atom_site_fract_y
  _atom_site_fract_z
  _atom_site_occupancy
  Zn  Zn1       1.0  0.05541479412443099  0.39778937058117947  0.4797121056196758  1.0000
  Zn  Zn2       1.0  0.9851562444222138  0.4799240476067582  0.5609960016350398  1.0000
  Zn  Zn3       1.0  0.0573772876451244  0.5613426983407948  0.48165800133273245  1.0000
  Zn  Zn4       1.0  0.9031100412603338  0.5581459249744183  0.4783877014822764  1.0000
  Zn  Zn5       1.0  0.6917752190741808  0.34952230796385203  0.2731635400934422  1.0000
  Zn  Zn6       1.0  0.6859028008142474  0.19202211407011288  0.2674198161374974  1.0000
  Zn  Zn7       1.0  0.7703640300631919  0.26640361636080445  0.19071826182548784  1.0000
  Zn  Zn8       1.0  0.8486400190638435  0.19377115478851442  0.2697250099462991  1.0000
  Zn  Zn9       1.0  0.2704575492264851  0.7645476722148525  0.6889264937116266  1.0000
  Zn  Zn10      1.0  0.35183031042892315  0.6946378859065729  0.7702336064615736  1.0000
  Zn  Zn11      1.0  0.1919017369299638  0.8469829790314594  0.7715793083580066  1.0000
  Zn  Zn12      1.0  0.18908321847099777  0.6920424400672899  0.7682421709269391  1.0000
  Zn  Zn13      1.0  0.5579783809966018  0.06403553234978437  0.9825253686963292  1.0000
  Zn  Zn14      1.0  0.4006534251727061  0.0583109507108404  0.9770960046555714  1.0000
  Zn  Zn15      1.0  0.5563198945452966  0.9009148799709833  0.9801375497872796  1.0000
  Zn  Zn16      1.0  0.4833661377993224  0.9797272132708554  0.05927638425293939  1.0000
  H   H1        1.0  0.7497314992826176  0.4499900655622254  0.3493022754273838  1.0000
  H   H2        1.0  0.0012288419653501  0.2999337305622732  0.4001573405977226  1.0000
  H   H3        1.0  0.20087461567762693  0.7007280004156654  0.600350726808685  1.0000
  H   H4        1.0  0.04922761808906981  0.5495660824544968  0.649402546184767  1.0000
  H   H5        1.0  0.284644298588411  0.5099945273417107  0.41282291433874  1.0000
  H   H6        1.0  0.4611211209915638  0.24082837588091627  0.3404048193314537  1.0000
  H   H7        1.0  0.774301189833217  0.5483782805840459  0.6475030550213603  1.0000
  H   H8        1.0  0.4808593685451541  0.6998026311169666  0.6002195641576549  1.0000
  H   H9        1.0  0.04960839602210141  0.26958774508158  0.6499161587671125  1.0000
  H   H10       1.0  0.2016659849663469  0.9754226741673832  0.602451739399811  1.0000
  H   H11       1.0  0.8022827382734761  0.7789660916794646  0.39972779810172904  1.0000
  H   H12       1.0  0.9444509131186294  0.9780117771905309  0.3497346896526281  1.0000
  H   H13       1.0  0.6499581715562499  0.14904757753474476  0.049176989258874954  1.0000
  H   H14       1.0  0.6013365153308142  0.10010740373384411  0.20056954486234702  1.0000
  H   H15       1.0  0.6987531934714966  0.4747656082362254  0.10209819642908971  1.0000
  H   H16       1.0  0.5507016711560696  0.7696985596614283  0.14900788584136387  1.0000
  H   H17       1.0  0.0896738151979406  0.1100781740621244  0.2100175298362643  1.0000
  H   H18       1.0  0.165442028831329  0.13802712466774378  0.0394409454681721  1.0000
  H   H19       1.0  0.29984442817122664  0.0005403962436148255  0.9011924581118649  1.0000
  H   H20       1.0  0.44923670584161357  0.7488969365214188  0.8495608244605037  1.0000
  H   H21       1.0  0.447893292717744  0.4743771448265404  0.8478498222315308  1.0000
  H   H22       1.0  0.3001599176788616  0.2809271538009597  0.9005042220023398  1.0000
  H   H23       1.0  0.9596461532676558  0.7403317202191886  0.8401160731542275  1.0000
  H   H24       1.0  0.7856289795582256  0.0109046224603588  0.9115010727022721  1.0000
  H   H25       1.0  0.8449778926814204  0.5716792568150807  0.4001126121395302  1.0000
  H   H26       1.0  0.9633973155465797  0.23594478144006106  0.29171500697532343  1.0000
  H   H27       1.0  0.0698246170825456  0.6864846269403271  0.5140163303754691  1.0000
  H   H28       1.0  0.0646146346433341  0.6802290261055572  0.7358671638106317  1.0000
  H   H29       1.0  0.7940930535494886  0.17816358445904978  0.1218323426810102  1.0000
  H   H30       1.0  0.5709612763513193  0.9568037488062517  0.12770078715708164  1.0000
  H   H31       1.0  0.1775975368075109  0.9062443444431165  0.8500383526705874  1.0000
  H   H32       1.0  0.5143200440760225  0.785488027290718  0.9579931033580067  1.0000
  C   C1        1.0  0.0617349007209569  0.31320250440091973  0.5628865433488102  1.0000
  C   C2        1.0  0.0643218681380802  0.5736809361017662  0.5686595676022178  1.0000
  C   C3        1.0  0.18181134576273192  0.4385822827328381  0.4394813006072198  1.0000
  C   C4        1.0  0.9380474359164311  0.6871978895418774  0.4376622888313618  1.0000
  C   C5        1.0  0.9339600319651424  0.4333195471297771  0.4286686926169878  1.0000
  C   C6        1.0  0.8184770264770052  0.5604535474804065  0.5607027942237934  1.0000
  C   C7        1.0  0.5630796505295095  0.31269662074265614  0.3125916966456259  1.0000
  C   C8        1.0  0.6862588328186163  0.1766954604647992  0.18086554876914104  1.0000
  C   C9        1.0  0.6892434497906662  0.4319743568067905  0.1892317552095122  1.0000
  C   C10       1.0  0.9373253036212147  0.18696425499066288  0.1883706621805814  1.0000
  C   C11       1.0  0.821383452742367  0.3212889814105395  0.3162970404497756  1.0000
  C   C12       1.0  0.8094935840036827  0.06832247031747572  0.3106775616775437  1.0000
  C   C13       1.0  0.436943780166402  0.6879124424840626  0.687220845747909  1.0000
  C   C14       1.0  0.3161270154793314  0.8165990051417185  0.8212915608157231  1.0000
  C   C15       1.0  0.1896021551088438  0.9314932825413678  0.6892549005128075  1.0000
  C   C16       1.0  0.0633614129763345  0.8108273551039249  0.8125186187951243  1.0000
  C   C17       1.0  0.1768763193394918  0.6855898436163769  0.6810673619231054  1.0000
  C   C18       1.0  0.31186044573171756  0.5677221040313185  0.8102479625778258  1.0000
  C   C19       1.0  0.4364591190753729  0.18745887374252845  0.9379862890779123  1.0000
  C   C20       1.0  0.4285995260957661  0.9286323175392892  0.9337405547406803  1.0000
  C   C21       1.0  0.6817321902402682  0.9408426158528652  0.9390903751337518  1.0000
  C   C22       1.0  0.5623923584087649  0.8129940520083991  0.0621038725630001  1.0000
  C   C23       1.0  0.5731147556797894  0.06441969326651516  0.06884576969962102  1.0000
  C   C24       1.0  0.3176833813903812  0.06105364589443952  0.060707910100056495  1.0000
  C   C25       1.0  0.9005726253356842  0.40602701285194337  0.4012118508747946  1.0000
  C   C26       1.0  0.851945172560086  0.3454460664749773  0.3466982526067142  1.0000
  C   C27       1.0  0.8283525673523472  0.4476464246744951  0.38702496774444467  1.0000
  C   C28       1.0  0.9229897278421575  0.3026413187006797  0.3620517328468082  1.0000
  C   C29       1.0  0.8054480729118723  0.41717420952542744  0.3601643338357619  1.0000
  C   C30       1.0  0.9461363687288369  0.3333660410266928  0.38867621512723366  1.0000
  C   C31       1.0  0.09775502469072711  0.6010350008056663  0.5960516964036984  1.0000
  C   C32       1.0  0.1493239803928006  0.65229319911316  0.6537013746415923  1.0000
  C   C33       1.0  0.142244565027049  0.6430600182873435  0.5824948298254782  1.0000
  C   C34       1.0  0.1070963723275256  0.608007055143645  0.6672682566556887  1.0000
  C   C35       1.0  0.16689664830227  0.6680337973816179  0.6112151420228642  1.0000
  C   C36       1.0  0.0820148565876906  0.58346689133748  0.6385444982532533  1.0000
  C   C37       1.0  0.30162202663355936  0.4538328993827962  0.4035365485208898  1.0000
  C   C38       1.0  0.4438243702361788  0.29736163078424477  0.3492460629750411  1.0000
  C   C39       1.0  0.2566290541418041  0.4136210162308202  0.4147934814018157  1.0000
  C   C40       1.0  0.4885802394068434  0.33776009443228355  0.3376613842834288  1.0000
  C   C41       1.0  0.375581990365383  0.33965989599143853  0.373068617659392  1.0000
  C   C42       1.0  0.3696542472222504  0.4116977463896632  0.37948714590930166  1.0000
  C   C43       1.0  0.7290268324418746  0.5759912935971342  0.6277084950314277  1.0000
  C   C44       1.0  0.5261876332885649  0.671591114777179  0.619969574625344  1.0000
  C   C45       1.0  0.7434518251399566  0.584893290498634  0.5851498837249736  1.0000
  C   C46       1.0  0.5117863537811544  0.662558846996504  0.6625125219194814  1.0000
  C   C47       1.0  0.6053052949717143  0.6397486755925711  0.6071866310363987  1.0000
  C   C48       1.0  0.6499457345472806  0.6071652404776557  0.6404090594712315  1.0000
  C   C49       1.0  0.07788533064312732  0.22410042162989896  0.6301336651281559  1.0000
  C   C50       1.0  0.17382741995037776  0.020852067573542903  0.6222771525247666  1.0000
  C   C51       1.0  0.08703752032807441  0.2383391601891773  0.5875846117776574  1.0000
  C   C52       1.0  0.16484449607066406  0.006571168333025036  0.6648410355375347  1.0000
  C   C53       1.0  0.14249752312819908  0.1000193647655578  0.609610842282919  1.0000
  C   C54       1.0  0.10979628758148151  0.14487201084809698  0.6428680478264681  1.0000
  C   C55       1.0  0.8452696441686244  0.8012711535052189  0.39593978577814687  1.0000
  C   C56       1.0  0.902131015600915  0.9549650261053129  0.3530547283926566  1.0000
  C   C57       1.0  0.9133611339752862  0.7619617806093332  0.4129409262430528  1.0000
  C   C58       1.0  0.8343842138155894  0.9937609463073542  0.3356827759980732  1.0000
  C   C59       1.0  0.9064304026234141  0.8845539610402111  0.3747799882151952  1.0000
  C   C60       1.0  0.841375570880153  0.8712523479796205  0.37388083612945167  1.0000
  C   C61       1.0  0.6560410973606848  0.1520069316610418  0.1505075953425816  1.0000
  C   C62       1.0  0.5978810900101834  0.09453091121561394  0.09922512757493253  1.0000
  C   C63       1.0  0.6683000704524247  0.16669924566279087  0.1072425762278542  1.0000
  C   C64       1.0  0.5832990529618202  0.08215116679791377  0.1424908298471976  1.0000
  C   C65       1.0  0.6396900199063253  0.1377093014698474  0.0825088127734048  1.0000
  C   C66       1.0  0.6126314818483537  0.110419106295346  0.16722794317248463  1.0000
  C   C67       1.0  0.6719868968602967  0.520512732001272  0.12176137395968571  1.0000
  C   C68       1.0  0.5782572263403408  0.7241043284893178  0.12926676051984742  1.0000
  C   C69       1.0  0.6637477492916587  0.5066619182479927  0.16434457265199853  1.0000
  C   C70       1.0  0.5872351293211652  0.738096704920224  0.08668951165140731  1.0000
  C   C71       1.0  0.6094486247577535  0.6449321955977111  0.14206662973882805  1.0000
  C   C72       1.0  0.6412383478995878  0.5997217065008014  0.10892608272093443  1.0000
  C   C73       1.0  0.08269421452265391  0.1252880126149236  0.1774481686554097  1.0000
  C   C74       1.0  0.1724947884171115  0.12326738995554358  0.0720011437754877  1.0000
  C   C75       1.0  0.0117463046767838  0.1626271651208953  0.16333643430539269  1.0000
  C   C76       1.0  0.2434748941299176  0.08615263111271076  0.0860700669879648  1.0000
  C   C77       1.0  0.11392418838634201  0.13787894808419307  0.10524337784567449  1.0000
  C   C78       1.0  0.1413791955077954  0.1112608503361514  0.1442164310335556  1.0000
  C   C79       1.0  0.3434062337145676  0.8498700873087441  0.8488315728281037  1.0000
  C   C80       1.0  0.40421061606150493  0.8981470705585506  0.903370181126057  1.0000
  C   C81       1.0  0.3020101304507108  0.9221712824982475  0.8632070192784483  1.0000
  C   C82       1.0  0.44681485161455475  0.8270633971818454  0.887780301503227  1.0000
  C   C83       1.0  0.3325458403701944  0.9448016792624186  0.8901439356196689  1.0000
  C   C84       1.0  0.4159467342877718  0.8040564558454335  0.8611875938588938  1.0000
  C   C85       1.0  0.4042522511066124  0.4528967800862205  0.8518674120670369  1.0000
  C   C86       1.0  0.3440099917824284  0.30219431719226014  0.8962326537395099  1.0000
  C   C87       1.0  0.33611091142582694  0.49293569788505914  0.8349594781848706  1.0000
  C   C88       1.0  0.4122412921217276  0.2619828037004979  0.9129873640136806  1.0000
  C   C89       1.0  0.3411888861114534  0.37155131035927264  0.8737248628314873  1.0000
  C   C90       1.0  0.4074349035937388  0.38319272495864  0.8739781558002448  1.0000
  C   C91       1.0  0.9430725555689535  0.7968275713882277  0.8488443389788144  1.0000
  C   C92       1.0  0.8020061343339293  0.9545991116089281  0.9025985836032787  1.0000
  C   C93       1.0  0.9886471527327032  0.8364060934144532  0.8372988777995188  1.0000
  C   C94       1.0  0.7562357868707609  0.9152002952067874  0.9139989275900219  1.0000
  C   C95       1.0  0.8698779778775644  0.911729632657426  0.8786991453615087  1.0000
  C   C96       1.0  0.8748544049747123  0.839964917818797  0.8724578696040268  1.0000
  S   S1        1.0  0.296546284295033  0.3248226796068323  0.3965462093579148  1.0000
  S   S2        1.0  0.448395386293079  0.4268069466862129  0.3556217528917642  1.0000
  S   S3        1.0  0.6615585961116892  0.630623691558611  0.560400228118951  1.0000
  S   S4        1.0  0.5937218841709039  0.6155975114318579  0.6871849695550624  1.0000
  S   S5        1.0  0.1340868216581228  0.15615385351988925  0.5628569258832385  1.0000
  S   S6        1.0  0.11884574370967732  0.0887308532450959  0.6896335114741774  1.0000
  S   S7        1.0  0.9725605462491842  0.8096672174722882  0.4024864023936203  1.0000
  S   S8        1.0  0.775672012944426  0.9455859385651948  0.34573201035590273  1.0000
  S   S9        1.0  0.618502659800761  0.5891220898902747  0.18892270818791698  1.0000
  S   S10       1.0  0.6330934213401562  0.6556665875585992  0.062085678826633746  1.0000
  S   S11       1.0  0.0157375520180167  0.1808818734962259  0.1099701733879144  1.0000
  S   S12       1.0  0.2396114923282439  0.06913173478258025  0.1394386924791036  1.0000
  S   S13       1.0  0.2758730766931166  0.4464375577228524  0.8456359202077195  1.0000
  S   S14       1.0  0.473074204178296  0.30786574111748877  0.9016868809318125  1.0000
  S   S15       1.0  0.9492729089590315  0.9257086461995382  0.8549488870595711  1.0000
  S   S16       1.0  0.7949789380373673  0.8264638750193001  0.89576752267714  1.0000
  S   S17       1.0  0.7574728430309676  0.5375114619337112  0.4035450360571531  1.0000
  S   S18       1.0  0.9866995245314814  0.20573438911288366  0.3525189054999984  1.0000
  S   S19       1.0  0.17617383622958732  0.6637980830487323  0.5294134355811551  1.0000
  S   S20       1.0  0.0866782816385481  0.5738714403632911  0.7203323208671577  1.0000
  S   S21       1.0  0.7144523611738195  0.22666707417901205  0.0798648005185427  1.0000
  S   S22       1.0  0.5228075548948468  0.036582347045928935  0.169801243933108  1.0000
  S   S23       1.0  0.212403802841159  0.9933745411399784  0.8468514058314226  1.0000
  S   S24       1.0  0.543674152929043  0.7631923927698379  0.8969199010053758  1.0000
  O   O1        1.0  0.0006810582599995996  0.4980891990282358  0.500583772199157  1.0000
  O   O2        1.0  0.0787539040559935  0.31310654201833893  0.5237882911434824  1.0000
  O   O3        1.0  0.0454389449341548  0.5195852307898433  0.5843400221028716  1.0000
  O   O4        1.0  0.1563972082978466  0.5031768141901624  0.4533050457904366  1.0000
  O   O5        1.0  0.024988980318568103  0.3718792735767593  0.5823568828021237  1.0000
  O   O6        1.0  0.1485796915207729  0.39339623021199793  0.44485094642381284  1.0000
  O   O7        1.0  0.0548165854523432  0.6073482237944958  0.5318280664124586  1.0000
  O   O8        1.0  0.005425651962298203  0.6585415887898305  0.4484126774104169  1.0000
  O   O9        1.0  0.9084529061209778  0.5055394209957387  0.43027680776506827  1.0000
  O   O10       1.0  0.8905957336357346  0.6565806117901973  0.44650724126452707  1.0000
  O   O11       1.0  0.9873933255372261  0.3825999536342908  0.4479353989219845  1.0000
  O   O12       1.0  0.8767329778932833  0.5306440212576999  0.5805222873989067  1.0000
  O   O13       1.0  0.8187038670255192  0.5716213808281196  0.5214601026841166  1.0000
  O   O14       1.0  0.7479540931372101  0.2508477961953728  0.2506454884516671  1.0000
  O   O15       1.0  0.5934148947580199  0.36054273404694465  0.3038179108779104  1.0000
  O   O16       1.0  0.6527858704732523  0.1788655398130388  0.21730781943873725  1.0000
  O   O17       1.0  0.719947005483519  0.373108503434878  0.16967219506859268  1.0000
  O   O18       1.0  0.591233458131086  0.24546891583361222  0.301665227436267  1.0000
  O   O19       1.0  0.6786183407384883  0.43258552031935676  0.22840506602985042  1.0000
  O   O20       1.0  0.7446823426277476  0.19198531453118037  0.16880780698614473  1.0000
  O   O21       1.0  0.878617350411929  0.2246927170070947  0.1689898143919564  1.0000
  O   O22       1.0  0.8685064029536563  0.2707490392117222  0.2929537512560358  1.0000
  O   O23       1.0  0.9368277375512548  0.16868430361978426  0.22733363954026936  1.0000
  O   O24       1.0  0.7500708188704622  0.354430922582743  0.3148230598850787  1.0000
  O   O25       1.0  0.7457779957929276  0.09252760018665636  0.2961231329179199  1.0000
  O   O26       1.0  0.8537437139850895  0.10232391654204767  0.305551037677823  1.0000
  O   O27       1.0  0.2519948593074091  0.7490787731098577  0.7493250598939198  1.0000
  O   O28       1.0  0.3785227374187273  0.72485540023505  0.6677717237222183  1.0000
  O   O29       1.0  0.36678496788960047  0.7628575045678334  0.8020274441968809  1.0000
  O   O30       1.0  0.1780988968949728  0.9314224113225295  0.7285032337339175  1.0000
  O   O31       1.0  0.4368440964971469  0.6706593087050692  0.7262985704673639  1.0000
  O   O32       1.0  0.22001332068238363  0.8730300960810805  0.6693940072492381  1.0000
  O   O33       1.0  0.24409137897056613  0.8424302994394919  0.8195922081758694  1.0000
  O   O34       1.0  0.09394595060867061  0.8585235194320332  0.8036300287124192  1.0000
  O   O35       1.0  0.14322574206967434  0.6952965153665217  0.7179382947727079  1.0000
  O   O36       1.0  0.09200039991950601  0.7434231334148008  0.80174692125604  1.0000
  O   O37       1.0  0.23102863531788395  0.7042784936789487  0.6653294886417599  1.0000
  O   O38       1.0  0.35650671592585337  0.6012739111228809  0.805060155516486  1.0000
  O   O39       1.0  0.24754987493045627  0.592763852711876  0.7961925802316614  1.0000
  O   O40       1.0  0.49913396327853854  0.0019582175020643596  0.9993677115374879  1.0000
  O   O41       1.0  0.5038715168976894  0.15893153671448348  0.9486267690095146  1.0000
  O   O42       1.0  0.3951714593642208  2.553620085166298e-05  0.9355680265657044  1.0000
  O   O43       1.0  0.6479986668957166  0.8960670571181523  0.944607515655754  1.0000
  O   O44       1.0  0.3885582233096443  0.1574315210891655  0.9469646792952702  1.0000
  O   O45       1.0  0.6572286866665777  0.00495164834033806  0.953313193004071  1.0000
  O   O46       1.0  0.47953222879311863  0.8813968075243249  0.9566620199001009  1.0000
  O   O47       1.0  0.5799413479305783  0.813460621558086  0.02298450228577313  1.0000
  O   O48       1.0  0.5575963409189271  0.006051590065318621  0.0808579467156818  1.0000
  O   O49       1.0  0.5252657233833986  0.8717275524705315  0.08156076609341768  1.0000
  O   O50       1.0  0.5712315715693776  0.09780614761988456  0.03242090503214002  1.0000
  O   O51       1.0  0.317051627736781  0.07202873245640967  0.02164657237534578  1.0000
  O   O52       1.0  0.3766000032050627  0.02997684055945629  0.08019660943065078  1.0000
  O   O53       1.0  0.7978420874360026  0.5934327039526082  0.385657691317462  1.0000
  O   O54       1.0  0.6933002961595918  0.5621843944926537  0.38123529330355405  1.0000
  O   O55       1.0  0.748553385062607  0.5284595189272352  0.4478655323533686  1.0000
  O   O56       1.0  0.012336713035857405  0.2159059003914976  0.3044021896325404  1.0000
  O   O57       1.0  0.0534397293328581  0.18333835580236266  0.3723151890439169  1.0000
  O   O58       1.0  0.9422439271454196  0.16147952185238518  0.3614112979085604  1.0000
  O   O59       1.0  0.09885168461551068  0.7190113056026918  0.5107787329773501  1.0000
  O   O60       1.0  0.21707741817773038  0.7094634311528623  0.5284257968757018  1.0000
  O   O61       1.0  0.2115795278244974  0.5930426937628964  0.511352750484818  1.0000
  O   O62       1.0  0.0319267630963509  0.651291636754287  0.7393278341132827  1.0000
  O   O63       1.0  0.0407769201336734  0.5331973339919924  0.7214129047139153  1.0000
  O   O64       1.0  0.1575392088325955  0.5381546121814155  0.7380248032580211  1.0000
  O   O65       1.0  0.7993402217406141  0.1796226585915121  0.09103914557998392  1.0000
  O   O66       1.0  0.7180823168371192  0.22504931394360736  0.03660107694135214  1.0000
  O   O67       1.0  0.678871064899255  0.29789149745325716  0.09747462593006868  1.0000
  O   O68       1.0  0.5693203742692248  0.9514099798686784  0.15852204013737034  1.0000
  O   O69       1.0  0.5242650514337299  0.03288566539247736  0.2130784016630543  1.0000
  O   O70       1.0  0.45190228827392076  0.07270218235758107  0.15214615118890149  1.0000
  O   O71       1.0  0.15637821769731633  0.9532221648119044  0.8647042602526157  1.0000
  O   O72       1.0  0.1879395955956298  0.05763783385771149  0.8692822482094016  1.0000
  O   O73       1.0  0.2214876723034607  0.0023870147814334776  0.8025352443549849  1.0000
  O   O74       1.0  0.5337358130811509  0.7369261102485754  0.9449500747412286  1.0000
  O   O75       1.0  0.5658879105616988  0.696595524431828  0.8767979221502031  1.0000
  O   O76       1.0  0.5877261534168811  0.8078059184185091  0.8881423117434933  1.0000
