data_image0
_chemical_formula_structural       Cd2H40C60N4O8F12
_chemical_formula_sum              "Cd2 H40 C60 N4 O8 F12"
_cell_length_a       8.1664989956093
_cell_length_b       8.16651049799752
_cell_length_c       22.714521146725403
_cell_angle_alpha    100.00791941553337
_cell_angle_beta     100.00783694101295
_cell_angle_gamma    91.94778258548182

_space_group_name_H-M_alt    "P 1"
_space_group_IT_number       1

loop_
  _space_group_symop_operation_xyz
  'x, y, z'

loop_
  _atom_site_type_symbol
  _atom_site_label
  _atom_site_symmetry_multiplicity
  _atom_site_fract_x
  _atom_site_fract_y
  _atom_site_fract_z
  _atom_site_occupancy
  Cd  Cd1       1.0  0.875683074219623  0.1243172065854097  0.49999970310976494  1.0000
  Cd  Cd2       1.0  0.6254655364788632  0.3745334096298265  5.932102879945654e-07  1.0000
  H   H1        1.0  0.6852856518948158  0.2228351003432323  0.30975301799895055  1.0000
  H   H2        1.0  0.7771660752123282  0.3147144390056056  0.6902469583725406  1.0000
  H   H3        1.0  0.33651525143436334  0.3740689491848954  0.809588542886587  1.0000
  H   H4        1.0  0.6259303227603468  0.6634885835791522  0.19041169705830194  1.0000
  H   H5        1.0  0.7340589402414751  0.5085061828579215  0.32650596643242125  1.0000
  H   H6        1.0  0.49149666153409305  0.26594196120647245  0.673494235182325  1.0000
  H   H7        1.0  0.06732946431878163  0.3419871633716198  0.8262088032118272  1.0000
  H   H8        1.0  0.6580115783029541  0.9326727331448339  0.1737909316168427  1.0000
  H   H9        1.0  0.861454814039547  0.7254936332243104  0.28099592319307487  1.0000
  H   H10       1.0  0.27450716037073863  0.1385483309048752  0.7190047573370465  1.0000
  H   H11       1.0  0.8050560155817832  0.16866668630034098  0.7807294085375389  1.0000
  H   H12       1.0  0.8313330289563085  0.1949460720016702  0.21927098986177643  1.0000
  H   H13       1.0  0.16417398977418424  0.7361747320687897  0.2791074398728739  1.0000
  H   H14       1.0  0.2638246543139147  0.8358294961859655  0.7208933845599006  1.0000
  H   H15       1.0  0.7927398255368843  0.8641841653089487  0.779008075814197  1.0000
  H   H16       1.0  0.1358167985390892  0.20725914863764672  0.2209924165824546  1.0000
  H   H17       1.0  0.3435864669662294  0.5352462308918005  0.3263297617183056  1.0000
  H   H18       1.0  0.4647511095755021  0.6564150954071762  0.6736715822759365  1.0000
  H   H19       1.0  0.04104762163243693  0.7324391554231299  0.8264265515049232  1.0000
  H   H20       1.0  0.2675608401653164  0.9589518375887137  0.17357365478243034  1.0000
  H   H21       1.0  0.21721341312957776  0.32221823134499056  0.3743882361547577  1.0000
  H   H22       1.0  0.6777806078905826  0.7827865736442448  0.6256121967852053  1.0000
  H   H23       1.0  0.3017855592892644  0.9074251175653387  0.8745706202039827  1.0000
  H   H24       1.0  0.09257189936850813  0.6982151407288342  0.1254281313363137  1.0000
  H   H25       1.0  0.4892944853762629  0.16024115499682515  0.5116722094227342  1.0000
  H   H26       1.0  0.8397594615837392  0.5107057237996812  0.4883277790901914  1.0000
  H   H27       1.0  0.6013966626406456  0.7724135168901397  0.011638085947794303  1.0000
  H   H28       1.0  0.2275841959518274  0.39860346794173296  0.9883627455115729  1.0000
  H   H29       1.0  0.2681730818021677  0.3641747920586339  0.5113241468739673  1.0000
  H   H30       1.0  0.6358228709512871  0.731824274659921  0.488675605460088  1.0000
  H   H31       1.0  0.39710130996585485  0.9931333768481635  0.011216171226834602  1.0000
  H   H32       1.0  0.0068638749552647  0.6028972880851595  0.988783341368361  1.0000
  H   H33       1.0  0.18014453215243253  0.023042675551032205  0.43601540778800535  1.0000
  H   H34       1.0  0.9769555638553625  0.8198641649690969  0.5639819316779651  1.0000
  H   H35       1.0  0.6627121618718306  0.006097035825192199  0.9359816086419102  1.0000
  H   H36       1.0  0.9939039062100932  0.3372876228113171  0.06401915679722239  1.0000
  H   H37       1.0  0.4016600900179696  0.8194936887795805  0.4348711991945322  1.0000
  H   H38       1.0  0.1804984842318973  0.5983433459469223  0.5651269246423567  1.0000
  H   H39       1.0  0.8651114898814428  0.7835103868205948  0.9348482351083122  1.0000
  H   H40       1.0  0.2164899227300054  0.13488649542692593  0.0651512286940914  1.0000
  C   C1        1.0  0.5020375535986688  0.9720373834694911  0.3247574842164624  1.0000
  C   C2        1.0  0.02796040607326941  0.4979640471066915  0.6752417717267748  1.0000
  C   C3        1.0  0.6025035028914941  0.5723256278150756  0.8247027096480509  1.0000
  C   C4        1.0  0.4276763285897829  0.39749760110721155  0.1752988279936361  1.0000
  C   C5        1.0  0.6610383929935111  0.05293274533572399  0.3687292117199945  1.0000
  C   C6        1.0  0.9470659364078242  0.33896081962184604  0.6312700705462362  1.0000
  C   C7        1.0  0.5654055484521406  0.4572207505902739  0.868611607487729  1.0000
  C   C8        1.0  0.5427805267901107  0.4345963265199941  0.1313885919631019  1.0000
  C   C9        1.0  0.7419051250913782  0.18643939172189053  0.3520644176320573  1.0000
  C   C10       1.0  0.8135614553556677  0.2580944477584027  0.6479359184754472  1.0000
  C   C11       1.0  0.4152003256998142  0.35978892983598587  0.8519057793692468  1.0000
  C   C12       1.0  0.6402122739102795  0.5848026085652905  0.1480944973162437  1.0000
  C   C13       1.0  0.8983313661406243  0.26936141106597233  0.38142795940817825  1.0000
  C   C14       1.0  0.730641114252009  0.10166914767872728  0.6185720781442399  1.0000
  C   C15       1.0  0.36150822981076663  0.23307781397092237  0.8813641524306918  1.0000
  C   C16       1.0  0.7669211731202168  0.6384937649940028  0.1186354652301063  1.0000
  C   C17       1.0  0.96796852584486  0.399845479432777  0.3526473966443575  1.0000
  C   C18       1.0  0.6001553974811812  0.0320321348123116  0.6473525652395153  1.0000
  C   C19       1.0  0.20231852665602187  0.13457570663079818  0.8525928834572127  1.0000
  C   C20       1.0  0.8654225810099803  0.7976838893587157  0.1474058543786043  1.0000
  C   C21       1.0  0.8674889462415223  0.513278474071207  0.3260548315618124  1.0000
  C   C22       1.0  0.4867229184837569  0.1325112645489739  0.6739451980248532  1.0000
  C   C23       1.0  0.062269613302042615  0.20814675268116636  0.8258634961734614  1.0000
  C   C24       1.0  0.7918517726210227  0.9377329785965645  0.17413621148730843  1.0000
  C   C25       1.0  0.9389241656411044  0.6353947872067282  0.3006017494349891  1.0000
  C   C26       1.0  0.3646049134962651  0.061079509682279785  0.6993988461539473  1.0000
  C   C27       1.0  0.9148177023779239  0.1110103270921172  0.8004124442040919  1.0000
  C   C28       1.0  0.8889887451221127  0.08518386361408402  0.1995873914547275  1.0000
  C   C29       1.0  0.10981046081617757  0.6425629261269563  0.3000999843595907  1.0000
  C   C30       1.0  0.35743561652318334  0.8901928273114876  0.69990076336898  1.0000
  C   C31       1.0  0.9072717517384064  0.939678761636145  0.8000138277594004  1.0000
  C   C32       1.0  0.0603207217572148  0.0927285493588386  0.19998620319829294  1.0000
  C   C33       1.0  0.21032456334677357  0.5298314571304487  0.3266328494911548  1.0000
  C   C34       1.0  0.4701669819900046  0.789676910802484  0.6733677151093574  1.0000
  C   C35       1.0  0.04655814499047043  0.8659555786487446  0.8266591410118025  1.0000
  C   C36       1.0  0.134042858901168  0.9534427369015147  0.1733402143855471  1.0000
  C   C37       1.0  0.14028736770264064  0.410519000187172  0.35341633852929993  1.0000
  C   C38       1.0  0.5894804120285785  0.8597125790318569  0.646583736562377  1.0000
  C   C39       1.0  0.19246032326496731  0.9630887324650033  0.8534881577743789  1.0000
  C   C40       1.0  0.03690950111597151  0.8075409841017702  0.146511196955025  1.0000
  C   C41       1.0  0.516250708855395  0.2883998246769082  0.506682920681861  1.0000
  C   C42       1.0  0.7116011852269822  0.48374966536584196  0.4933166925362045  1.0000
  C   C43       1.0  0.4682469872965527  0.7404629655693357  0.006640742139836695  1.0000
  C   C44       1.0  0.2595377203394946  0.5317516628848508  0.9933593321140036  1.0000
  C   C45       1.0  0.3940298186173906  0.40261712930120536  0.507068544766355  1.0000
  C   C46       1.0  0.5973802457096937  0.6059674832969576  0.49293116019075  1.0000
  C   C47       1.0  0.35438320113430427  0.8630346096023446  0.007003118429814503  1.0000
  C   C48       1.0  0.13696340757105932  0.6456151515608824  0.9929968409040271  1.0000
  C   C49       1.0  0.43441459510236763  0.5655829433762849  0.5000001033127646  1.0000
  C   C50       1.0  0.18431834556987783  0.8156803864127866  0.9999997933858041  1.0000
  C   C51       1.0  0.18773237011691893  0.9281931562362473  0.4646021916075611  1.0000
  C   C52       1.0  0.07180826219312311  0.8122708651090846  0.53539527215775  1.0000
  C   C53       1.0  0.7861269646575906  0.02716325743621439  0.9646010955414682  1.0000
  C   C54       1.0  0.9728382166846218  0.2138719516080769  0.03539917822160281  1.0000
  C   C55       1.0  0.3097357803074985  0.8139589976623539  0.46403596249855644  1.0000
  C   C56       1.0  0.1860389665328483  0.6902649412143872  0.5359623791337995  1.0000
  C   C57       1.0  0.8998666626086871  0.9046015010165077  0.9640255173991082  1.0000
  C   C58       1.0  0.0953974278054517  0.1001313302796376  0.03597432657801391  1.0000
  C   C59       1.0  0.309149198505743  0.6908505328675715  0.4999985164917008  1.0000
  C   C60       1.0  0.058978403289508215  0.9410195194442749  2.574790443110501e-07  1.0000
  N   N1        1.0  0.6723340960349374  0.32766549121551236  0.5000001605061969  1.0000
  N   N2        1.0  0.42228838707075056  0.5777089823502519  1.1491821537594316e-07  1.0000
  N   N3        1.0  0.07168610626018793  0.9283182139301261  0.4999988736178552  1.0000
  N   N4        1.0  0.8213838174697656  0.17861534614471714  5.485452164221442e-07  1.0000
  O   O1        1.0  0.6942435368352307  0.9837069424761821  0.4150335359103465  1.0000
  O   O2        1.0  0.0162934930145795  0.30575748719265045  0.5849666760594445  1.0000
  O   O3        1.0  0.6808705245011099  0.4703259652189614  0.914944590293011  1.0000
  O   O4        1.0  0.5296775542818962  0.3191292390581922  0.08505690762822841  1.0000
  O   O5        1.0  0.9885060340691466  0.2378451510538397  0.42944989030359443  1.0000
  O   O6        1.0  0.7621575794807853  0.0114950181524662  0.5705505977492465  1.0000
  O   O7        1.0  0.441025947337728  0.1911949970108111  0.92944165298713  1.0000
  O   O8        1.0  0.8088045023405853  0.5589744501851543  0.0705583010788544  1.0000
  F   F1        1.0  0.5050558092394937  0.802597352062726  0.3141093373091053  1.0000
  F   F2        1.0  0.19740296173397098  0.4949483847926288  0.6858915076477885  1.0000
  F   F3        1.0  0.7613831391360789  0.5587084704464899  0.8141370470313802  1.0000
  F   F4        1.0  0.4412922042750651  0.23861804415476232  0.18586480449653212  1.0000
  F   F5        1.0  0.36298963846969196  0.009742126935528  0.3495775452633154  1.0000
  F   F6        1.0  0.9902563903795922  0.6370130423153455  0.6504220190597039  1.0000
  F   F7        1.0  0.5895577239839439  0.7361839795570333  0.8495626122942994  1.0000
  F   F8        1.0  0.2638162395514883  0.41043876194949996  0.1504372603376751  1.0000
  F   F9        1.0  0.4773280888166624  0.0198486902482458  0.2695168969317692  1.0000
  F   F10       1.0  0.9801495744080739  0.5226746240589577  0.7304826226308876  1.0000
  F   F11       1.0  0.4996090443324874  0.5418476192166182  0.7694176913068774  1.0000
  F   F12       1.0  0.45814998646473265  0.5003941781540746  0.23058328823619686  1.0000
