data_image0
_chemical_formula_structural       Zn12H96C144I24N48
_chemical_formula_sum              "Zn12 H96 C144 I24 N48"
_cell_length_a       15.100930596811189
_cell_length_b       15.334098396571717
_cell_length_c       31.9228645913618
_cell_angle_alpha    93.83958139086623
_cell_angle_beta     89.97354764436788
_cell_angle_gamma    119.49881640562555

_space_group_name_H-M_alt    "P 1"
_space_group_IT_number       1

loop_
  _space_group_symop_operation_xyz
  'x, y, z'

loop_
  _atom_site_type_symbol
  _atom_site_label
  _atom_site_symmetry_multiplicity
  _atom_site_fract_x
  _atom_site_fract_y
  _atom_site_fract_z
  _atom_site_occupancy
  Zn  Zn1       1.0  0.9366714783801343  0.580844590772081  0.19814855155781436  1.0000
  Zn  Zn2       1.0  0.5504898706378827  0.8635566717545019  0.883267486489203  1.0000
  Zn  Zn3       1.0  0.10074117188835174  0.3871141131975407  0.9998459505071298  1.0000
  Zn  Zn4       1.0  0.6445843668376838  0.5813302543085258  0.6982249670795115  1.0000
  Zn  Zn5       1.0  0.31273340005532907  0.8634814221868224  0.38316154693946214  1.0000
  Zn  Zn6       1.0  0.2862127069379954  0.3864279856339651  0.49987447941541063  1.0000
  Zn  Zn7       1.0  0.3554143813678792  0.4186634234238653  0.3017729745803521  1.0000
  Zn  Zn8       1.0  0.6872649554517594  0.136516770077904  0.6168387305180332  1.0000
  Zn  Zn9       1.0  0.713783283995106  0.6135694479866204  0.500122954978565  1.0000
  Zn  Zn10      1.0  0.06332896997158603  0.4191498384270815  0.8018494137135193  1.0000
  Zn  Zn11      1.0  0.4495104500805808  0.1364467721278828  0.11672951125486723  1.0000
  Zn  Zn12      1.0  0.8992559683929642  0.6128803256278204  0.00015577449475050957  1.0000
  H   H1        1.0  0.20079652646652596  0.28573504971743097  0.9490538530662961  1.0000
  H   H2        1.0  0.24169857311829196  0.1468921662636617  0.959347257322911  1.0000
  H   H3        1.0  0.042491095172238105  0.0652038419224397  0.06364372427646711  1.0000
  H   H4        1.0  0.00814902310993661  0.20603434836041154  0.04870369280745021  1.0000
  H   H5        1.0  0.4154808024110396  0.7580913051083016  0.953304870204555  1.0000
  H   H6        1.0  0.2988669749104177  0.7835875904789944  0.0029084917050284  1.0000
  H   H7        1.0  0.4055865792448402  0.07471366943780572  0.9557757907547855  1.0000
  H   H8        1.0  0.5218111927535746  0.03918058062785689  0.909099553998047  1.0000
  H   H9        1.0  0.0968562903383089  0.6261041993068802  0.1387954878431756  1.0000
  H   H10       1.0  0.18873093645727568  0.7455523700227001  0.08336039368253273  1.0000
  H   H11       1.0  0.9908284706454468  0.8702542523461787  0.10577700239710452  1.0000
  H   H12       1.0  0.9076732530275468  0.7469953053650048  0.16055761340086155  1.0000
  H   H13       1.0  0.08565587902978687  0.47893085623695714  0.08597674164769131  1.0000
  H   H14       1.0  0.19270445694323263  0.5498051424359858  0.1532600778347231  1.0000
  H   H15       1.0  0.403223794720546  0.46492552985736785  0.09844871981082552  1.0000
  H   H16       1.0  0.2915909163401977  0.4026448974580746  0.03303312821649482  1.0000
  H   H17       1.0  0.5060268157895252  0.8649377675818003  0.35264347913135213  1.0000
  H   H18       1.0  0.5531770400833481  0.7865751429013343  0.2913261072911696  1.0000
  H   H19       1.0  0.23422053970609388  0.6191262893491685  0.2538399129947706  1.0000
  H   H20       1.0  0.1988708038275463  0.6957438965077927  0.3186777926031183  1.0000
  H   H21       1.0  0.8330457725847682  0.6525654083019391  0.2612669213336858  1.0000
  H   H22       1.0  0.6736415474246371  0.6682321417614857  0.2631723132387975  1.0000
  H   H23       1.0  0.5879438115300388  0.5070543226458567  0.14064902803588814  1.0000
  H   H24       1.0  0.7478016833691896  0.4956019275050991  0.144180146107928  1.0000
  H   H25       1.0  0.08504629612439633  0.28537343781650293  0.4489615059096154  1.0000
  H   H26       1.0  0.9050912272713916  0.14670022409625014  0.45908973832358413  1.0000
  H   H27       1.0  0.021554742320709905  0.06470116583791  0.5635632854690797  1.0000
  H   H28       1.0  0.19699895604903625  0.20522556264302244  0.5487127516784229  1.0000
  H   H29       1.0  0.3420668254629647  0.7576749299807304  0.45317200687075154  1.0000
  H   H30       1.0  0.4841327220384245  0.7833157863323592  0.5027852124324639  1.0000
  H   H31       1.0  0.6681607238470376  0.07480519109714119  0.45587626089506744  1.0000
  H   H32       1.0  0.516417342471108  0.0391720082144573  0.4092302771945954  1.0000
  H   H33       1.0  0.5291681311921508  0.6256835928367791  0.6387607273068527  1.0000
  H   H34       1.0  0.556215860837071  0.7448951009362615  0.5833004917670267  1.0000
  H   H35       1.0  0.8789639986235898  0.8707594860840686  0.6056175252245952  1.0000
  H   H36       1.0  0.8393798008397226  0.747836095398398  0.6604926416410424  1.0000
  H   H37       1.0  0.3931290861974829  0.478062744235828  0.5860229293179133  1.0000
  H   H38       1.0  0.3569916967835881  0.5489156976009256  0.6533366226053374  1.0000
  H   H39       1.0  0.06207918824586764  0.46524642353493567  0.5984855071971823  1.0000
  H   H40       1.0  0.11132331343660702  0.4028005223908124  0.533033904230635  1.0000
  H   H41       1.0  0.3587064851071774  0.86462776809379  0.8526221418221528  1.0000
  H   H42       1.0  0.23312810104496148  0.785619875421517  0.7913796886904907  1.0000
  H   H43       1.0  0.3852108240192962  0.6185500493135621  0.7540872797895732  1.0000
  H   H44       1.0  0.49708308849394467  0.6956443034416895  0.818895309287605  1.0000
  H   H45       1.0  0.8196891668817586  0.6524619474962492  0.7616014543399743  1.0000
  H   H46       1.0  0.9945179473058303  0.6674849862678585  0.7635732755369136  1.0000
  H   H47       1.0  0.9196442357992256  0.5076806937334554  0.6407774805011501  1.0000
  H   H48       1.0  0.7485668445614593  0.49675399144329907  0.6442484085836853  1.0000
  H   H49       1.0  0.9149460977969142  0.7146247489389951  0.5510365792394226  1.0000
  H   H50       1.0  0.09489878881302614  0.8533024820091341  0.540912562524767  1.0000
  H   H51       1.0  0.9784433803151061  0.9353098073428185  0.43643958955103573  1.0000
  H   H52       1.0  0.8029969987322619  0.7947823958250952  0.4512865823001634  1.0000
  H   H53       1.0  0.6579300994059382  0.2423270253406713  0.546830582700089  1.0000
  H   H54       1.0  0.5158634339051036  0.21668993043986262  0.49721906261783744  1.0000
  H   H55       1.0  0.3318374344469391  0.9251952556390962  0.5441240879793554  1.0000
  H   H56       1.0  0.4835821579414415  0.9608231748824992  0.5907686518210796  1.0000
  H   H57       1.0  0.4708330863317656  0.37430707571003546  0.3612358657655648  1.0000
  H   H58       1.0  0.4437830671227446  0.2551015867445798  0.416699111469555  1.0000
  H   H59       1.0  0.12103555613132502  0.1292477288308405  0.3943849173654074  1.0000
  H   H60       1.0  0.16062231199999394  0.2521696117120271  0.3395078733874542  1.0000
  H   H61       1.0  0.6068738150010233  0.5219339433916161  0.4139766734817911  1.0000
  H   H62       1.0  0.6430134770138025  0.4510802369094051  0.3466623295849375  1.0000
  H   H63       1.0  0.9379227839532336  0.5347457583612043  0.40151520603646423  1.0000
  H   H64       1.0  0.8886779958155914  0.597191657118799  0.4669658692341941  1.0000
  H   H65       1.0  0.6412904358125997  0.1353741744520036  0.14737543526004523  1.0000
  H   H66       1.0  0.766870232560514  0.21438356689061064  0.2086166827109395  1.0000
  H   H67       1.0  0.6147879954938489  0.3814503942198755  0.24591181588987615  1.0000
  H   H68       1.0  0.5029142986532733  0.3043598975590882  0.18110390554141287  1.0000
  H   H69       1.0  0.18031137245777978  0.3475339902702784  0.23839875148215137  1.0000
  H   H70       1.0  0.005484379712207515  0.3325132003541498  0.23642480851992081  1.0000
  H   H71       1.0  0.08035930718503445  0.4923212487233429  0.35922009585291914  1.0000
  H   H72       1.0  0.25143424804421244  0.5032457005699698  0.35575066304740943  1.0000
  H   H73       1.0  0.7992007748760983  0.7142676594839658  0.05094970010326702  1.0000
  H   H74       1.0  0.7583059040485909  0.8531142986924395  0.04065578748856782  1.0000
  H   H75       1.0  0.9575076555015231  0.9347898437947038  0.936357350188793  1.0000
  H   H76       1.0  0.9918463287524306  0.7939578392140447  0.9512992141181018  1.0000
  H   H77       1.0  0.5845213276407082  0.2419091367836828  0.0466935985497443  1.0000
  H   H78       1.0  0.7011409200076314  0.21641511299068839  0.9970928673357451  1.0000
  H   H79       1.0  0.5944128139551311  0.9252852735041232  0.04422419710645191  1.0000
  H   H80       1.0  0.4781890414198244  0.9608213690597225  0.09090084224494892  1.0000
  H   H81       1.0  0.903144427521383  0.3738947444157218  0.8612048131529805  1.0000
  H   H82       1.0  0.8112684557554175  0.2544465697253244  0.9166383410565475  1.0000
  H   H83       1.0  0.009172139261217205  0.1297484488259713  0.8942234176029942  1.0000
  H   H84       1.0  0.0923251009986146  0.25300288210887345  0.8394407843733946  1.0000
  H   H85       1.0  0.9143389357911927  0.5210523086784207  0.9140240000725444  1.0000
  H   H86       1.0  0.8072946684765155  0.4501892915718315  0.8467397672654757  1.0000
  H   H87       1.0  0.5967881422755781  0.5350839313752047  0.901550660007253  1.0000
  H   H88       1.0  0.7084182129902103  0.5973563006203407  0.966967243250018  1.0000
  H   H89       1.0  0.4939711649715832  0.1350596763922596  0.6473580276912048  1.0000
  H   H90       1.0  0.44682451874976437  0.2134268075669254  0.708674602086738  1.0000
  H   H91       1.0  0.7657826081114865  0.3808801596552128  0.7461568663515339  1.0000
  H   H92       1.0  0.8011291414044662  0.3042587966884938  0.6813194946643863  1.0000
  H   H93       1.0  0.16695750533427406  0.34743203400397965  0.7387339583452858  1.0000
  H   H94       1.0  0.32636455808717096  0.33176830726338835  0.7368289746034835  1.0000
  H   H95       1.0  0.41206141463516843  0.4929536372946259  0.8593509314843857  1.0000
  H   H96       1.0  0.25220157511644464  0.5044007728329731  0.8558199603203749  1.0000
  C   C1        1.0  0.15074152638619875  0.8893815527057216  0.05885869095290272  1.0000
  C   C2        1.0  0.26811594784138765  0.9440007011704098  0.008473033811206714  1.0000
  C   C3        1.0  0.17183787691548966  0.0180898307623849  0.0212022749802259  1.0000
  C   C4        1.0  0.1664510063153557  0.23350292152712626  0.9735233629656366  1.0000
  C   C5        1.0  0.1890040590797711  0.15757372276586076  0.9794154146646579  1.0000
  C   C6        1.0  0.1454121272620057  0.096349809803101  0.012577065529242804  1.0000
  C   C7        1.0  0.0777661224010799  0.11200402585831169  0.037758155295684  1.0000
  C   C8        1.0  0.05908379892886732  0.1894809162844027  0.02972347174265621  1.0000
  C   C9        1.0  0.411411876787092  0.827437580024835  0.9553090572049926  1.0000
  C   C10       1.0  0.3475044005155895  0.8418748923423537  0.9827345179337075  1.0000
  C   C11       1.0  0.34288151373381487  0.9309415667406853  0.9826320047518068  1.0000
  C   C12       1.0  0.40651289957472164  0.004224601330129501  0.9561650523249627  1.0000
  C   C13       1.0  0.469967122909992  0.9850168767598716  0.9303096861536349  1.0000
  C   C14       1.0  0.07681392377886452  0.6822025346762146  0.13059641595746294  1.0000
  C   C15       1.0  0.12673419833070204  0.7474453713971556  0.09990467338552383  1.0000
  C   C16       1.0  0.09687293596133628  0.8173849316185695  0.09073253725058092  1.0000
  C   C17       1.0  0.01621373988395906  0.8172074859636781  0.11238513815813182  1.0000
  C   C18       1.0  0.9703009164642112  0.7492011376823483  0.14275440711288923  1.0000
  C   C19       1.0  0.37699188789146393  0.5595897812630568  0.1678840042943293  1.0000
  C   C20       1.0  0.4214115459400957  0.6481895961663607  0.23133398800811736  1.0000
  C   C21       1.0  0.5279911317358739  0.6016167345184725  0.20002552729526005  1.0000
  C   C22       1.0  0.15805387801821524  0.4799686911107414  0.08993209238607851  1.0000
  C   C23       1.0  0.21712689303071653  0.5185687145761407  0.12703830406282185  1.0000
  C   C24       1.0  0.3079909029513459  0.515582793379842  0.1302618167155458  1.0000
  C   C25       1.0  0.33486475454843406  0.4714495342685865  0.09636539721510931  1.0000
  C   C26       1.0  0.2724278556114045  0.43581227825410457  0.060375218580318815  1.0000
  C   C27       1.0  0.4481499112505461  0.8090330489348504  0.3302697184026188  1.0000
  C   C28       1.0  0.47431778711148825  0.7667257371516527  0.2960650054901138  1.0000
  C   C29       1.0  0.3972414338682739  0.697171043327799  0.26759052879462086  1.0000
  C   C30       1.0  0.29655306284351496  0.6720903991486725  0.27524733234319143  1.0000
  C   C31       1.0  0.27655935048340297  0.7150278659207955  0.3111375297877857  1.0000
  C   C32       1.0  0.7760692423677826  0.6219809105304606  0.23538765075148407  1.0000
  C   C33       1.0  0.6892428628599206  0.6315757142738647  0.23604308693801812  1.0000
  C   C34       1.0  0.6208091435639318  0.5919402126364303  0.20124355935563193  1.0000
  C   C35       1.0  0.6407114358371048  0.5409512359270963  0.16773161801542366  1.0000
  C   C36       1.0  0.7287727937946757  0.533848767805786  0.16967542663425667  1.0000
  C   C37       1.0  0.7378542776436348  0.8892254451231308  0.5587370374799933  1.0000
  C   C38       1.0  0.675095275638114  0.9439463506920659  0.5084291525125408  1.0000
  C   C39       1.0  0.8454733253098541  0.0179460417358115  0.5210536792286504  1.0000
  C   C40       1.0  0.06687705183689734  0.23308922747886382  0.4734228958372385  1.0000
  C   C41       1.0  0.9682496657882709  0.15726098757010482  0.47923974313103923  1.0000
  C   C42       1.0  0.9502531512981065  0.09605851009234811  0.5124257166828984  1.0000
  C   C43       1.0  0.0333527138037084  0.11153771681222932  0.5376736082324884  1.0000
  C   C44       1.0  0.12965419381919926  0.18884942731824583  0.529695654283451  1.0000
  C   C45       1.0  0.41536121275066773  0.827137534163086  0.45522497086889063  1.0000
  C   C46       1.0  0.49368773967683677  0.8416564062960676  0.48265936343167243  1.0000
  C   C47       1.0  0.587273007715183  0.9308707554785657  0.48262908393792975  1.0000
  C   C48       1.0  0.5968284926827111  0.004229827825383801  0.4562340532574823  1.0000
  C   C49       1.0  0.514200010271317  0.9849579057718711  0.43038106406084614  1.0000
  C   C50       1.0  0.6052194105751738  0.6819849981020383  0.6305403321211147  1.0000
  C   C51       1.0  0.6202413948178389  0.7470944971341212  0.5998319001054782  1.0000
  C   C52       1.0  0.7199431599453804  0.8173283464276578  0.5906326514409843  1.0000
  C   C53       1.0  0.8006006710880487  0.8175485309686154  0.6122823683884988  1.0000
  C   C54       1.0  0.778798225003392  0.7496851133455352  0.6426878716923738  1.0000
  C   C55       1.0  0.18266961403620754  0.5591642902429542  0.668004496053378  1.0000
  C   C56       1.0  0.22681291495102587  0.6473915855986335  0.731527291893876  1.0000
  C   C57       1.0  0.07377090207475588  0.6012362573312372  0.7002501527053512  1.0000
  C   C58       1.0  0.3218722438910363  0.47931887635817116  0.5899764937741311  1.0000
  C   C59       1.0  0.30141716933322027  0.5179297602921126  0.627100531247443  1.0000
  C   C60       1.0  0.20768424316787562  0.5152543555065421  0.6303246503493369  1.0000
  C   C61       1.0  0.1368300960766008  0.4714702280472239  0.596402376612268  1.0000
  C   C62       1.0  0.16357882469554852  0.4357648685694215  0.5603915016007408  1.0000
  C   C63       1.0  0.36075236030587393  0.8086330197176609  0.8303185334991241  1.0000
  C   C64       1.0  0.2922762901591938  0.7660129785247562  0.7961618981305281  1.0000
  C   C65       1.0  0.29995475786200393  0.6964062576146546  0.7677601297844633  1.0000
  C   C66       1.0  0.37568821443412775  0.6715419987138987  0.7754329686297582  1.0000
  C   C67       1.0  0.4386068056354803  0.7147698773316692  0.8113029199475222  1.0000
  C   C68       1.0  0.846142668454171  0.6220099906903583  0.7356768330805254  1.0000
  C   C69       1.0  0.9424471945481159  0.6312508223151099  0.7363739897070118  1.0000
  C   C70       1.0  0.971374140117419  0.5918280423033551  0.7015138355366375  1.0000
  C   C71       1.0  0.9006750165019143  0.5413825640159474  0.66791343825809  1.0000
  C   C72       1.0  0.8056552851189878  0.5345919879175867  0.6698157546510262  1.0000
  C   C73       1.0  0.26214339869178355  0.11077801316740479  0.44126559960505324  1.0000
  C   C74       1.0  0.32490021735849695  0.0560593636936275  0.4915741827689503  1.0000
  C   C75       1.0  0.15452093253394142  0.982061175645711  0.47894970378548163  1.0000
  C   C76       1.0  0.9331181699240078  0.766911966794062  0.5265759107556534  1.0000
  C   C77       1.0  0.031742533388140426  0.8427394616416494  0.5207615462403227  1.0000
  C   C78       1.0  0.04974006638459388  0.9039479486272273  0.48757482312208833  1.0000
  C   C79       1.0  0.9666471266839382  0.8884687442137886  0.4623278706859822  1.0000
  C   C80       1.0  0.8703372529034044  0.8111495157304703  0.4703043344515551  1.0000
  C   C81       1.0  0.5846359100717962  0.1728621690822294  0.5447784871266421  1.0000
  C   C82       1.0  0.5063058758875628  0.15834555465915656  0.51734541946702  1.0000
  C   C83       1.0  0.4127217338149052  0.0691334559379939  0.5173742038293625  1.0000
  C   C84       1.0  0.4031692911121069  0.9957698714186589  0.5437678382625465  1.0000
  C   C85       1.0  0.48579560616262546  0.015038780356512398  0.5696179129787282  1.0000
  C   C86       1.0  0.3947798021300883  0.3180109324960084  0.36945705432178505  1.0000
  C   C87       1.0  0.3797565847091633  0.2529029428475623  0.4001680403143767  1.0000
  C   C88       1.0  0.28005773692810726  0.18267360484797024  0.40936837129027753  1.0000
  C   C89       1.0  0.19940058282574566  0.18245943221916144  0.3877188446908236  1.0000
  C   C90       1.0  0.22120172294363985  0.2503175886339832  0.3573128616610789  1.0000
  C   C91       1.0  0.8173304603099893  0.44082939306096586  0.3319956384246368  1.0000
  C   C92       1.0  0.7731859033280202  0.3526088539424208  0.2684702373828713  1.0000
  C   C93       1.0  0.9262309584690203  0.3987596700373076  0.29974598032413274  1.0000
  C   C94       1.0  0.6781295298608614  0.5206755560170961  0.4100227244737341  1.0000
  C   C95       1.0  0.6985868777580252  0.48206392136146553  0.3728989762326125  1.0000
  C   C96       1.0  0.7923147039785337  0.4847370733436732  0.36967541285737593  1.0000
  C   C97       1.0  0.8631735765154789  0.5285227061141599  0.40359867351338613  1.0000
  C   C98       1.0  0.8364250431350797  0.5642258047326507  0.4396069708636646  1.0000
  C   C99       1.0  0.6392425735009227  0.191368921257876  0.16967841724043356  1.0000
  C   C100      1.0  0.7077227066400058  0.23399046697237946  0.20383572632024996  1.0000
  C   C101      1.0  0.7000454743368324  0.3035956856851172  0.23223776021421125  1.0000
  C   C102      1.0  0.624308242479593  0.328457692563191  0.22456579023049275  1.0000
  C   C103      1.0  0.5613888813655805  0.2852335722023368  0.1886962712700182  1.0000
  C   C104      1.0  0.15385795940498784  0.37798744765877507  0.2643224804869959  1.0000
  C   C105      1.0  0.057554756736657074  0.3687466128223279  0.2636240705927265  1.0000
  C   C106      1.0  0.028628741400851317  0.4081739025577704  0.2984846807318605  1.0000
  C   C107      1.0  0.09932682658300962  0.4586186277725588  0.3320844277650465  1.0000
  C   C108      1.0  0.19434788262564948  0.4654092046515925  0.3301824245070223  1.0000
  C   C109      1.0  0.8492586190207589  0.11061889560076572  0.9411422842641599  1.0000
  C   C110      1.0  0.731888637031702  0.056002005537671116  0.9915295787157918  1.0000
  C   C111      1.0  0.8281663322243349  0.9819121244611251  0.9788003137896697  1.0000
  C   C112      1.0  0.8335456510201312  0.7664945256586363  0.026479397124710112  1.0000
  C   C113      1.0  0.8109978764738843  0.8424289823808664  0.020586571592510008  1.0000
  C   C114      1.0  0.8545900057515823  0.9036506416705945  0.9874251625915351  1.0000
  C   C115      1.0  0.9222331822792782  0.8879934165010042  0.9622427248201647  1.0000
  C   C116      1.0  0.9409116419467551  0.8105127734696185  0.9702791694893664  1.0000
  C   C117      1.0  0.588588267879409  0.17256286588622774  0.044690978170450514  1.0000
  C   C118      1.0  0.6525001828765797  0.15812780957487152  0.017266214910044705  1.0000
  C   C119      1.0  0.6571237321116217  0.0690611359661162  0.017369041299680508  1.0000
  C   C120      1.0  0.59348903523847  0.9957781014211734  0.043835994090585514  1.0000
  C   C121      1.0  0.5300316978372593  0.014983570765942006  0.06969097592851631  1.0000
  C   C122      1.0  0.9231851827011043  0.3177971589607084  0.8694032824531492  1.0000
  C   C123      1.0  0.8732649079024526  0.2525543214412806  0.9000947117445579  1.0000
  C   C124      1.0  0.9031301435105021  0.18261476116647662  0.9092668474426164  1.0000
  C   C125      1.0  0.9837866019956536  0.1827907054758811  0.887614825800384  1.0000
  C   C126      1.0  0.029700176635103034  0.25079855592787237  0.8572452910792878  1.0000
  C   C127      1.0  0.6230113696068856  0.4404129158811116  0.8321148490118162  1.0000
  C   C128      1.0  0.5785935007176732  0.35181535462414365  0.7686646232159761  1.0000
  C   C129      1.0  0.47201409393569094  0.3983912238250583  0.7999738056639388  1.0000
  C   C130      1.0  0.8419462160082177  0.5200197349594973  0.9100691286231424  1.0000
  C   C131      1.0  0.7828754546548282  0.48142421800609003  0.872962119647383  1.0000
  C   C132      1.0  0.6920130184811983  0.4844199093447584  0.8697392294815675  1.0000
  C   C133      1.0  0.6651416172626909  0.5285554188995434  0.9036341537049781  1.0000
  C   C134      1.0  0.7275764597537063  0.5641859139305367  0.9396250582218573  1.0000
  C   C135      1.0  0.551848730236081  0.19096439023945783  0.6697299086638823  1.0000
  C   C136      1.0  0.5256814093690211  0.2332754618587245  0.7039356803491403  1.0000
  C   C137      1.0  0.6027619131369734  0.3028331575928859  0.7324086853790774  1.0000
  C   C138      1.0  0.7034480998356472  0.3279160546732598  0.7247513269047943  1.0000
  C   C139      1.0  0.723441543428244  0.28497407577312833  0.6888597335769973  1.0000
  C   C140      1.0  0.22393412481133623  0.37801803475349527  0.7646132765144957  1.0000
  C   C141      1.0  0.31076370641113726  0.368426985221241  0.7639567058456791  1.0000
  C   C142      1.0  0.37919608284808964  0.40806774810252494  0.7987567134451867  1.0000
  C   C143      1.0  0.35929378983446014  0.45905672241642753  0.8322677149437754  1.0000
  C   C144      1.0  0.27123187910439134  0.4661554378879488  0.8303256670770554  1.0000
  I   I1        1.0  0.02701701037426579  0.6620632337513188  0.2691004976362238  1.0000
  I   I2        1.0  0.9324069069752173  0.4243500185039012  0.16197251079946545  1.0000
  I   I3        1.0  0.6648991287372823  0.0225984061594531  0.8471826447939607  1.0000
  I   I4        1.0  0.6037911238353216  0.7462358679705403  0.9144203794559831  1.0000
  I   I5        1.0  0.22626418710463275  0.488422752512335  0.9451599849656349  1.0000
  I   I6        1.0  0.9236546277204809  0.3517619913250131  0.017764134486924408  1.0000
  I   I7        1.0  0.6348393908295622  0.6621185234771688  0.7691821875375455  1.0000
  I   I8        1.0  0.4923088432821814  0.4244077582329595  0.6623225521581448  1.0000
  I   I9        1.0  0.35776344902632223  0.0225773528889803  0.3470499963011449  1.0000
  I   I10       1.0  0.14200324032920267  0.7463257679770977  0.4142724726292713  1.0000
  I   I11       1.0  0.2622009078140053  0.4875120113212502  0.4450311274843841  1.0000
  I   I12       1.0  0.4283803353254427  0.35180327464081523  0.5178587565050564  1.0000
  I   I13       1.0  0.36515246777810967  0.3378706462085787  0.23081592536994586  1.0000
  I   I14       1.0  0.5076932152151629  0.575585917059506  0.33767444929602425  1.0000
  I   I15       1.0  0.6422277294224019  0.9774170796286726  0.6529492231117404  1.0000
  I   I16       1.0  0.8579939692851398  0.25367543026150946  0.5857279001478732  1.0000
  I   I17       1.0  0.7377807142585482  0.5124831760083595  0.5549693698999576  1.0000
  I   I18       1.0  0.5716154588881893  0.6481964150482257  0.48213937586692895  1.0000
  I   I19       1.0  0.972980542038947  0.33792143250955325  0.7308996648186864  1.0000
  I   I20       1.0  0.067586914869267  0.5756443964116899  0.8380198161502792  1.0000
  I   I21       1.0  0.33509610628652814  0.9773975101194311  0.15280910303609124  1.0000
  I   I22       1.0  0.3962137253625146  0.25377133649298866  0.08557798990449332  1.0000
  I   I23       1.0  0.7737319862977401  0.5115776998399255  0.05484255709100692  1.0000
  I   I24       1.0  0.07634447925313023  0.6482377039088546  0.9822361904847697  1.0000
  N   N1        1.0  0.22594156640430918  0.8822609845766112  0.03918840744920262  1.0000
  N   N2        1.0  0.24455721335593952  0.013966744083759903  0.9983202862784923  1.0000
  N   N3        1.0  0.12048954604080825  0.9557277722088031  0.05086090826149102  1.0000
  N   N4        1.0  0.10371285999769245  0.250088493165272  0.9985664445767103  1.0000
  N   N5        1.0  0.4709334294213718  0.897475182519706  0.9293438250705466  1.0000
  N   N6        1.0  0.0003604605713717992  0.6831559015332472  0.1519413526117361  1.0000
  N   N7        1.0  0.34947686268740347  0.5998131695604272  0.20052488365040233  1.0000
  N   N8        1.0  0.5132716060010766  0.6539266459522253  0.23205975789493047  1.0000
  N   N9        1.0  0.4643394631385292  0.5570137361964953  0.16650851143739942  1.0000
  N   N10       1.0  0.18598235090153994  0.4405216117054493  0.05703100309381171  1.0000
  N   N11       1.0  0.3508313065391776  0.7829216622540685  0.3380294637682439  1.0000
  N   N12       1.0  0.7962292851337054  0.5751197707643669  0.20255992492502636  1.0000
  N   N13       1.0  0.6555224623260474  0.8821251191819073  0.5391197340763797  1.0000
  N   N14       1.0  0.7686217207235018  0.0139491981895716  0.4982533350978074  1.0000
  N   N15       1.0  0.8344363159420781  0.9555307701090427  0.5506798985964636  1.0000
  N   N16       1.0  0.1459928291384358  0.2495498640908878  0.4985310626237976  1.0000
  N   N17       1.0  0.4258186074261518  0.8972593886214428  0.4293373235248198  1.0000
  N   N18       1.0  0.682796282489534  0.6833451500744446  0.6518988223217478  1.0000
  N   N19       1.0  0.2503169449771577  0.5990287936369753  0.7006639969205042  1.0000
  N   N20       1.0  0.1407424175384336  0.6532310872266508  0.7323199639965452  1.0000
  N   N21       1.0  0.09287574260525135  0.5568543961698751  0.6666558942977547  1.0000
  N   N22       1.0  0.2545887658132316  0.4401314922809051  0.5570561532779126  1.0000
  N   N23       1.0  0.43210882000607165  0.7827389202222863  0.8381133600330275  1.0000
  N   N24       1.0  0.7793781333104591  0.5756968088723511  0.7027603898171648  1.0000
  N   N25       1.0  0.3444717239633449  0.1178753316001036  0.4608821816376293  1.0000
  N   N26       1.0  0.2313715899215796  0.9860587754851767  0.5017519515022928  1.0000
  N   N27       1.0  0.1655600175343181  0.04447794942534951  0.449323218505704  1.0000
  N   N28       1.0  0.8540015309815346  0.7504535774761579  0.5014649959339652  1.0000
  N   N29       1.0  0.5741811617539057  0.10274030660352201  0.5706630013740651  1.0000
  N   N30       1.0  0.31720708370230716  0.3166537920156074  0.3481008518220748  1.0000
  N   N31       1.0  0.7496816055216514  0.40096713696996755  0.29933338959520484  1.0000
  N   N32       1.0  0.8592615014259053  0.3467716075131904  0.2676779493951643  1.0000
  N   N33       1.0  0.9071230070812322  0.4431392863533645  0.3333439270453483  1.0000
  N   N34       1.0  0.7454098948599965  0.559860688062777  0.4429439337587128  1.0000
  N   N35       1.0  0.5678894260670617  0.2172630247011327  0.16188515674516427  1.0000
  N   N36       1.0  0.22062192160233  0.4243021324637226  0.2972389714101809  1.0000
  N   N37       1.0  0.7740599044028258  0.1177394669059808  0.9608138207443917  1.0000
  N   N38       1.0  0.7554505750899949  0.9860397216263124  0.0016830714494631043  1.0000
  N   N39       1.0  0.8795142861316592  0.044273427537760306  0.9491400903486069  1.0000
  N   N40       1.0  0.8962800205717516  0.7499066972069527  0.0014353046919594974  1.0000
  N   N41       1.0  0.5290677519507411  0.102526010874648  0.0706546675864814  1.0000
  N   N42       1.0  0.9996395950818736  0.31684304219825077  0.8480589484572293  1.0000
  N   N43       1.0  0.6505261083377648  0.40019027907720767  0.7994739934856485  1.0000
  N   N44       1.0  0.4867313657645554  0.3460768050808411  0.7679400590827471  1.0000
  N   N45       1.0  0.5356653877870556  0.4429934738563687  0.8334920508868607  1.0000
  N   N46       1.0  0.8140207669434858  0.5594675634183376  0.9429693015396341  1.0000
  N   N47       1.0  0.6491688381273236  0.21707878365699426  0.6619705716071991  1.0000
  N   N48       1.0  0.2037744577786782  0.42487992600415947  0.7974410260980564  1.0000
