data_image0
_chemical_formula_structural       Mn2H20C24S4N4O12
_chemical_formula_sum              "Mn2 H20 C24 S4 N4 O12"
_cell_length_a       4.730409239514024
_cell_length_b       10.676868928349796
_cell_length_c       14.611777128603904
_cell_angle_alpha    82.77333073638455
_cell_angle_beta     80.68885590335465
_cell_angle_gamma    77.25064961685742

_space_group_name_H-M_alt    "P 1"
_space_group_IT_number       1

loop_
  _space_group_symop_operation_xyz
  'x, y, z'

loop_
  _atom_site_type_symbol
  _atom_site_label
  _atom_site_symmetry_multiplicity
  _atom_site_fract_x
  _atom_site_fract_y
  _atom_site_fract_z
  _atom_site_occupancy
  Mn  Mn1       1.0  0.9999983686604139  9.018519072900838e-06  0.4999969688071388  1.0000
  Mn  Mn2       1.0  0.49998320761972076  0.5000000950027825  1.3412876413101878e-05  1.0000
  H   H1        1.0  0.09496618840879725  0.1983843874263798  0.2673120759815788  1.0000
  H   H2        1.0  0.4375337100919481  0.6993277575230437  0.7674881931495463  1.0000
  H   H3        1.0  0.9050654401941784  0.8016161331787472  0.7326650370065764  1.0000
  H   H4        1.0  0.5624595988157067  0.3006691143520968  0.2325396107492281  1.0000
  H   H5        1.0  0.28621754471329575  0.9405778508210431  0.05022761807795461  1.0000
  H   H6        1.0  0.7221597494558059  0.44217112469216596  0.5502304156838633  1.0000
  H   H7        1.0  0.713824042388488  0.05940344219145999  0.9497659265538374  1.0000
  H   H8        1.0  0.2777593500993946  0.5578651595804016  0.44976268143456366  1.0000
  H   H9        1.0  0.5698034587817632  0.23409183035107614  0.5886638342845953  1.0000
  H   H10       1.0  0.6078220902654368  0.7331926768721642  0.0893875747443005  1.0000
  H   H11       1.0  0.4302063460344243  0.7659135625647975  0.41132492614018185  1.0000
  H   H12       1.0  0.39218735662982607  0.2668089348677469  0.9106199751213281  1.0000
  H   H13       1.0  0.9958409382651181  0.14671434592697344  0.11259130921532548  1.0000
  H   H14       1.0  0.7438160806237947  0.6481114144879996  0.6128636651765547  1.0000
  H   H15       1.0  0.004207364687531144  0.8532794197475507  0.887385469409068  1.0000
  H   H16       1.0  0.25613566832308277  0.35190759948665823  0.38715254983902264  1.0000
  H   H17       1.0  0.5007234063929573  0.1722376155285588  0.5036306262268084  1.0000
  H   H18       1.0  0.8231858128909194  0.6721328042715412  0.003828083016927095  1.0000
  H   H19       1.0  0.4992944715471525  0.8277639294622361  0.4963608426504962  1.0000
  H   H20       1.0  0.176814335853415  0.3278620446120185  0.9961772141468896  1.0000
  C   C1        1.0  0.5138949807352942  0.0634359941796561  0.367753965122283  1.0000
  C   C2        1.0  0.05373151760836958  0.5638202063074189  0.8677665996904622  1.0000
  C   C3        1.0  0.486115011474709  0.9365645757956923  0.6322350369100532  1.0000
  C   C4        1.0  0.9462548897583148  0.43616889102040796  0.1322476507728254  1.0000
  C   C5        1.0  0.4498474387552776  0.03559426247642959  0.2768686602115622  1.0000
  C   C6        1.0  0.23648452370127876  0.536195354659071  0.776915069169398  1.0000
  C   C7        1.0  0.5501698463175089  0.9644082380803809  0.7231205862143497  1.0000
  C   C8        1.0  0.7635160225888528  0.4637985683417226  0.2230996028130434  1.0000
  C   C9        1.0  0.22399128377246316  0.11489605140340586  0.2333278090302287  1.0000
  C   C10       1.0  0.4262126760441591  0.6158046348491197  0.7334445996141382  1.0000
  C   C11       1.0  0.7760321831579374  0.8850958338405874  0.7666608037095485  1.0000
  C   C12       1.0  0.5737536606645366  0.3842008864904614  0.2665750912662403  1.0000
  C   C13       1.0  0.16675095001521356  0.08520787424620828  0.1489925510844827  1.0000
  C   C14       1.0  0.5981592082277273  0.5862949371820747  0.6491833293792837  1.0000
  C   C15       1.0  0.8333138719366746  0.9147859034951221  0.8509871405824185  1.0000
  C   C16       1.0  0.40178301384579374  0.4137269687612958  0.3508323049027666  1.0000
  C   C17       1.0  0.32997746576074144  0.9716620433482106  0.1140925970432249  1.0000
  C   C18       1.0  0.5834172787922827  0.47283696242114803  0.614122826615251  1.0000
  C   C19       1.0  0.6700542610086516  0.028326955629509595  0.8858979700640858  1.0000
  C   C20       1.0  0.4165463936379085  0.5271781478938493  0.3858826684001642  1.0000
  C   C21       1.0  0.6115208152662749  0.9253134966618716  0.2336522591566066  1.0000
  C   C22       1.0  0.22894560656496316  0.42590312115008533  0.7335529068112762  1.0000
  C   C23       1.0  0.3884999302015901  0.07468322292752555  0.7663388592436391  1.0000
  C   C24       1.0  0.7710505943323225  0.5740975204961314  0.2664533603786197  1.0000
  S   S1        1.0  0.9052670224983288  0.8268813029141382  0.28823529525715946  1.0000
  S   S2        1.0  0.9793890280929176  0.3270635910002752  0.7880068404683342  1.0000
  S   S3        1.0  0.09475148103125262  0.17311544596816467  0.7117628807779326  1.0000
  S   S4        1.0  0.02062846848935614  0.6729312374156179  0.21199353055375517  1.0000
  N   N1        1.0  0.5451502897583327  0.8923103123097673  0.15535985998927523  1.0000
  N   N2        1.0  0.4063650582691168  0.3932698272827224  0.6551990856513753  1.0000
  N   N3        1.0  0.4548813963612089  0.10767773395315318  0.8446336163864387  1.0000
  N   N4        1.0  0.5936081902907377  0.6067423524362922  0.34479768254692544  1.0000
  O   O1        1.0  0.3058563093240139  0.12059096314655447  0.4253215971786091  1.0000
  O   O2        1.0  0.14677512620060934  0.6208606639824195  0.9255053932445065  1.0000
  O   O3        1.0  0.6941531954340335  0.8794096186240309  0.57467024685414  1.0000
  O   O4        1.0  0.8532119140045039  0.3791342150935293  0.0745071747092254  1.0000
  O   O5        1.0  0.778115216083485  0.026278069543664597  0.3831706384021628  1.0000
  O   O6        1.0  0.8112640441281516  0.5265248944617793  0.8830200663370035  1.0000
  O   O7        1.0  0.22187370916395133  0.973718658836951  0.6168225878296879  1.0000
  O   O8        1.0  0.1887121301547695  0.47346420091430724  0.11699371046434238  1.0000
  O   O9        1.0  0.6615161362120645  0.1781958995506727  0.5380294482876522  1.0000
  O   O10       1.0  0.6223099353059286  0.6777287917626466  0.03845198915410461  1.0000
  O   O11       1.0  0.33848730138895206  0.821807577820536  0.4619626912933653  1.0000
  O   O12       1.0  0.3776889057541981  0.32226511010856024  0.961557590912136  1.0000
