data_image0
_chemical_formula_structural       Cd4H32C40S4N16O12
_chemical_formula_sum              "Cd4 H32 C40 S4 N16 O12"
_cell_length_a       9.156389233848426
_cell_length_b       10.091864679278308
_cell_length_c       15.042088785859367
_cell_angle_alpha    73.2989269587853
_cell_angle_beta     86.50982768640849
_cell_angle_gamma    83.3461068668229

_space_group_name_H-M_alt    "P 1"
_space_group_IT_number       1

loop_
  _space_group_symop_operation_xyz
  'x, y, z'

loop_
  _atom_site_type_symbol
  _atom_site_label
  _atom_site_symmetry_multiplicity
  _atom_site_fract_x
  _atom_site_fract_y
  _atom_site_fract_z
  _atom_site_occupancy
  Cd  Cd1       1.0  0.14239067729752716  0.5769994708260741  0.2676827038362077  1.0000
  Cd  Cd2       1.0  0.8576133389702816  0.42300080934577977  0.7323150445194885  1.0000
  Cd  Cd3       1.0  0.5384920781174499  0.7463394064755136  0.2816238264464985  1.0000
  Cd  Cd4       1.0  0.461511572335361  0.2536639536464235  0.7183753613381896  1.0000
  H   H1        1.0  0.8109625882253368  0.5341033990585871  0.1839402722879555  1.0000
  H   H2        1.0  0.18903080955256252  0.46589376468613597  0.8160590378406738  1.0000
  H   H3        1.0  0.03111945239370327  0.2581169230578269  0.04327791228533329  1.0000
  H   H4        1.0  0.9688812291604946  0.7418832955505364  0.9567232735418045  1.0000
  H   H5        1.0  0.8076977431656616  0.342170844654774  0.9473324038429566  1.0000
  H   H6        1.0  0.19229919170552282  0.6578242740687796  0.052665179837909214  1.0000
  H   H7        1.0  0.34991504304563387  0.3018423853972366  0.01848128089300619  1.0000
  H   H8        1.0  0.6500809578158949  0.6981609998111366  0.9815174706221726  1.0000
  H   H9        1.0  0.38604066116106134  0.33193701497921774  0.17305503111469986  1.0000
  H   H10       1.0  0.6139556640184692  0.6680632369944631  0.8269449516144932  1.0000
  H   H11       1.0  0.6346837524000576  0.36370982602668533  0.2174838876629792  1.0000
  H   H12       1.0  0.36531622143683495  0.6362873409546596  0.7825145564695433  1.0000
  H   H13       1.0  0.9923307150690799  0.7173393518874676  0.4448376543852178  1.0000
  H   H14       1.0  0.007668607579169891  0.2826628950594028  0.5551658594386595  1.0000
  H   H15       1.0  0.4076258076411746  0.8464636778026315  0.47358756044211964  1.0000
  H   H16       1.0  0.5923716527045997  0.15354705044823902  0.5264064716998931  1.0000
  H   H17       1.0  0.2871894916291636  0.002889402736542502  0.5358825284471891  1.0000
  H   H18       1.0  0.7128049583210014  0.9971181307161455  0.46411617238028674  1.0000
  H   H19       1.0  0.9924546466530866  0.9870092866249891  0.7710548036001514  1.0000
  H   H20       1.0  0.007546034901110899  0.012990931983374294  0.2289463822269866  1.0000
  H   H21       1.0  0.8515876479302661  0.8219846974073235  0.7248383933549789  1.0000
  H   H22       1.0  0.14841204053297463  0.1780144695894634  0.2751636810398921  1.0000
  H   H23       1.0  0.9394640749952284  0.7308551453314109  0.5933917550270918  1.0000
  H   H24       1.0  0.060538906684627095  0.26914402994427183  0.4066095525393507  1.0000
  H   H25       1.0  0.9409781340164965  0.8271204959542541  0.19034173817531305  1.0000
  H   H26       1.0  0.05903028794456589  0.17287863095419453  0.8096614070939337  1.0000
  H   H27       1.0  0.10877453596253162  0.8422843035049893  0.1531020233824378  1.0000
  H   H28       1.0  0.8912345060644354  0.157709703474481  0.846898055177725  1.0000
  H   H29       1.0  0.43145401101372016  0.04056803018171  0.2510861707678416  1.0000
  H   H30       1.0  0.5685509568480497  0.9594332483171186  0.7489133596631347  1.0000
  H   H31       1.0  0.49964917356117394  0.0323076268977758  0.1554300886282718  1.0000
  H   H32       1.0  0.5003521871402227  0.9676967898779977  0.8445683097563618  1.0000
  C   C1        1.0  0.8984345502658115  0.47193277601117256  0.1577031419288062  1.0000
  C   C2        1.0  0.10156091413534091  0.5280654110220623  0.8422965818977062  1.0000
  C   C3        1.0  0.012179007887553385  0.3315977353783239  0.0841879777278933  1.0000
  C   C4        1.0  0.9878194954793074  0.6684024999127017  0.9158126065502756  1.0000
  C   C5        1.0  0.7347776280394739  0.3554894633346635  0.0844774370894115  1.0000
  C   C6        1.0  0.26522342970395835  0.644507688644772  0.9155216416479703  1.0000
  C   C7        1.0  0.7165749553575507  0.33671281192159336  0.9977535463513263  1.0000
  C   C8        1.0  0.28342202883222706  0.6632811869038732  0.0022482311451526285  1.0000
  C   C9        1.0  0.5770245678467274  0.3162516320238993  0.9744168975811431  1.0000
  C   C10       1.0  0.42297144400058767  0.6837413418322952  0.025584433161562073  1.0000
  C   C11       1.0  0.4586383744293911  0.31464941391287493  0.03813753520881847  1.0000
  C   C12       1.0  0.5413608294447131  0.6853446215145383  0.9618621731936158  1.0000
  C   C13       1.0  0.4793917077950736  0.331829683650298  0.12488796874382051  1.0000
  C   C14       1.0  0.5206094407639482  0.6681664017156591  0.875112633166168  1.0000
  C   C15       1.0  0.6180468466747796  0.35131553908446017  0.149225162218805  1.0000
  C   C16       1.0  0.38195321797770265  0.6486805612833991  0.8507748050863171  1.0000
  C   C17       1.0  0.5517826144127012  0.3015964495536068  0.8805583594419204  1.0000
  C   C18       1.0  0.4482155859962019  0.6983965209410811  0.11944290518900402  1.0000
  C   C19       1.0  0.10579825007109625  0.7399712886427636  0.4333318790138351  1.0000
  C   C20       1.0  0.8942011244483934  0.2600310249098641  0.5666682965062648  1.0000
  C   C21       1.0  0.3187497060876438  0.8077092866353793  0.44699817636442424  1.0000
  C   C22       1.0  0.6812503372048013  0.19229721176350978  0.552999879373921  1.0000
  C   C23       1.0  0.12207219641234696  0.8578169089766803  0.5582802290478384  1.0000
  C   C24       1.0  0.8779297714280643  0.14218118804511448  0.44172330240784413  1.0000
  C   C25       1.0  0.1953280614536297  0.958296765023796  0.5790868749435135  1.0000
  C   C26       1.0  0.8046724877879894  0.0417044669134441  0.4209154583540453  1.0000
  C   C27       1.0  0.1502888564192943  0.0034454689560447973  0.6569738773041395  1.0000
  C   C28       1.0  0.8497129401641813  0.9965547746138695  0.3430259401456012  1.0000
  C   C29       1.0  0.027051435635520683  0.9526538050948474  0.7100554983769954  1.0000
  C   C30       1.0  0.9729513021676724  0.0473474234808791  0.2899467688087825  1.0000
  C   C31       1.0  0.9490925705629821  0.8590988355512222  0.6847893617668603  1.0000
  C   C32       1.0  0.05091345008258939  0.1409023879822442  0.3152128062512389  1.0000
  C   C33       1.0  0.9975182689428336  0.8087200882249305  0.6097363756133873  1.0000
  C   C34       1.0  0.002483750768817591  0.1912780754026215  0.390263817538532  1.0000
  C   C35       1.0  0.23981802024110974  0.10096133480372767  0.6835574958830719  1.0000
  C   C36       1.0  0.7601858325913681  0.8990399187335497  0.3164434029253016  1.0000
  C   C37       1.0  0.8077686409968121  0.519067027608713  0.36489224827047917  1.0000
  C   C38       1.0  0.1922359817984541  0.480937357482496  0.6351073862679898  1.0000
  C   C39       1.0  0.35988437325953976  0.2800323406721503  0.35127716651681606  1.0000
  C   C40       1.0  0.6401176568263549  0.7199658362765644  0.6487223589743465  1.0000
  S   S1        1.0  0.6372790036138766  0.48482080151610063  0.36924751287360635  1.0000
  S   S2        1.0  0.3627325818038684  0.5151805335039512  0.6307484809182426  1.0000
  S   S3        1.0  0.4506629159037912  0.1271225082692951  0.373721463650746  1.0000
  S   S4        1.0  0.5493396298939855  0.8728808402122469  0.6262784248505965  1.0000
  N   N1        1.0  0.19598888050158786  0.7079168907827763  0.3692566178100877  1.0000
  N   N2        1.0  0.8040080927023964  0.2920875193948689  0.6307425804588647  1.0000
  N   N3        1.0  0.3300967642978775  0.750843954274231  0.378004668926458  1.0000
  N   N4        1.0  0.669900877679069  0.24916464074967584  0.6219924095607395  1.0000
  N   N5        1.0  0.17784868407589732  0.8049075316074763  0.4832564012508982  1.0000
  N   N6        1.0  0.8221516835345425  0.1950958335567279  0.5167428857014684  1.0000
  N   N7        1.0  0.04159123266912699  0.47102410910852643  0.16567517860229944  1.0000
  N   N8        1.0  0.958401910857866  0.5289750946150987  0.8343257588064219  1.0000
  N   N9        1.0  0.1144189609617641  0.3820777548930748  0.11917431613073151  1.0000
  N   N10       1.0  0.8855762284399872  0.6179224454767578  0.8808283702973724  1.0000
  N   N11       1.0  0.8745605938046169  0.3843145745924232  0.1070913259799227  1.0000
  N   N12       1.0  0.1254380522490663  0.6156846606908745  0.8929074431670685  1.0000
  N   N13       1.0  0.29534885514317466  0.3928451227031573  0.334085490373397  1.0000
  N   N14       1.0  0.7046555061911234  0.607152050876316  0.6659121538747996  1.0000
  N   N15       1.0  0.9326480986207809  0.5410856185986219  0.3617906970132765  1.0000
  N   N16       1.0  0.06737171179297968  0.4589197562908964  0.6382096222131182  1.0000
  O   O1        1.0  0.3456369819598705  0.1476827479552725  0.6284861550188694  1.0000
  O   O2        1.0  0.6543666788671912  0.8523206254878204  0.37151236510506896  1.0000
  O   O3        1.0  0.21270101282681947  0.1297695002731629  0.7604482541271338  1.0000
  O   O4        1.0  0.7873060009097015  0.87023277487188  0.23955302532323228  1.0000
  O   O5        1.0  0.6582728561908764  0.30570865575592876  0.8212392830040258  1.0000
  O   O6        1.0  0.34172590142689774  0.6942895395561949  0.17875967399405823  1.0000
  O   O7        1.0  0.4220541477027736  0.2829113213072532  0.8633562665403574  1.0000
  O   O8        1.0  0.5779419757086258  0.7170806125777673  0.13664525205344094  1.0000
  O   O9        1.0  0.02942301692816328  0.7828991494861626  0.1618454408665428  1.0000
  O   O10       1.0  0.9705813132833896  0.21709798412985748  0.8381542063639174  1.0000
  O   O11       1.0  0.4330966348488942  0.9869776637147394  0.20503360450879177  1.0000
  O   O12       1.0  0.5669105112002057  0.013023598101426604  0.7949665274711534  1.0000
