data_image0
_chemical_formula_structural       Cu3H14C12N4Cl2O6
_chemical_formula_sum              "Cu3 H14 C12 N4 Cl2 O6"
_cell_length_a       4.954185880439731
_cell_length_b       8.638472443289428
_cell_length_c       12.136313228136734
_cell_angle_alpha    109.92702077266318
_cell_angle_beta     93.17432719221284
_cell_angle_gamma    115.83242022349022

_space_group_name_H-M_alt    "P 1"
_space_group_IT_number       1

loop_
  _space_group_symop_operation_xyz
  'x, y, z'

loop_
  _atom_site_type_symbol
  _atom_site_label
  _atom_site_symmetry_multiplicity
  _atom_site_fract_x
  _atom_site_fract_y
  _atom_site_fract_z
  _atom_site_occupancy
  Cu  Cu1       1.0  0.4995790171375986  0.49994452682472  3.845198163077252e-05  1.0000
  Cu  Cu2       1.0  0.19609345443969772  0.39905760447948074  0.3897451671589067  1.0000
  Cu  Cu3       1.0  0.8046520020496218  0.6007168010287388  0.610328703447145  1.0000
  H   H1        1.0  0.6259573692177796  0.1374238767868619  0.1950827261324264  1.0000
  H   H2        1.0  0.37438140871702785  0.8627812523720095  0.8050159599726641  1.0000
  H   H3        1.0  0.9514417331113943  0.7063608228761636  0.2478534875500741  1.0000
  H   H4        1.0  0.048389973448017494  0.293484112806965  0.7519729076605586  1.0000
  H   H5        1.0  0.5018931748167359  0.12837663971570382  0.4094401552044645  1.0000
  H   H6        1.0  0.4983379952839897  0.8715651045866296  0.5903412680966795  1.0000
  H   H7        1.0  0.24930565747383343  0.9443508723513577  0.4489705621819056  1.0000
  H   H8        1.0  0.751162943354409  0.055427884330605116  0.550730493857138  1.0000
  H   H9        1.0  0.26459614940321063  0.17014583552833068  0.5044497126156173  1.0000
  H   H10       1.0  0.7357634603495242  0.829582993031579  0.49541853479894365  1.0000
  H   H11       1.0  0.31047930679947194  0.40701691159677716  0.1886299619224303  1.0000
  H   H12       1.0  0.6892410180809705  0.5931291711109309  0.8113435894665955  1.0000
  H   H13       1.0  0.014651388806420534  0.43054305266715426  0.1831254975009315  1.0000
  H   H14       1.0  0.9850349650807781  0.5695066883032566  0.8171414951077409  1.0000
  C   C1        1.0  0.5716462491310423  0.8578197146090005  0.12180335126213036  1.0000
  C   C2        1.0  0.42812204042193985  0.1422313669567998  0.8782575637805579  1.0000
  C   C3        1.0  0.705180572196177  0.04293208381491811  0.2060912270268318  1.0000
  C   C4        1.0  0.2949190016274413  0.9571469774469462  0.7939518263549274  1.0000
  C   C5        1.0  0.025399089539739607  0.992365298713182  0.31912765591130926  1.0000
  C   C6        1.0  0.9747833089506699  0.007568735750247392  0.680756099171667  1.0000
  C   C7        1.0  0.8859404970569285  0.8053048048877969  0.23505878624357016  1.0000
  C   C8        1.0  0.11397566664373927  0.1946141501424705  0.7648214341792752  1.0000
  C   C9        1.0  0.3207616273146527  0.7796760058878575  0.011148176823183963  1.0000
  C   C10       1.0  0.6787692579315562  0.22048217394098663  0.9890123542823731  1.0000
  C   C11       1.0  0.2723786124083958  0.0616118671271622  0.4268090240781248  1.0000
  C   C12       1.0  0.7279375819807753  0.9382104700265259  0.5729835927022577  1.0000
  N   N1        1.0  0.6676556830188572  0.740592787136883  0.13628816153153167  1.0000
  N   N2        1.0  0.3320128247640995  0.2593680992502811  0.8636914044828216  1.0000
  N   N3        1.0  0.9366233798692959  0.11248322136567879  0.302355958895653  1.0000
  N   N4        1.0  0.06374460083357997  0.8875583732913129  0.6975914083701511  1.0000
  Cl  Cl1       1.0  0.2616420842474838  0.5101884712516735  0.5969994755784569  1.0000
  Cl  Cl2       1.0  0.738615334460434  0.48996657601757226  0.40310574808216865  1.0000
  O   O1        1.0  0.28347716478218393  0.6267456760617024  0.9249974874045037  1.0000
  O   O2        1.0  0.7155163486153526  0.37315053061366404  0.0752389260810347  1.0000
  O   O3        1.0  0.1668304047377659  0.8606791574076382  0.009316486679452339  1.0000
  O   O4        1.0  0.8331285998874522  0.1396842123072943  0.9908327160202005  1.0000
  O   O5        1.0  0.21136213718017424  0.4698826424211831  0.2396559201265731  1.0000
  O   O6        1.0  0.7886038548995771  0.5302977185755822  0.7604634269009621  1.0000
