data_image0
_chemical_formula_structural       Cu4H28C32N20O12
_chemical_formula_sum              "Cu4 H28 C32 N20 O12"
_cell_length_a       7.503778241472794
_cell_length_b       10.092436441917405
_cell_length_c       12.887757349000287
_cell_angle_alpha    90.00001550007958
_cell_angle_beta     90.00001643591126
_cell_angle_gamma    97.86286195378747

_space_group_name_H-M_alt    "P 1"
_space_group_IT_number       1

loop_
  _space_group_symop_operation_xyz
  'x, y, z'

loop_
  _atom_site_type_symbol
  _atom_site_label
  _atom_site_symmetry_multiplicity
  _atom_site_fract_x
  _atom_site_fract_y
  _atom_site_fract_z
  _atom_site_occupancy
  Cu  Cu1       1.0  0.7985468933556915  0.3670172624865701  0.4475062038089135  1.0000
  Cu  Cu2       1.0  0.2014536135149001  0.13298222808852966  0.9475062316087062  1.0000
  Cu  Cu3       1.0  0.20145360417500063  0.6329837541073573  0.5524941916052555  1.0000
  Cu  Cu4       1.0  0.7985451816157577  0.8670167886827542  0.0524933878749252  1.0000
  H   H1        1.0  0.05947079388559473  0.958299513238515  0.6086568169073486  1.0000
  H   H2        1.0  0.9405278385253911  0.541700052033491  0.10865674457239291  1.0000
  H   H3        1.0  0.9405272234973907  0.041702504934050914  0.39134280257653126  1.0000
  H   H4        1.0  0.05947191928314773  0.4582969635810984  0.8913420989809211  1.0000
  H   H5        1.0  0.645750331281107  0.19453459545260907  0.6307607092859016  1.0000
  H   H6        1.0  0.3542501825818931  0.30546576719445534  0.1307605935079152  1.0000
  H   H7        1.0  0.35424864878019957  0.8054654215635824  0.36923968612804  1.0000
  H   H8        1.0  0.6457503149487991  0.694535249399472  0.8692398019062607  1.0000
  H   H9        1.0  0.3544026904338154  0.0523934603969707  0.6656286446418633  1.0000
  H   H10       1.0  0.6455965104777732  0.44760691702647654  0.16562783205855422  1.0000
  H   H11       1.0  0.6455951420187418  0.9476075575308446  0.3343709748418959  1.0000
  H   H12       1.0  0.35440361719184216  0.5523920990777783  0.8343717874251838  1.0000
  H   H13       1.0  0.1919385715950668  0.14395456925784342  0.3540267154804511  1.0000
  H   H14       1.0  0.8080616978312064  0.35604388324555464  0.8540268926755274  1.0000
  H   H15       1.0  0.8080632584741494  0.8560464466687425  0.6459721280734527  1.0000
  H   H16       1.0  0.19193672743859488  0.6439531330362132  0.1459727268078623  1.0000
  H   H17       1.0  0.4864678779814753  0.2835112435422502  0.3331526810857426  1.0000
  H   H18       1.0  0.513532194787949  0.21648620026958557  0.8331527791627735  1.0000
  H   H19       1.0  0.5135347298356265  0.7164867709832025  0.6668469383981089  1.0000
  H   H20       1.0  0.486466600342709  0.7835128165016984  0.16684684032085784  1.0000
  H   H21       1.0  0.5689355321368978  0.5498768025078037  0.3536364971628174  1.0000
  H   H22       1.0  0.4310620902875328  0.9501238628082049  0.8536358545862371  1.0000
  H   H23       1.0  0.4310636328550572  0.450124214753302  0.6463646741814344  1.0000
  H   H24       1.0  0.5689357421652446  0.04987715511976631  0.1463645408277117  1.0000
  H   H25       1.0  0.7798055314358263  0.6043346450660323  0.34105248488803847  1.0000
  H   H26       1.0  0.220194564066766  0.8956650135789772  0.8410517952396219  1.0000
  H   H27       1.0  0.22019459623400914  0.39566437103837876  0.6589479105258959  1.0000
  H   H28       1.0  0.7798057485332849  0.10433500277003559  0.1589478242442368  1.0000
  C   C1        1.0  0.9494183032878  0.28083466754478076  0.2614358202764606  1.0000
  C   C2        1.0  0.050580766514713105  0.21916474840265474  0.7614342888912233  1.0000
  C   C3        1.0  0.05058200931267723  0.7191653488045517  0.7385653510677841  1.0000
  C   C4        1.0  0.9494182135465934  0.7808352686135436  0.2385661065227183  1.0000
  C   C5        1.0  0.08401510407541932  0.38791583043237676  0.3057080073063219  1.0000
  C   C6        1.0  0.9159866556760363  0.1120836020961704  0.805707375418315  1.0000
  C   C7        1.0  0.9159865410640224  0.6120841852499269  0.6942931640380294  1.0000
  C   C8        1.0  0.08401347199379937  0.887915414008248  0.1942930199956123  1.0000
  C   C9        1.0  0.07026603882737702  0.008173703311456402  0.5333526929007988  1.0000
  C   C10       1.0  0.929735382992682  0.4918246187622726  0.0333519376039035  1.0000
  C   C11       1.0  0.9297333110945729  0.9918283141940876  0.466646926583195  1.0000
  C   C12       1.0  0.07026685496355617  0.5081713952736779  0.9666476818796994  1.0000
  C   C13       1.0  0.5395678893700692  0.1831968938298374  0.5725573996953486  1.0000
  C   C14       1.0  0.4604310743269195  0.3168024456873725  0.0725580801629917  1.0000
  C   C15       1.0  0.46043109069101723  0.8168031231861975  0.42744221978840363  1.0000
  C   C16       1.0  0.5395679057346001  0.6831975713289752  0.9274430911811393  1.0000
  C   C17       1.0  0.3766374755024344  0.10323546355520109  0.5910035659123523  1.0000
  C   C18       1.0  0.6233628310955838  0.3967638827590251  0.0910027388681698  1.0000
  C   C19       1.0  0.6233615045586519  0.8967645534608409  0.40899605357139984  1.0000
  C   C20       1.0  0.3766372965738185  0.6032351333450734  0.9089961046853858  1.0000
  C   C21       1.0  0.24271232531668122  0.0889676523730429  0.5137441841511574  1.0000
  C   C22       1.0  0.7572866053408519  0.4110316633451064  0.0137449345841034  1.0000
  C   C23       1.0  0.7572868396748405  0.9110333648877499  0.4862554353327155  1.0000
  C   C24       1.0  0.24271333739854845  0.5889663525145538  0.9862554608297104  1.0000
  C   C25       1.0  0.2850188790385957  0.15467562055507494  0.4188975920169895  1.0000
  C   C26       1.0  0.7149814268299367  0.34532285819850733  0.9188969753082646  1.0000
  C   C27       1.0  0.7149829510308336  0.845325395371667  0.5811020274671108  1.0000
  C   C28       1.0  0.2850171833702931  0.6546751583280185  0.081102644175246  1.0000
  C   C29       1.0  0.4497631038235711  0.23231636173672143  0.4058557794775198  1.0000
  C   C30       1.0  0.5502356772492831  0.26768111216183854  0.9058558945327704  1.0000
  C   C31       1.0  0.5502385413154303  0.7676836539452623  0.5941438400064527  1.0000
  C   C32       1.0  0.4497616004122023  0.7323169050318655  0.09414450088081588  1.0000
  N   N1        1.0  0.04578607772594272  0.43863008023421196  0.39820587136011204  1.0000
  N   N2        1.0  0.9542130689100787  0.06136939105812898  0.8982052352467917  1.0000
  N   N3        1.0  0.9542144198047496  0.5613709363597081  0.601794524054057  1.0000
  N   N4        1.0  0.04578591115122786  0.9386306259580623  0.1017951601671498  1.0000
  N   N5        1.0  0.1879151127025693  0.5266436433605222  0.4224537110430262  1.0000
  N   N6        1.0  0.8120838809204755  0.9733570491358918  0.9224539136217729  1.0000
  N   N7        1.0  0.8120851998976946  0.473356372988647  0.5775466843710291  1.0000
  N   N8        1.0  0.1879164316800086  0.026642967213440696  0.0775472577224718  1.0000
  N   N9        1.0  0.3101346272691714  0.528718169499335  0.3475524044720331  1.0000
  N   N10       1.0  0.6898654718851205  0.9712814917760755  0.8475525859780574  1.0000
  N   N11       1.0  0.6898643527923484  0.4712818475170124  0.652448766872098  1.0000
  N   N12       1.0  0.31013350817618607  0.028718525240115905  0.1524478094358841  1.0000
  N   N13       1.0  0.24724525207295042  0.4423024837519094  0.2730545566549125  1.0000
  N   N14       1.0  0.7527568591956354  0.05769893605274491  0.7730538857538319  1.0000
  N   N15       1.0  0.7527552454579619  0.5576985328421742  0.7269466146894459  1.0000
  N   N16       1.0  0.24724345340440834  0.9423010802962679  0.22694573373003382  1.0000
  N   N17       1.0  0.5743953613755651  0.2482984008829803  0.4819985970922289  1.0000
  N   N18       1.0  0.42560497994139024  0.2517001034049073  0.9819986877388943  1.0000
  N   N19       1.0  0.4256047662940502  0.7517006152212814  0.518001022391509  1.0000
  N   N20       1.0  0.5743940001199095  0.7482999136112838  0.0180017076750474  1.0000
  O   O1        1.0  0.8110433544013064  0.2502185978851443  0.3208782653160895  1.0000
  O   O2        1.0  0.18895574879461208  0.24978084211630855  0.8208783156021581  1.0000
  O   O3        1.0  0.18895714312938597  0.7497824187087759  0.6791221300980865  1.0000
  O   O4        1.0  0.8110417137973088  0.7502181753221535  0.1791220798115489  1.0000
  O   O5        1.0  0.9734938826497271  0.22549694260432326  0.17688270374966214  1.0000
  O   O6        1.0  0.02650647219281411  0.2745024384615249  0.6768827318133644  1.0000
  O   O7        1.0  0.02650794741992263  0.774504073322575  0.8231176916646277  1.0000
  O   O8        1.0  0.9734925078684926  0.7254975785546663  0.323117663600577  1.0000
  O   O9        1.0  0.6900563280013614  0.5228850912709005  0.349293623276175  1.0000
  O   O10       1.0  0.30994262452276194  0.9771155716210274  0.8492945177938723  1.0000
  O   O11       1.0  0.3099426520597248  0.4771149257451341  0.6507059962075772  1.0000
  O   O12       1.0  0.6900565404691862  0.0228854456400782  0.1507066535503796  1.0000
