data_image0
_chemical_formula_structural       Cu4H20C32N4O20
_chemical_formula_sum              "Cu4 H20 C32 N4 O20"
_cell_length_a       6.592891707161342
_cell_length_b       8.090215005065739
_cell_length_c       16.52341893588681
_cell_angle_alpha    90.95775407929855
_cell_angle_beta     90.0007276998353
_cell_angle_gamma    90.00031231881502

_space_group_name_H-M_alt    "P 1"
_space_group_IT_number       1

loop_
  _space_group_symop_operation_xyz
  'x, y, z'

loop_
  _atom_site_type_symbol
  _atom_site_label
  _atom_site_symmetry_multiplicity
  _atom_site_fract_x
  _atom_site_fract_y
  _atom_site_fract_z
  _atom_site_occupancy
  Cu  Cu1       1.0  0.45938660509636264  0.8584549656715054  0.6457129007768287  1.0000
  Cu  Cu2       1.0  0.9597095323572162  0.6421479840998786  0.354396041802751  1.0000
  Cu  Cu3       1.0  0.5402318499368377  0.1421705314431136  0.3544181457823328  1.0000
  Cu  Cu4       1.0  0.04061726112078651  0.3584909029493275  0.6457193377459944  1.0000
  H   H1        1.0  0.15606679349217964  0.9883328835016344  0.8612828313324385  1.0000
  H   H2        1.0  0.6565579777998777  0.5117544186401021  0.1385460124838005  1.0000
  H   H3        1.0  0.8434909837035177  0.0118027617433327  0.138544376011204  1.0000
  H   H4        1.0  0.3439250383797442  0.4883578619674366  0.8612901589554838  1.0000
  H   H5        1.0  0.4571874787121147  0.18079197825692717  0.8011970860004425  1.0000
  H   H6        1.0  0.9580117502666069  0.31866731509701646  0.1989353262234346  1.0000
  H   H7        1.0  0.5419820042156971  0.8186618193266922  0.1989450637624159  1.0000
  H   H8        1.0  0.042829229256739196  0.680795842970504  0.8011669303197593  1.0000
  H   H9        1.0  0.5598804589831728  0.1256021856249987  0.9440735885024267  1.0000
  H   H10       1.0  0.06040354038742629  0.37341326238232847  0.0559117484851797  1.0000
  H   H11       1.0  0.4396120951888348  0.8733662848863305  0.0559184700784598  1.0000
  H   H12       1.0  0.9401659308889662  0.6256141043704702  0.9440473196830652  1.0000
  H   H13       1.0  0.36562852619369585  0.8865095115773087  0.478207497169862  1.0000
  H   H14       1.0  0.8648220082865733  0.6126960768416794  0.5218933913065058  1.0000
  H   H15       1.0  0.6352412716760084  0.11268690843996151  0.5219146120997422  1.0000
  H   H16       1.0  0.13434747286711973  0.38640738136125197  0.47821009370805  1.0000
  H   H17       1.0  0.23236963720688658  0.996439822071352  0.5373648095058599  1.0000
  H   H18       1.0  0.730947733186113  0.5040652658684196  0.462251046018693  1.0000
  H   H19       1.0  0.7691038377911779  0.004069050132507402  0.46227059485076444  1.0000
  H   H20       1.0  0.2677121046493625  0.49631105098653444  0.5373631129805645  1.0000
  C   C1        1.0  0.10250799755146289  0.0321542299310948  0.703817495149707  1.0000
  C   C2        1.0  0.6029313562015233  0.46821251821329923  0.2961693496365996  1.0000
  C   C3        1.0  0.8970088296256832  0.968238020439493  0.2961568481312256  1.0000
  C   C4        1.0  0.39746672315700954  0.5321575713180094  0.7038115427710636  1.0000
  C   C5        1.0  0.9498960370054305  0.06798041310128869  0.7689456651675712  1.0000
  C   C6        1.0  0.4507572198255119  0.43178580686037543  0.2309388917075452  1.0000
  C   C7        1.0  0.049238556946725985  0.9318210104677432  0.23093918581523104  1.0000
  C   C8        1.0  0.5501065088813561  0.5679796414886411  0.7689361009031401  1.0000
  C   C9        1.0  0.0046366973062106  0.0343496984364435  0.8482571943842103  1.0000
  C   C10       1.0  0.505263265789246  0.4653918824324705  0.15160135956864454  1.0000
  C   C11       1.0  0.994770917370509  0.9654228730070855  0.151596042294301  1.0000
  C   C12       1.0  0.49536384422852825  0.5343733876779594  0.8482603168286929  1.0000
  C   C13       1.0  0.7510696857603847  0.12319729623599329  0.7515953898184335  1.0000
  C   C14       1.0  0.2521176152085117  0.37625561006029073  0.2483144289608461  1.0000
  C   C15       1.0  0.24788289343080547  0.8762794728083064  0.24832294453648274  1.0000
  C   C16       1.0  0.7489402612194098  0.6231862270050283  0.7515795280355988  1.0000
  C   C17       1.0  0.6105845885161827  0.1397062001565672  0.8149216524331067  1.0000
  C   C18       1.0  0.11137558555255818  0.359652075393889  0.1850777579337546  1.0000
  C   C19       1.0  0.38863039551564776  0.8596580176182655  0.1850844827771212  1.0000
  C   C20       1.0  0.8894335390946964  0.6396858061275594  0.8148998049647957  1.0000
  C   C21       1.0  0.6822216510817681  0.17070415190758584  0.6684298700495717  1.0000
  C   C22       1.0  0.1831399436714207  0.3301248490352792  0.3316177887044702  1.0000
  C   C23       1.0  0.3168401433620147  0.8301490084632022  0.33162484266927816  1.0000
  C   C24       1.0  0.8177526100696397  0.6707169393493828  0.6684181103464155  1.0000
  C   C25       1.0  0.8656696650001408  0.0569071416818048  0.9117027182570112  1.0000
  C   C26       1.0  0.36624427995912606  0.44233231171973125  0.08819754271982559  1.0000
  C   C27       1.0  0.1337925529227135  0.9423345229897605  0.0881974992507892  1.0000
  C   C28       1.0  0.6343388422764704  0.556942733160021  0.9117028440741848  1.0000
  C   C29       1.0  0.6675334428610783  0.10913535293820328  0.8944658497538145  1.0000
  C   C30       1.0  0.16817651230675776  0.3899271036962304  0.10548516977404182  1.0000
  C   C31       1.0  0.33184535209403515  0.8899154262948555  0.1054878851661272  1.0000
  C   C32       1.0  0.8324778988974728  0.6091593992920962  0.8944590630789123  1.0000
  N   N1        1.0  0.9110272880347949  0.026971900179098892  0.9936751495149635  1.0000
  N   N2        1.0  0.4114584456819869  0.472240002006231  0.006182840580080999  1.0000
  N   N3        1.0  0.0885926748232961  0.9722420433086896  0.006185591243308899  1.0000
  N   N4        1.0  0.5890124335242959  0.5269837200463741  0.9936694781017652  1.0000
  O   O1        1.0  0.21794753192740046  0.9084698757266735  0.7151400823705103  1.0000
  O   O2        1.0  0.7183149469502579  0.591814642104204  0.2848104983941866  1.0000
  O   O3        1.0  0.7816345164905981  0.09185414108556958  0.2848157644538318  1.0000
  O   O4        1.0  0.28199364185078213  0.4084973131632027  0.7151676830908613  1.0000
  O   O5        1.0  0.7525897918261181  0.3008607834480869  0.6366497514021959  1.0000
  O   O6        1.0  0.2543440063528095  0.20182533054145316  0.3649822963129594  1.0000
  O   O7        1.0  0.24561960036048447  0.7018353907208948  0.3649762064497608  1.0000
  O   O8        1.0  0.7473600583263291  0.8008458530007232  0.636622968582806  1.0000
  O   O9        1.0  0.11119241750755289  0.12206832132432062  0.6412575146106931  1.0000
  O   O10       1.0  0.6109027576059773  0.3787184924727569  0.3588954801782549  1.0000
  O   O11       1.0  0.889050953442542  0.8786980806599588  0.3588724204011058  1.0000
  O   O12       1.0  0.3887596846808634  0.6220245171397564  0.641241599297615  1.0000
  O   O13       1.0  0.5443708170499875  0.08912579833605612  0.6316578775378119  1.0000
  O   O14       1.0  0.04310662638532389  0.4110528492042888  0.3674071966264592  1.0000
  O   O15       1.0  0.4568584457403446  0.9110678916730562  0.3674239991513629  1.0000
  O   O16       1.0  0.9555987054432007  0.5891477837269363  0.6316396057830573  1.0000
  O   O17       1.0  0.2927387224495348  0.8867110019647697  0.5300945685688063  1.0000
  O   O18       1.0  0.7919791007841256  0.6134455294382093  0.4699659025933656  1.0000
  O   O19       1.0  0.7080522049947928  0.1134402954529463  0.4699790422813166  1.0000
  O   O20       1.0  0.20725408778034898  0.3866091382582723  0.5300920921520316  1.0000
