data_image0
_chemical_formula_structural       Cs8H24C48N8O16
_chemical_formula_sum              "Cs8 H24 C48 N8 O16"
_cell_length_a       7.579185743
_cell_length_b       12.010146294
_cell_length_c       17.1949
_cell_angle_alpha    90.0
_cell_angle_beta     90.0
_cell_angle_gamma    90.0

_space_group_name_H-M_alt    "P 1"
_space_group_IT_number       1

loop_
  _space_group_symop_operation_xyz
  'x, y, z'

loop_
  _atom_site_type_symbol
  _atom_site_label
  _atom_site_symmetry_multiplicity
  _atom_site_fract_x
  _atom_site_fract_y
  _atom_site_fract_z
  _atom_site_occupancy
  Cs  Cs1       1.0  0.9336134830229383  0.1037622664615299  0.889078738463148  1.0000
  Cs  Cs2       1.0  0.4336099036806545  0.8962322137056233  0.8890781568953585  1.0000
  Cs  Cs3       1.0  0.0663897174527932  0.6037686654676833  0.389075249056404  1.0000
  Cs  Cs4       1.0  0.43360858427770677  0.6037620044330794  0.6109218431046415  1.0000
  Cs  Cs5       1.0  0.06639235625868171  0.8962313810762979  0.1109235878080099  1.0000
  Cs  Cs6       1.0  0.5663946161980249  0.10376809486680831  0.1109253325113855  1.0000
  Cs  Cs7       1.0  0.9336068860082065  0.39623247573407383  0.6109270772147537  1.0000
  Cs  Cs8       1.0  0.5663880191832931  0.39623247573407383  0.38907466748861447  1.0000
  H   H1        1.0  0.0209204531168083  0.63621123448074  0.9679800405934313  1.0000
  H   H2        1.0  0.5209240324590922  0.36378241305708775  0.9679812037290105  1.0000
  H   H3        1.0  0.9790655951206162  0.1362173249144618  0.4679800405934316  1.0000
  H   H4        1.0  0.5209279906679285  0.1362198228024383  0.532022867245523  1.0000
  H   H5        1.0  0.9790735115382958  0.3637757520224909  0.0320141437286665  1.0000
  H   H6        1.0  0.4790818068225279  0.6362220586619642  0.0320164699998244  1.0000
  H   H7        1.0  0.0209230919226968  0.8637821510286444  0.5320199594065684  1.0000
  H   H8        1.0  0.4790725710019075  0.8637771552526914  0.4679800405934316  1.0000
  H   H9        1.0  0.1444825390394158  0.4551609835702806  0.9168957074481412  1.0000
  H   H10       1.0  0.644490076590543  0.5448293334502523  0.9168986152870884  1.0000
  H   H11       1.0  0.8555021897950612  0.9551648846884575  0.4169038493972081  1.0000
  H   H12       1.0  0.6444979930082155  0.9551748762403562  0.5831019662807009  1.0000
  H   H13       1.0  0.8555048286009495  0.5448243376742994  0.0830978953061674  1.0000
  H   H14       1.0  0.3555052074675089  0.4551784687861017  0.08309905844174638  1.0000
  H   H15       1.0  0.1444917748600432  0.0448320933666722  0.5830990584417464  1.0000
  H   H16       1.0  0.35550916567634533  0.0448320933666722  0.4169032678294116  1.0000
  H   H17       1.0  0.2243433605741103  0.4437647860011965  0.7751554239919969  1.0000
  H   H18       1.0  0.7243443011104986  0.5562321920539333  0.7751583318309514  1.0000
  H   H19       1.0  0.7756519234839416  0.9437611934554511  0.2751577502631619  1.0000
  H   H20       1.0  0.7243508981252305  0.9437686871193733  0.724842249736838  1.0000
  H   H21       1.0  0.7756545622898301  0.5562296941659568  0.2248370156267256  1.0000
  H   H22       1.0  0.27564834414165773  0.4437722796651258  0.22483759719451504  1.0000
  H   H23       1.0  0.2243512769917899  0.0562341193410276  0.7248405050334696  1.0000
  H   H24       1.0  0.275657579962278  0.0562341193410276  0.2751612396698988  1.0000
  C   C1        1.0  0.0836527856024105  0.7025609674892479  0.7780766390034228  1.0000
  C   C2        1.0  0.5836497679299556  0.2974410063418347  0.7780772205712123  1.0000
  C   C3        1.0  0.9163530536792095  0.20256289477634232  0.278081291545746  1.0000
  C   C4        1.0  0.583647129124067  0.2025612295176913  0.7219221978609908  1.0000
  C   C5        1.0  0.9163517342762688  0.2974360105658818  0.2219251056999454  1.0000
  C   C6        1.0  0.4163481549339849  0.7025651306358682  0.22192452413215585  1.0000
  C   C7        1.0  0.0836501467965149  0.7974365811667639  0.7219204531576224  1.0000
  C   C8        1.0  0.4163507937398734  0.7974449074600116  0.2780807099779565  1.0000
  C   C9        1.0  0.0302763394091414  0.715963801731192  0.8559869496187815  1.0000
  C   C10       1.0  0.5302746411396413  0.2840381720998906  0.8559886943221571  1.0000
  C   C11       1.0  0.9697281804695309  0.2159682269062628  0.3559904390255255  1.0000
  C   C12       1.0  0.5302720023337457  0.21595990061301512  0.644012468813429  1.0000
  C   C13       1.0  0.9697242222606945  0.2840356742119141  0.1440147950845869  1.0000
  C   C14       1.0  0.4697219623213584  0.7159629691018666  0.144012468813429  1.0000
  C   C15       1.0  0.0302723812003052  0.7840337469248126  0.6440107241100533  1.0000
  C   C16       1.0  0.4697272399331425  0.7840329142954872  0.355987531186571  1.0000
  C   C17       1.0  0.948597942284259  0.822329700091494  0.8860731961221047  1.0000
  C   C18       1.0  0.4486035987626025  0.1776656127049847  0.8860743592576839  1.0000
  C   C19       1.0  0.0514012999826292  0.3223299621199445  0.3860749408254804  1.0000
  C   C20       1.0  0.4486035987626025  0.32233995367184326  0.6139279670134741  1.0000
  C   C21       1.0  0.0513999805796814  0.1776597842997134  0.1139273854456846  1.0000
  C   C22       1.0  0.5514141151455334  0.8223413569020437  0.1139268038778951  1.0000
  C   C23       1.0  0.9486045392989908  0.6776661833058597  0.6139273854456846  1.0000
  C   C24       1.0  0.5513916852954495  0.6776661833058597  0.3860697067153609  1.0000
  C   C25       1.0  0.0552856222565836  0.6262105236600846  0.9067147817085299  1.0000
  C   C26       1.0  0.5552878821959197  0.373788119653689  0.9067159448441087  1.0000
  C   C27       1.0  0.944710981204409  0.1262274382750306  0.4067194342508528  1.0000
  C   C28       1.0  0.5552905210018153  0.1262116183178605  0.5932834735881016  1.0000
  C   C29       1.0  0.944705703592625  0.3737847891363941  0.0932823104525156  1.0000
  C   C30       1.0  0.4447087212650729  0.6262138541773865  0.0932823104525156  1.0000
  C   C31       1.0  0.0552882610624792  0.8737811965906417  0.5932823104525153  1.0000
  C   C32       1.0  0.4447113600709685  0.8737795313319907  0.4067165264118983  1.0000
  C   C33       1.0  0.1240304739685527  0.5265156514503957  0.8787512576403456  1.0000
  C   C34       1.0  0.6240327339078888  0.4734788287167576  0.8787541654793001  1.0000
  C   C35       1.0  0.8759727265071717  0.0265300681773724  0.37876230742836725  1.0000
  C   C36       1.0  0.6240353727137846  0.0265259050307449  0.6212452529529102  1.0000
  C   C37       1.0  0.8759608518806559  0.4734779960874321  0.12124699765627868  1.0000
  C   C38       1.0  0.3759638695531038  0.5265248103729689  0.12124467138512068  1.0000
  C   C39       1.0  0.1240317933715005  0.9734760688003306  0.6212446713851207  1.0000
  C   C40       1.0  0.37596782776194  0.9734744035416796  0.3787535839115108  1.0000
  C   C41       1.0  0.1690511413027949  0.5199553649999871  0.8001349237273843  1.0000
  C   C42       1.0  0.669053401242131  0.48004411094311916  0.8001389947019175  1.0000
  C   C43       1.0  0.8309507397699889  0.0199622880630344  0.3001395762697071  1.0000
  C   C44       1.0  0.6690560400480194  0.0199606228043834  0.6998610052980823  1.0000
  C   C45       1.0  0.8309454621582049  0.4800416130551426  0.19985926059471373  1.0000
  C   C46       1.0  0.330941882815921  0.5199611934052584  0.1998580974591277  1.0000
  C   C47       1.0  0.1690564189145789  0.9800388531387227  0.6998615868658717  1.0000
  C   C48       1.0  0.3309458410247572  0.9800430162853431  0.3001384131341283  1.0000
  N   N1        1.0  0.1512312851098301  0.6061674705525419  0.7511715683138573  1.0000
  N   N2        1.0  0.6512309062432777  0.39383367064920805  0.7511750577206013  1.0000
  N   N3        1.0  0.8487719153658944  0.1061718957276199  0.2511692420426996  1.0000
  N   N4        1.0  0.6512322256462184  0.10616939783964341  0.7488284316861424  1.0000
  N   N5        1.0  0.8487745541717899  0.3938311727612316  0.2488214528726544  1.0000
  N   N6        1.0  0.348765697217722  0.6061699684405184  0.24882261600823338  1.0000
  N   N7        1.0  0.15123260451277795  0.8938267475861608  0.7488272685505563  1.0000
  N   N8        1.0  0.3487670166206698  0.8938334086207576  0.25117331301723306  1.0000
  O   O1        1.0  0.809815223972933  0.8562809934411605  0.8528179867286239  1.0000
  O   O2        1.0  0.3098103252277014  0.1437126540966673  0.8528208945675784  1.0000
  O   O3        1.0  0.19017214366743931  0.35628958176285863  0.352826128677691  1.0000
  O   O4        1.0  0.3098010894070811  0.3562879165042077  0.6471820132713759  1.0000
  O   O5        1.0  0.1901972123234188  0.1437151519846438  0.1471831764069549  1.0000
  O   O6        1.0  0.6901994722627549  0.8562859892171133  0.1471884105170744  1.0000
  O   O7        1.0  0.8098099463611491  0.6437140573268678  0.6471791054324214  1.0000
  O   O8        1.0  0.6901915558450753  0.6437148899561933  0.3528150788896695  1.0000
  O   O9        1.0  0.0271110917409274  0.8675048367400039  0.9432936510244331  1.0000
  O   O10       1.0  0.5271199486949953  0.1324921413151259  0.943291324753268  1.0000
  O   O11       1.0  0.9728802341082812  0.36751259243237666  0.4432948141600122  1.0000
  O   O12       1.0  0.5271133516802635  0.3675042661391217  0.5567069305433563  1.0000
  O   O13       1.0  0.9728960669436404  0.1324879781685055  0.056708093678942396  1.0000
  O   O14       1.0  0.4728964458101927  0.8675148282919026  0.056706348975566784  1.0000
  O   O15       1.0  0.0271058141291434  0.632491046657357  0.5567086752467318  1.0000
  O   O16       1.0  0.4728990846160883  0.632489381398706  0.4432860906431556  1.0000
