data_image0
_chemical_formula_structural       AlH12C27Cl3O6
_chemical_formula_sum              "Al1 H12 C27 Cl3 O6"
_cell_length_a       3.9934829357604813
_cell_length_b       15.998984840344344
_cell_length_c       16.073527464785897
_cell_angle_alpha    119.77305329978884
_cell_angle_beta     88.20455462184253
_cell_angle_gamma    92.0521584282219

_space_group_name_H-M_alt    "P 1"
_space_group_IT_number       1

loop_
  _space_group_symop_operation_xyz
  'x, y, z'

loop_
  _atom_site_type_symbol
  _atom_site_label
  _atom_site_symmetry_multiplicity
  _atom_site_fract_x
  _atom_site_fract_y
  _atom_site_fract_z
  _atom_site_occupancy
  Al  Al1       1.0  0.9932152702258605  0.5013908303514967  0.5016885938982087  1.0000
  H   H1        1.0  0.507066851753997  0.9252712127602223  0.07944034856993194  1.0000
  H   H2        1.0  0.4705194458484313  0.6550489512722917  0.0764477837431769  1.0000
  H   H3        1.0  0.5303672739666752  0.9207057604488468  0.3441569247507489  1.0000
  H   H4        1.0  0.7417859688326016  0.24060639329535144  0.2554240599957965  1.0000
  H   H5        1.0  0.7636221359278675  0.0629612162210123  0.1634001265166276  1.0000
  H   H6        1.0  0.24254787978355807  0.04944246121712579  0.39620631805535583  1.0000
  H   H7        1.0  0.2583478501897004  0.8450043265749654  0.9472667605206981  1.0000
  H   H8        1.0  0.7314111691234612  0.5182417693206958  0.7651570450395371  1.0000
  H   H9        1.0  0.7451405153307886  0.6054520448045438  0.9420952309408225  1.0000
  H   H10       1.0  0.7647314061043247  0.6055270898859176  0.1542086144806946  1.0000
  H   H11       1.0  0.24743116643840316  0.7370102792645168  0.47740077483454263  1.0000
  H   H12       1.0  0.23981081405430157  0.8327056647084345  0.39472146320787976  1.0000
  C   C1        1.0  0.48821562752193154  0.5780019043087562  0.6489348157241396  1.0000
  C   C2        1.0  0.5092621029215181  0.569058609126337  0.4218536083288528  1.0000
  C   C3        1.0  0.4824171468492793  0.3531953312060097  0.4319727412831044  1.0000
  C   C4        1.0  0.4996728666135509  0.7839535665961819  0.06520421228614029  1.0000
  C   C5        1.0  0.5052423026186404  0.8849520510055484  0.11767351833340456  1.0000
  C   C6        1.0  0.5066742276241383  0.9354033481661687  0.21813821363775787  1.0000
  C   C7        1.0  0.5108785261991926  0.8825542983436986  0.26633692958653643  1.0000
  C   C8        1.0  0.5030517661623577  0.7816136038504453  0.2162197074882144  1.0000
  C   C9        1.0  0.4931100307970551  0.7334448841671699  0.11582434944775591  1.0000
  C   C10       1.0  0.6310443293874998  0.19781064480338978  0.2853972601971223  1.0000
  C   C11       1.0  0.6404872675761552  0.09775578418860677  0.2336631612990062  1.0000
  C   C12       1.0  0.50357234381147  0.041936634548427776  0.2722743378050653  1.0000
  C   C13       1.0  0.3596254042492433  0.08988942907143375  0.3645963436861949  1.0000
  C   C14       1.0  0.35590814093023937  0.19008214732013326  0.4168272264423863  1.0000
  C   C15       1.0  0.48843900981446353  0.24532815179327364  0.3775965833329452  1.0000
  C   C16       1.0  0.36937307559799837  0.7741901823681303  0.9090825647815922  1.0000
  C   C17       1.0  0.3721276329752001  0.7256529968565103  0.8092926416058648  1.0000
  C   C18       1.0  0.4938532827806269  0.6321879777678133  0.7563635887549226  1.0000
  C   C19       1.0  0.6253219338940991  0.5897180476032986  0.8058744848827575  1.0000
  C   C20       1.0  0.6298300574619375  0.6388233125612786  0.9055622932070552  1.0000
  C   C21       1.0  0.49817587705200583  0.7316289497914922  0.959078138897411  1.0000
  C   C22       1.0  0.6485239867684883  0.6357567261326906  0.2251185706219517  1.0000
  C   C23       1.0  0.6536783064110311  0.5824940519653053  0.2722104764893061  1.0000
  C   C24       1.0  0.5124111508450468  0.6192422064472821  0.3648756498349996  1.0000
  C   C25       1.0  0.3641658656789558  0.7100372577427693  0.4067744605441562  1.0000
  C   C26       1.0  0.36305649064532713  0.763559175377935  0.36042857313893245  1.0000
  C   C27       1.0  0.5055746218688667  0.7269621772789847  0.26806001477890373  1.0000
  Cl  Cl1       1.0  0.18289669385048768  0.24596600379566516  0.5313080661813674  1.0000
  Cl  Cl2       1.0  0.2195004424663836  0.7823296950654921  0.7509956929811354  1.0000
  Cl  Cl3       1.0  0.8257261633943215  0.46956716933774345  0.20947532753935866  1.0000
  O   O1        1.0  0.24952393798268696  0.3924713825991687  0.4122365298453944  1.0000
  O   O2        1.0  0.24495422331685288  0.5187372130391807  0.6098170686883934  1.0000
  O   O3        1.0  0.27307813019585575  0.5900562306658016  0.4842104018543481  1.0000
  O   O4        1.0  0.7128468875255292  0.3973876566866394  0.4921624389883805  1.0000
  O   O5        1.0  0.741233970309757  0.5106174592225584  0.40760048970960144  1.0000
  O   O6        1.0  0.7289426433383355  0.5942299045620699  0.6049769522247247  1.0000
