data_image0
_chemical_formula_structural       V4H16C32O20
_chemical_formula_sum              "V4 H16 C32 O20"
_cell_length_a       6.785537192090428
_cell_length_b       13.744451553241886
_cell_length_c       16.3277859890664
_cell_angle_alpha    89.99993998141186
_cell_angle_beta     89.99967792008371
_cell_angle_gamma    90.00009057930039

_space_group_name_H-M_alt    "P 1"
_space_group_IT_number       1

loop_
  _space_group_symop_operation_xyz
  'x, y, z'

loop_
  _atom_site_type_symbol
  _atom_site_label
  _atom_site_symmetry_multiplicity
  _atom_site_fract_x
  _atom_site_fract_y
  _atom_site_fract_z
  _atom_site_occupancy
  V   V1        1.0  0.8223924574904302  0.2335756792576831  0.7500001880928764  1.0000
  V   V2        1.0  0.6777706751206336  0.7336442620411249  0.24999174003063732  1.0000
  V   V3        1.0  0.17774285896682332  0.7663567119397784  0.24999231027245367  1.0000
  V   V4        1.0  0.3224353816718448  0.2664278217359096  0.7500044329061453  1.0000
  H   H1        1.0  0.2117066145632833  0.0989009455336429  0.5440257013818766  1.0000
  H   H2        1.0  0.28818761481563376  0.5993646024553599  0.4560514248640928  1.0000
  H   H3        1.0  0.7880659950126373  0.9005158515345641  0.043856423060511  1.0000
  H   H4        1.0  0.7116236567823935  0.40123762850355854  0.9558768990792929  1.0000
  H   H5        1.0  0.7880558426923159  0.9005134191378658  0.4561395093740544  1.0000
  H   H6        1.0  0.7116323316857631  0.40123060222003204  0.544124196989543  1.0000
  H   H7        1.0  0.2116920432274085  0.09888832742196738  0.9559719386061403  1.0000
  H   H8        1.0  0.2881977657234316  0.5993561212423018  0.04395819895677991  1.0000
  H   H9        1.0  0.8183368188065289  0.015479787154852398  0.5748657079668578  1.0000
  H   H10       1.0  0.6814747745805649  0.5161629346011766  0.4253567000045635  1.0000
  H   H11       1.0  0.18154000846652715  0.9839449755379731  0.0747339082793204  1.0000
  H   H12       1.0  0.3184695459668703  0.48440513762437837  0.9252081296497323  1.0000
  H   H13       1.0  0.18154206306775936  0.9839593145434833  0.42526520527884054  1.0000
  H   H14       1.0  0.3184630696583639  0.48441553580816793  0.5748005481314777  1.0000
  H   H15       1.0  0.8183344538722466  0.015478847440000701  0.9251281381521254  1.0000
  H   H16       1.0  0.6814653528901787  0.5161733329763649  0.0746435044889751  1.0000
  C   C1        1.0  0.5330309850245811  0.1320561278249528  0.6362656178908921  1.0000
  C   C2        1.0  0.96705455919912  0.6322601190430889  0.3637631493326055  1.0000
  C   C3        1.0  0.4671088132882488  0.8677498046090549  0.13624533449794277  1.0000
  C   C4        1.0  0.0330674348628435  0.36795297499153895  0.8637182443846427  1.0000
  C   C5        1.0  0.4670984348913336  0.867751121964801  0.3637495412955545  1.0000
  C   C6        1.0  0.0330733916290384  0.367952385169268  0.6362838572233187  1.0000
  C   C7        1.0  0.5330309228487167  0.13205235221447248  0.8637367522217332  1.0000
  C   C8        1.0  0.9670443056050716  0.6322558914806179  0.1362350568970641  1.0000
  C   C9        1.0  0.5167356900540483  0.06379738835804011  0.5661355227858919  1.0000
  C   C10       1.0  0.9832612726231036  0.564218767447251  0.43399926058400956  1.0000
  C   C11       1.0  0.48321052191007413  0.9357772634273898  0.0659975488457647  1.0000
  C   C12       1.0  0.016702087893563103  0.4362088739653842  0.9338563395926515  1.0000
  C   C13       1.0  0.48319772120476767  0.9357792232577753  0.4339953903337701  1.0000
  C   C14       1.0  0.016703096913353505  0.43621055181704793  0.5661469634361753  1.0000
  C   C15       1.0  0.516721417358049  0.06379134512604878  0.933862660094178  1.0000
  C   C16       1.0  0.9832549149722071  0.5642189903578583  0.0659995817587102  1.0000
  C   C17       1.0  0.3365865330920527  0.0549265824528149  0.5243217402353866  1.0000
  C   C18       1.0  0.16332580169082433  0.5553885663223  0.4758191208983504  1.0000
  C   C19       1.0  0.6632673980730673  0.9445484436225301  0.024142302513773507  1.0000
  C   C20       1.0  0.8365647835621034  0.44515907306668373  0.9756118030498797  1.0000
  C   C21       1.0  0.66325992697341  0.944545259771992  0.4758538820956701  1.0000
  C   C22       1.0  0.8365516191743724  0.4451557085691675  0.5243877360093663  1.0000
  C   C23       1.0  0.33657464316510755  0.05491685073187111  0.9756750348745983  1.0000
  C   C24       1.0  0.16332442976558076  0.5553808366468972  0.024190222474239  1.0000
  C   C25       1.0  0.6800266116914244  0.008301933564979398  0.5415037258190978  1.0000
  C   C26       1.0  0.8197774402763472  0.5089058724667127  0.4587266505822286  1.0000
  C   C27       1.0  0.3198152972941628  0.9911388761077974  0.04131953751640081  1.0000
  C   C28       1.0  0.18011190155734616  0.49161705035684394  0.9585508369987396  1.0000
  C   C29       1.0  0.319812479433736  0.9911488092456937  0.45868292068246325  1.0000
  C   C30       1.0  0.18010734913752202  0.4916202132648094  0.5414575455675319  1.0000
  C   C31       1.0  0.6800193751401695  0.008305318844712401  0.9584886130965273  1.0000
  C   C32       1.0  0.8197640478773282  0.5089017599496302  0.0412713994963951  1.0000
  O   O1        1.0  0.7047358917918558  0.14883633292636492  0.6653336492861754  1.0000
  O   O2        1.0  0.7954134242024011  0.6490432755915877  0.3346920404072975  1.0000
  O   O3        1.0  0.29540351403466053  0.850959378381674  0.1652892847713474  1.0000
  O   O4        1.0  0.20473696286484266  0.3511647606139334  0.8346816587857617  1.0000
  O   O5        1.0  0.2953846856089016  0.8509687341696053  0.33470417066917696  1.0000
  O   O6        1.0  0.20473368517544804  0.35116559076605813  0.6653255683883046  1.0000
  O   O7        1.0  0.7047391697437534  0.1488456887152978  0.8346689162801724  1.0000
  O   O8        1.0  0.7954234102466701  0.6490477435636566  0.1653083896118375  1.0000
  O   O9        1.0  0.5504487582672368  0.30641146913967526  0.7499998608565903  1.0000
  O   O10       1.0  0.9496660114417923  0.8065123580957092  0.2500018006240552  1.0000
  O   O11       1.0  0.44971161101112506  0.6934845436858056  0.24999692466624168  1.0000
  O   O12       1.0  0.050432463776992606  0.19357937019691457  0.7500023343175074  1.0000
  O   O13       1.0  0.3727786540015643  0.16971310407725324  0.6626821071482851  1.0000
  O   O14       1.0  0.127456222036237  0.669738142262716  0.3372792011985908  1.0000
  O   O15       1.0  0.6274388963474209  0.8302477677795823  0.1627208906134783  1.0000
  O   O16       1.0  0.8727678137467195  0.3302865439136369  0.8373113718563304  1.0000
  O   O17       1.0  0.6274377177200351  0.8302476620493734  0.337284055634349  1.0000
  O   O18       1.0  0.8727734139428025  0.3302859221048066  0.662687573992784  1.0000
  O   O19       1.0  0.37277747472578676  0.1697006296747645  0.8373193789765453  1.0000
  O   O20       1.0  0.1274500320313408  0.6697411582691188  0.1627239980728206  1.0000
