data_image0
_chemical_formula_structural       Hg2H48C38S4Br4
_chemical_formula_sum              "Hg2 H48 C38 S4 Br4"
_cell_length_a       7.438489503218326
_cell_length_b       9.3286106299675
_cell_length_c       16.04755613141582
_cell_angle_alpha    104.00205910571164
_cell_angle_beta     96.97255806586725
_cell_angle_gamma    100.10401415747019

_space_group_name_H-M_alt    "P 1"
_space_group_IT_number       1

loop_
  _space_group_symop_operation_xyz
  'x, y, z'

loop_
  _atom_site_type_symbol
  _atom_site_label
  _atom_site_symmetry_multiplicity
  _atom_site_fract_x
  _atom_site_fract_y
  _atom_site_fract_z
  _atom_site_occupancy
  Hg  Hg1       1.0  0.8455160092255126  0.691976216500386  0.7380469560690985  1.0000
  Hg  Hg2       1.0  0.15448391847223772  0.3080211096037075  0.2619531503070576  1.0000
  H   H1        1.0  0.19837386910476337  0.18274188273316838  0.016541786439674393  1.0000
  H   H2        1.0  0.8016236016480748  0.8172611396490836  0.9834570981951388  1.0000
  H   H3        1.0  0.4446219128670774  0.41131361824469076  0.07812381659690709  1.0000
  H   H4        1.0  0.5553741979295381  0.5886894425011205  0.9218781111348022  1.0000
  H   H5        1.0  0.7480944138169077  0.43200661771576426  0.02507595811310641  1.0000
  H   H6        1.0  0.25190707954057956  0.5679963965377295  0.9749306338960935  1.0000
  H   H7        1.0  0.801438004327494  0.21856959576255963  0.9102838225276599  1.0000
  H   H8        1.0  0.1985651638148838  0.7814345145880209  0.0897205246470918  1.0000
  H   H9        1.0  0.5540739055224079  0.9853763805761129  0.8501142186106209  1.0000
  H   H10       1.0  0.4459268893495291  0.0146288815389255  0.1498876593175638  1.0000
  H   H11       1.0  0.1486720923818652  0.881248238878264  0.9362132277423426  1.0000
  H   H12       1.0  0.8513260059074098  0.11875705638681212  0.06378787699757282  1.0000
  H   H13       1.0  0.2575506011931878  0.8430344584555555  0.8433957851838088  1.0000
  H   H14       1.0  0.7424451968956589  0.15696746386806382  0.15660472070525336  1.0000
  H   H15       1.0  0.2118108564464052  0.9855027553644008  0.7231404858950867  1.0000
  H   H16       1.0  0.7881866958600126  0.014495726465710798  0.2768577748146868  1.0000
  H   H17       1.0  0.9919905384093327  0.019201131587585997  0.6882267455738216  1.0000
  H   H18       1.0  0.008007962624844819  0.9808007457013375  0.31177266276294807  1.0000
  H   H19       1.0  0.2946046735106265  0.24726116741782528  0.8304396988346809  1.0000
  H   H20       1.0  0.7053966056597858  0.7527361361689273  0.16955985876533222  1.0000
  H   H21       1.0  0.0712029728233148  0.2757900983780672  0.7976077903057543  1.0000
  H   H22       1.0  0.9287995762661935  0.7242117232434708  0.20239184244314862  1.0000
  H   H23       1.0  0.1324594028898005  0.2607065908346727  0.6481797572336488  1.0000
  H   H24       1.0  0.8675472758086114  0.7392906345673395  0.3518194760023405  1.0000
  H   H25       1.0  0.3503986564990598  0.2172618127051392  0.6740377145480565  1.0000
  H   H26       1.0  0.6496073003840053  0.7827377041354991  0.3259636639889933  1.0000
  H   H27       1.0  0.24321632265984047  0.5111869535634596  0.7658759834139204  1.0000
  H   H28       1.0  0.7567879700427868  0.4888114473723347  0.2341245220566321  1.0000
  H   H29       1.0  0.4653942005383059  0.4669246768181666  0.7805355061889969  1.0000
  H   H30       1.0  0.5346107303052037  0.533075977192702  0.2194641014857126  1.0000
  H   H31       1.0  0.258548158721517  0.4998200379289202  0.6099140859596589  1.0000
  H   H32       1.0  0.7414500211213236  0.5001807167840225  0.39008639485522417  1.0000
  H   H33       1.0  0.48015488522728583  0.4491758583753691  0.6212388793167775  1.0000
  H   H34       1.0  0.5198436200486682  0.5508260109904484  0.3787592818596153  1.0000
  H   H35       1.0  0.5669666484878776  0.6648853782710448  0.5498353800029179  1.0000
  H   H36       1.0  0.4330282029940875  0.3351131446322099  0.4501633546789634  1.0000
  H   H37       1.0  0.355748340002755  0.730430007082873  0.5578359690559722  1.0000
  H   H38       1.0  0.644249208061879  0.2695684826703442  0.4421635388141781  1.0000
  H   H39       1.0  0.5238832490012939  0.015045316615136499  0.7159731571506711  1.0000
  H   H40       1.0  0.4761135878524457  0.9849554447689426  0.2840253781196012  1.0000
  H   H41       1.0  0.6870699768869385  0.2723588442315616  0.7195553717362486  1.0000
  H   H42       1.0  0.31292456824993314  0.7276385283648494  0.2804400703624168  1.0000
  H   H43       1.0  0.8507926949426405  0.3135571187561651  0.598240521639788  1.0000
  H   H44       1.0  0.1492079566913418  0.6864379119477562  0.4017568158551157  1.0000
  H   H45       1.0  0.8709038822076067  0.09221275378173739  0.47904315370229256  1.0000
  H   H46       1.0  0.1290998581494947  0.9077788456037509  0.5209563784786866  1.0000
  H   H47       1.0  0.7175180354631221  0.8329515187377722  0.4786478313186038  1.0000
  H   H48       1.0  0.28247752722974434  0.1670447325346132  0.5213518759631626  1.0000
  C   C1        1.0  0.33119189704834895  0.18872012172005978  0.9936354618381529  1.0000
  C   C2        1.0  0.6688049355636136  0.8112806475871251  0.006364320592496084  1.0000
  C   C3        1.0  0.4704368351303713  0.31840486867100276  0.028367220866108787  1.0000
  C   C4        1.0  0.5295622849566752  0.6815992973469635  0.9716369018965166  1.0000
  C   C5        1.0  0.6395505554793673  0.33028827441104625  0.9981548824419023  1.0000
  C   C6        1.0  0.36045197876390495  0.6697135749413548  0.0018491153683158161  1.0000
  C   C7        1.0  0.6694410659957553  0.21050807950457073  0.9337860778673033  1.0000
  C   C8        1.0  0.3305607506739534  0.7894960533633507  0.0662188180835983  1.0000
  C   C9        1.0  0.5300166958349662  0.08020807443474347  0.89936478261464  1.0000
  C   C10       1.0  0.46998409903697064  0.919797187680295  0.10063709531354444  1.0000
  C   C11       1.0  0.3590739386283063  0.06867380702233562  0.9282453490208056  1.0000
  C   C12       1.0  0.6409268604854149  0.9313314471696044  0.0717552817470022  1.0000
  C   C13       1.0  0.20787732123235264  0.9312374320948892  0.8875933368364741  1.0000
  C   C14       1.0  0.7921204622282617  0.06876672870955498  0.1124069696409791  1.0000
  C   C15       1.0  0.1061427385581197  0.04886331005264569  0.7438828251852955  1.0000
  C   C16       1.0  0.8938554476473967  0.9511374327756383  0.2561157848890189  1.0000
  C   C17       1.0  0.1811709527680421  0.21934378747987884  0.7746742901593534  1.0000
  C   C18       1.0  0.8188299300201364  0.7806569221983748  0.22532509310323687  1.0000
  C   C19       1.0  0.2495607576262628  0.28025425638247714  0.7014357550857255  1.0000
  C   C20       1.0  0.750443854146809  0.7197452710908578  0.2985643014869055  1.0000
  C   C21       1.0  0.33858577031706  0.4487471916409475  0.7326194251176402  1.0000
  C   C22       1.0  0.6614171751546821  0.5512512238890964  0.2673803819686853  1.0000
  C   C23       1.0  0.3848638512300937  0.5090562522511134  0.656073024200694  1.0000
  C   C24       1.0  0.6151356822063078  0.4909444759829283  0.3439262842578472  1.0000
  C   C25       1.0  0.5016097395851914  0.7488574822733584  0.5885640716717476  1.0000
  C   C26       1.0  0.4983874894090049  0.2511398809423255  0.4114358850963242  1.0000
  C   C27       1.0  0.6057162694618936  0.9060732092223701  0.5957871089761396  1.0000
  C   C28       1.0  0.3942799271300714  0.0939253030481879  0.40421294767016036  1.0000
  C   C29       1.0  0.5998220906792113  0.030871826427620895  0.6637116177518081  1.0000
  C   C30       1.0  0.40017482984898567  0.9691243904427649  0.33628567001323967  1.0000
  C   C31       1.0  0.6893912754835654  0.17652816363912646  0.6652784451548897  1.0000
  C   C32       1.0  0.3106065958932901  0.8234714447285184  0.33471936665696944  1.0000
  C   C33       1.0  0.783942283729047  0.19941425923762068  0.5980151229978503  1.0000
  C   C34       1.0  0.2160597193776042  0.8005807489489526  0.4019816657209105  1.0000
  C   C35       1.0  0.7939255622964794  0.07515746271894128  0.5308306979875823  1.0000
  C   C36       1.0  0.20607706622570987  0.924839822312016  0.46916893441646573  1.0000
  C   C37       1.0  0.7072129158264316  0.9296736163007749  0.5303862748420585  1.0000
  C   C38       1.0  0.2927857483148911  0.07031917988386739  0.4696118856446461  1.0000
  S   S1        1.0  0.0074401267329023395  0.9739437698394865  0.8269194500223024  1.0000
  S   S2        1.0  0.9925556755977213  0.026058144561027095  0.1730798087063903  1.0000
  S   S3        1.0  0.49338416365971227  0.7089841345582285  0.6937509397255113  1.0000
  S   S4        1.0  0.5066160852293606  0.2910143141218454  0.3062480941725312  1.0000
  Br  Br1       1.0  0.948946733062172  0.6362715898382375  0.5864972417978365  1.0000
  Br  Br2       1.0  0.051056122372429506  0.3637313820901511  0.4135056835342752  1.0000
  Br  Br3       1.0  0.8909815161864498  0.5370194399834741  0.8494056739305121  1.0000
  Br  Br4       1.0  0.1090183299577205  0.4629824266727595  0.1505950563706833  1.0000
