data_image0
_chemical_formula_structural       Zr6H38C88N10Cl4O52
_chemical_formula_sum              "Zr6 H38 C88 N10 Cl4 O52"
_cell_length_a       19.070877557294704
_cell_length_b       19.03815676925987
_cell_length_c       19.059849012310195
_cell_angle_alpha    59.645520629722675
_cell_angle_beta     59.90125696918567
_cell_angle_gamma    60.02069652604535

_space_group_name_H-M_alt    "P 1"
_space_group_IT_number       1

loop_
  _space_group_symop_operation_xyz
  'x, y, z'

loop_
  _atom_site_type_symbol
  _atom_site_label
  _atom_site_symmetry_multiplicity
  _atom_site_fract_x
  _atom_site_fract_y
  _atom_site_fract_z
  _atom_site_occupancy
  Zr  Zr1       1.0  0.9031012015119588  0.4105978066179998  0.5918110003091853  1.0000
  Zr  Zr2       1.0  0.0944884278642276  0.591458082680596  0.410912039739955  1.0000
  Zr  Zr3       1.0  0.08855625537894686  0.4045286652499129  0.5974259415022516  1.0000
  Zr  Zr4       1.0  0.9094663467133656  0.5970916362997369  0.40486021627157953  1.0000
  Zr  Zr5       1.0  0.906311847533757  0.5935555296741484  0.5938518727627126  1.0000
  Zr  Zr6       1.0  0.09155197822086329  0.4082621687796363  0.4086523378586975  1.0000
  H   H1        1.0  0.92063219537755  0.4264413960471669  0.7213518364028176  1.0000
  H   H2        1.0  0.9316201804925937  0.7209938688172458  0.4267058404292286  1.0000
  H   H3        1.0  0.21808764938871394  0.4233679329368272  0.43303281462224413  1.0000
  H   H4        1.0  0.9254877027398434  0.43268310398524074  0.42374630589021217  1.0000
  H   H5        1.0  0.4683217896128938  0.595789120677381  0.059141749984817714  1.0000
  H   H6        1.0  0.5435195828882158  0.3916279484447075  0.95642927000695  1.0000
  H   H7        1.0  0.6504156966781661  0.6408661735032481  0.7885517337034074  1.0000
  H   H8        1.0  0.5143182107085379  0.6493762337401918  0.9126738491328796  1.0000
  H   H9        1.0  0.28261692733233434  0.4311927937532616  0.1515947620121665  1.0000
  H   H10       1.0  0.4006934740738257  0.4424819971837551  0.010823958454793017  1.0000
  H   H11       1.0  0.10844600824558641  0.9561581005694747  0.3918643734905912  1.0000
  H   H12       1.0  0.876701490199423  0.05883137533206193  0.5962228607921319  1.0000
  H   H13       1.0  0.13447371804372207  0.1514108889239338  0.4313745497232588  1.0000
  H   H14       1.0  0.14586615926194207  0.010715221413938956  0.44255956299660687  1.0000
  H   H15       1.0  0.9200730317101528  0.7883669681923069  0.6410052150216288  1.0000
  H   H16       1.0  0.9234596453577734  0.9124842467497346  0.6495567356022818  1.0000
  H   H17       1.0  0.45670953053066643  0.050300920344561455  0.38746723433219893  1.0000
  H   H18       1.0  0.5539682915853632  0.9657326379986132  0.599758469279294  1.0000
  H   H19       1.0  0.650828724288523  0.787484652605251  0.42697599219047794  1.0000
  H   H20       1.0  0.5110679269494011  0.9063602682619277  0.4363178237713896  1.0000
  H   H21       1.0  0.2858000644051726  0.14876067267383042  0.6404486364477862  1.0000
  H   H22       1.0  0.4094798701257147  0.012450428109495693  0.6489736772989191  1.0000
  H   H23       1.0  0.8805814460249124  0.5994040615772678  0.966081134530917  1.0000
  H   H24       1.0  0.10545634961300006  0.3870553482366361  0.050671496968973884  1.0000
  H   H25       1.0  0.9252358602104847  0.6401230456668114  0.14900523366892304  1.0000
  H   H26       1.0  0.929336082964937  0.6486481425837809  0.012689145886497563  1.0000
  H   H27       1.0  0.13476326850147996  0.42675088261822947  0.7877027315641598  1.0000
  H   H28       1.0  0.14632640146030687  0.4360619958118903  0.9065869466353007  1.0000
  H   H29       1.0  0.12794827689997118  0.8146293143194968  0.1658941944971061  1.0000
  H   H30       1.0  0.9039233974528996  0.8067060715321689  0.1721432553247764  1.0000
  H   H31       1.0  0.8913395919992196  0.16568384528029179  0.8151526097873188  1.0000
  H   H32       1.0  0.11730468841504656  0.17167913744280847  0.8069658580405131  1.0000
  H   H33       1.0  0.46375415335428016  0.38147034621472636  0.6057649713142582  1.0000
  H   H34       1.0  0.5490210920974191  0.605661903957156  0.3816181774325145  1.0000
  H   H35       1.0  0.6530372204791277  0.43049687794065505  0.6322803599700321  1.0000
  H   H36       1.0  0.5167187818732726  0.43176969972230256  0.645193912093454  1.0000
  H   H37       1.0  0.28408683262094303  0.632082197756077  0.4307493045489111  1.0000
  H   H38       1.0  0.4062206424980771  0.6450572541733453  0.4319538292505171  1.0000
  C   C1        1.0  0.7553601450470567  0.5092945111487382  0.7280400013980141  1.0000
  C   C2        1.0  0.0073550815954630715  0.7277321469945051  0.509535025932003  1.0000
  C   C3        1.0  0.23386062753639428  0.5021870143248961  0.26599938423832004  1.0000
  C   C4        1.0  0.9978960204863653  0.26570187325390987  0.5025716114670048  1.0000
  C   C5        1.0  0.9974292850122879  0.2595395611067841  0.7323340289045959  1.0000
  C   C6        1.0  0.7594029001458507  0.5135190740071137  0.4977275667691572  1.0000
  C   C7        1.0  0.010744525336434345  0.7319259154000194  0.2598242568322604  1.0000
  C   C8        1.0  0.2293425783478823  0.49745410952837693  0.5137790397450885  1.0000
  C   C9        1.0  0.9989667293216087  0.5016786286917492  0.7360306571511187  1.0000
  C   C10       1.0  0.2259480122122355  0.2571952508376896  0.5087803538461486  1.0000
  C   C11       1.0  0.008160441355776909  0.5083585798337822  0.2575435917149703  1.0000
  C   C12       1.0  0.7633286440781788  0.7357180185476438  0.502001703699939  1.0000
  C   C13       1.0  0.30807868767602997  0.5069087188459918  0.18409590557513403  1.0000
  C   C14       1.0  0.6727681265991164  0.5134235321797788  0.801290658169485  1.0000
  C   C15       1.0  0.3610980245628779  0.5535187886182912  0.1556377659147046  1.0000
  C   C16       1.0  0.42741816284954826  0.5608716755309472  0.0771982234712992  1.0000
  C   C17       1.0  0.6395412973777396  0.44526656069295706  0.8488201694001916  1.0000
  C   C18       1.0  0.5645061846480245  0.44788971799985694  0.9192509351839534  1.0000
  C   C19       1.0  0.6256190967495954  0.5870637817674478  0.8257066754239517  1.0000
  C   C20       1.0  0.5499649269779281  0.591009337227284  0.8957544677119813  1.0000
  C   C21       1.0  0.32398247927554974  0.4670365580706389  0.1302821979413764  1.0000
  C   C22       1.0  0.3905382100679019  0.47328486203952747  0.05176884731382358  1.0000
  C   C23       1.0  0.4438737152507527  0.5195090580150037  0.024342587181990893  1.0000
  C   C24       1.0  0.5191151897176737  0.5207555516945989  0.9447506395839654  1.0000
  C   C25       1.0  0.012531107300247708  0.801029602523748  0.5136154008628112  1.0000
  C   C26       1.0  0.0008298213966568494  0.18383680336233257  0.5072744953398001  1.0000
  C   C27       1.0  0.06641496059798846  0.8485432241552929  0.44548204377566236  1.0000
  C   C28       1.0  0.06833947134312945  0.9190016967205992  0.44810889522827313  1.0000
  C   C29       1.0  0.9296919666268545  0.1553215211859324  0.5539528158746521  1.0000
  C   C30       1.0  0.9344506209454267  0.07692397726425063  0.5612158995263528  1.0000
  C   C31       1.0  0.07857800980772811  0.13008494465279347  0.4672675677147211  1.0000
  C   C32       1.0  0.08428587448982935  0.051601479412326456  0.4734520659805739  1.0000
  C   C33       1.0  0.9615371666613723  0.8255097295570053  0.5872217626420592  1.0000
  C   C34       1.0  0.9631562261789381  0.8955641339389402  0.591186038680533  1.0000
  C   C35       1.0  0.015293730544591709  0.9445479382869806  0.5209511117526304  1.0000
  C   C36       1.0  0.012178037027368378  0.0241278792661106  0.5197219662711845  1.0000
  C   C37       1.0  0.299922074162609  0.17512432497643  0.5115534747784949  1.0000
  C   C38       1.0  0.6807243363557801  0.8088575997196373  0.5076757816884694  1.0000
  C   C39       1.0  0.3483903415423838  0.14435340614431874  0.44211034373601177  1.0000
  C   C40       1.0  0.41886620326037866  0.06939461571099059  0.4445529676912372  1.0000
  C   C41       1.0  0.6505254685448705  0.8592039494405628  0.5573179511566339  1.0000
  C   C42       1.0  0.5730309168371044  0.9264534229478228  0.5629305025695146  1.0000
  C   C43       1.0  0.6286670181637674  0.8274205190277967  0.46439822028569455  1.0000
  C   C44       1.0  0.5507108153953907  0.8943372493200529  0.46960592116290206  1.0000
  C   C45       1.0  0.32364351690362275  0.12563583544901047  0.5859073036728616  1.0000
  C   C46       1.0  0.3935125933895734  0.049988135211201254  0.5897994327633782  1.0000
  C   C47       1.0  0.44327294874558726  0.021493792679926474  0.5184724448231465  1.0000
  C   C48       1.0  0.5222234934920208  0.9458271005950966  0.5178633451995862  1.0000
  C   C49       1.0  0.0027675384195474297  0.5073519850842275  0.8091667764973849  1.0000
  C   C50       1.0  0.013505216864878208  0.5111754416264845  0.17544525000734978  1.0000
  C   C51       1.0  0.9329870975194577  0.5569572214562514  0.8595570854372454  1.0000
  C   C52       1.0  0.9376341425851746  0.5626062758858481  0.9267804440879034  1.0000
  C   C53       1.0  0.06513926618445236  0.4416940690610219  0.14473004821775956  1.0000
  C   C54       1.0  0.06720087791983767  0.44415499192501795  0.06974658472067567  1.0000
  C   C55       1.0  0.9650048359197713  0.5855737838352083  0.12590481912286589  1.0000
  C   C56       1.0  0.9668954642184245  0.5894585873849465  0.05026206416790305  1.0000
  C   C57       1.0  0.07957344343905241  0.4641441657271699  0.8276584688138159  1.0000
  C   C58       1.0  0.08540761636098175  0.46932666417378516  0.8945943504164261  1.0000
  C   C59       1.0  0.014156629925025675  0.5175462830924857  0.9461221102804132  1.0000
  C   C60       1.0  0.0168609394316305  0.5181173085684492  0.021797241266831732  1.0000
  C   C61       1.0  0.08001779992547135  0.8409959891137433  0.1360667111622078  1.0000
  C   C62       1.0  0.08171172784440002  0.9118253932462679  0.059193314145694745  1.0000
  C   C63       1.0  0.14729635562741072  0.9512661720094686  0.01579556204985275  1.0000
  C   C64       1.0  0.9529290584946108  0.836833906492551  0.13953711320215234  1.0000
  C   C65       1.0  0.9522603945440693  0.9075732795247048  0.06307497738425372  1.0000
  C   C66       1.0  0.8881990592335638  0.942774070344342  0.024095855448258957  1.0000
  C   C67       1.0  0.9427976285535563  0.13579883489349245  0.8414446541847411  1.0000
  C   C68       1.0  0.9471593335654802  0.05890074862890775  0.9122634892441965  1.0000
  C   C69       1.0  0.8854506850590268  0.015577511345512099  0.9517905332536928  1.0000
  C   C70       1.0  0.07071263149832413  0.1391328280576545  0.8371439253235168  1.0000
  C   C71       1.0  0.07711042005592346  0.06264784192810428  0.9078783004836951  1.0000
  C   C72       1.0  0.14502772047578816  0.0235886254387624  0.9429968161505542  1.0000
  C   C73       1.0  0.015361724882339297  0.8048641539182669  0.1761004197858113  1.0000
  C   C74       1.0  0.016335792501678256  0.9472946257035986  0.022528862228810485  1.0000
  C   C75       1.0  0.003602354922413914  0.17578942340558965  0.8052613698485233  1.0000
  C   C76       1.0  0.013794059405349019  0.02216831630291685  0.9476599461017372  1.0000
  C   C77       1.0  0.3029882603071882  0.5016818590526881  0.5181990050875528  1.0000
  C   C78       1.0  0.6771217899217135  0.5179771784488099  0.5018976412515528  1.0000
  C   C79       1.0  0.35377514759974094  0.4331421939152167  0.5684893721590285  1.0000
  C   C80       1.0  0.4240298192563186  0.43795454638709697  0.5685489277072548  1.0000
  C   C81       1.0  0.6446049324815277  0.5683157833042357  0.4333426421821756  1.0000
  C   C82       1.0  0.5694663320471349  0.5684296453015848  0.43811315067674184  1.0000
  C   C83       1.0  0.6290255812088432  0.4690216946127848  0.5780884159601883  1.0000
  C   C84       1.0  0.5530876832483853  0.4693798101959032  0.5844565347635394  1.0000
  C   C85       1.0  0.32380558392335224  0.5778936477130118  0.469238419676401  1.0000
  C   C86       1.0  0.3930121270190127  0.5843106899184249  0.46955050233922446  1.0000
  C   C87       1.0  0.4453966442897509  0.513961863243331  0.5178791249146855  1.0000
  C   C88       1.0  0.5227349286502584  0.5177551179714115  0.5140911309264807  1.0000
  N   N1        1.0  0.35374936208114593  0.5926539439702623  0.21030531020584675  1.0000
  N   N2        1.0  0.6845616643508451  0.36357494455901923  0.8302698567390083  1.0000
  N   N3        1.0  0.12174742587336589  0.8299050417725127  0.3638378336939993  1.0000
  N   N4        1.0  0.843279897154133  0.20984130661518233  0.5933722680121463  1.0000
  N   N5        1.0  0.3306921362240516  0.19149333724082857  0.35953893664612474  1.0000
  N   N6        1.0  0.7015984421097485  0.8473439516128851  0.6031375827997463  1.0000
  N   N7        1.0  0.8479154157027579  0.6026874870147624  0.847776161968234  1.0000
  N   N8        1.0  0.11811560979668179  0.35903166632589745  0.19196633306621178  1.0000
  N   N9        1.0  0.3377503811819906  0.3495183876359178  0.6223246525294357  1.0000
  N   N10       1.0  0.6904317929811297  0.622174336269623  0.3497478614531388  1.0000
  Cl  Cl1       1.0  0.22374007449843675  0.06991291423971549  0.8917986511678466  1.0000
  Cl  Cl2       1.0  0.22830924158779442  0.9058049958981939  0.05706565468069861  1.0000
  Cl  Cl3       1.0  0.8085079731147431  0.05697958685134107  0.906455117194561  1.0000
  Cl  Cl4       1.0  0.8142475868831265  0.8916773788422108  0.07053331944384654  1.0000
  O   O1        1.0  0.7873016520575219  0.44811027968142964  0.699259451883634  1.0000
  O   O2        1.0  0.06535705391228654  0.698947681979149  0.44835785678814943  1.0000
  O   O3        1.0  0.2054968779498552  0.5595596615419894  0.2985677900249968  1.0000
  O   O4        1.0  0.9362890825053894  0.2983001381300099  0.5599320026716228  1.0000
  O   O5        1.0  0.05465832541824504  0.2925688612176104  0.7049937779023382  1.0000
  O   O6        1.0  0.7931209809579226  0.5707035691708384  0.4358303187762829  1.0000
  O   O7        1.0  0.9478211844927316  0.7045837247881579  0.292858820594688  1.0000
  O   O8        1.0  0.2003357169000281  0.43556693671767027  0.5710046124616142  1.0000
  O   O9        1.0  0.9383012097786075  0.5600971482853013  0.7065012112345315  1.0000
  O   O10       1.0  0.19790633896972307  0.2911139113372486  0.4464916802544181  1.0000
  O   O11       1.0  0.06456860281270588  0.4460742416492138  0.2914567615689876  1.0000
  O   O12       1.0  0.7951279168667039  0.7061944050109902  0.560397551914072  1.0000
  O   O13       1.0  0.19705528068666914  0.287167274418664  0.5681014528429458  1.0000
  O   O14       1.0  0.9477205556815843  0.5676554037014796  0.28751983406888115  1.0000
  O   O15       1.0  0.79488337305041  0.708383989852479  0.4400808932725583  1.0000
  O   O16       1.0  0.05666456600741991  0.43976952315534135  0.7086942966881438  1.0000
  O   O17       1.0  0.9364574143875544  0.2929809614746331  0.7028960673520999  1.0000
  O   O18       1.0  0.20136036917299552  0.5566871349820843  0.45225939864020864  1.0000
  O   O19       1.0  0.06771183405086106  0.702480371797094  0.2932597332333984  1.0000
  O   O20       1.0  0.78961892831132  0.45202085708076817  0.5570066477129884  1.0000
  O   O21       1.0  0.057767426167849516  0.29581704452346713  0.4426685232907063  1.0000
  O   O22       1.0  0.7879771992263683  0.5665728740524119  0.7003158058724993  1.0000
  O   O23       1.0  0.945175997547338  0.7000128170139847  0.5668432240379105  1.0000
  O   O24       1.0  0.20380829535498168  0.44224570320947276  0.2961469406130419  1.0000
  O   O25       1.0  0.9464922350679926  0.4524341670566089  0.44527992300482566  1.0000
  O   O26       1.0  0.15579890334493018  0.4449132906450331  0.4527886249848195  1.0000
  O   O27       1.0  0.9502840502928007  0.6584650032815064  0.44855698023372537  1.0000
  O   O28       1.0  0.9426610582156697  0.44827044967942004  0.6588182299868351  1.0000
  O   O29       1.0  0.037346712075766494  0.536653799401293  0.5424374182929412  1.0000
  O   O30       1.0  0.8835495284405112  0.5421302623903018  0.5369847752629227  1.0000
  O   O31       1.0  0.04001521470644309  0.5397878899125815  0.3854898341233763  1.0000
  O   O32       1.0  0.03466976566686946  0.3851389695175342  0.5401773872444551  1.0000
  O   O33       1.0  0.3750532012078762  0.5423550237919558  0.27521481457670666  1.0000
  O   O34       1.0  0.33160240351342896  0.6721160223027312  0.18422021778467007  1.0000
  O   O35       1.0  0.7427272969286846  0.3094862215623092  0.8605590786447479  1.0000
  O   O36       1.0  0.656652574538711  0.3541495864132502  0.7904595123973904  1.0000
  O   O37       1.0  0.08749455608173644  0.8601387489416723  0.30966965150236087  1.0000
  O   O38       1.0  0.19886648675047502  0.7900642442726351  0.354539879887163  1.0000
  O   O39       1.0  0.8070767968272604  0.2747136866835262  0.5432864327642477  1.0000
  O   O40       1.0  0.8123864726019361  0.1836816078092838  0.6728608250362315  1.0000
  O   O41       1.0  0.36123976884032777  0.2501013929762336  0.30672660773653593  1.0000
  O   O42       1.0  0.2914108898227141  0.16452079811895  0.34825181464315597  1.0000
  O   O43       1.0  0.7633363399386751  0.8741545707824374  0.558600258663212  1.0000
  O   O44       1.0  0.6753189396292851  0.8161091159333227  0.682669310724407  1.0000
  O   O45       1.0  0.8040067634175679  0.5580771994016729  0.8745122992480178  1.0000
  O   O46       1.0  0.8257753875747296  0.6822230845199897  0.8166735214959359  1.0000
  O   O47       1.0  0.0815914706164449  0.3063841583437963  0.2506286735703469  1.0000
  O   O48       1.0  0.19570830961088587  0.3475145396973147  0.16501960882043676  1.0000
  O   O49       1.0  0.3670586234368613  0.29752686824277674  0.5859661363507342  1.0000
  O   O50       1.0  0.2999658336425809  0.3367738646527199  0.7005432801650998  1.0000
  O   O51       1.0  0.7494208293488356  0.5858663240454619  0.29769764621758554  1.0000
  O   O52       1.0  0.6628176747190931  0.7003565134164661  0.3371014161472912  1.0000
