data_image0
_chemical_formula_structural       CdH12C10S2N6
_chemical_formula_sum              "Cd1 H12 C10 S2 N6"
_cell_length_a       5.772309105557182
_cell_length_b       7.796419733118847
_cell_length_c       8.802661780979003
_cell_angle_alpha    110.31095915535265
_cell_angle_beta     106.87126481389774
_cell_angle_gamma    96.50142211466984

_space_group_name_H-M_alt    "P 1"
_space_group_IT_number       1

loop_
  _space_group_symop_operation_xyz
  'x, y, z'

loop_
  _atom_site_type_symbol
  _atom_site_label
  _atom_site_symmetry_multiplicity
  _atom_site_fract_x
  _atom_site_fract_y
  _atom_site_fract_z
  _atom_site_occupancy
  Cd  Cd1       1.0  8.026078226900534e-06  5.42796895080191e-06  0.5000017370609624  1.0000
  H   H1        1.0  0.7615056358467741  0.4279657895545624  0.11361174297652346  1.0000
  H   H2        1.0  0.2384828069131828  0.5720276442288963  0.8863969690887783  1.0000
  H   H3        1.0  0.06247481442535022  0.494631198656016  0.27773459523794486  1.0000
  H   H4        1.0  0.937525133683053  0.5053582398879682  0.7222705025059141  1.0000
  H   H5        1.0  0.8486671267380502  0.2835649066833382  0.23071760921101966  1.0000
  H   H6        1.0  0.15133868973593675  0.7164260773587257  0.7692822679996209  1.0000
  H   H7        1.0  0.7250182676829837  0.23820301813485395  0.8084045606314375  1.0000
  H   H8        1.0  0.27497363629694854  0.7617961763512822  0.1915941137515488  1.0000
  H   H9        1.0  0.35553158293662784  0.24711126088284624  0.20629123915040273  1.0000
  H   H10       1.0  0.6444564563090438  0.752880857016329  0.793705624166172  1.0000
  H   H11       1.0  0.39308702475433677  0.0545513363092169  0.8835289158047244  1.0000
  H   H12       1.0  0.6069192488911241  0.9454537280959057  0.11646863848162065  1.0000
  C   C1        1.0  0.9152759382631501  0.3754725315245436  0.17422924408610632  1.0000
  C   C2        1.0  0.08472160325904106  0.6245211314348538  0.8257699034520839  1.0000
  C   C3        1.0  0.9021518246166593  0.21219843233026833  0.8695190491039922  1.0000
  C   C4        1.0  0.09784899089025603  0.78780651299094  0.130481977785493  1.0000
  C   C5        1.0  0.23356843943842162  0.21543131653486103  0.07576463809880346  1.0000
  C   C6        1.0  0.7664194226411283  0.7845664888182637  0.9242237472331635  1.0000
  C   C7        1.0  0.24958400888010604  0.12136938044717029  0.9165158297378112  1.0000
  C   C8        1.0  0.7504178098409611  0.8786328223566499  0.08347884871043473  1.0000
  C   C9        1.0  0.5359090107489095  0.22308385805810357  0.4933444431314483  1.0000
  C   C10       1.0  0.46409885741963564  0.7769142672656172  0.506645561372217  1.0000
  S   S1        1.0  0.3446580299950739  0.3263057226089997  0.575178195611734  1.0000
  S   S2        1.0  0.6553425558073158  0.6736921641090277  0.4248262588530309  1.0000
  N   N1        1.0  0.013264011331926895  0.27285091444852577  0.04376856021170986  1.0000
  N   N2        1.0  0.9867321206648471  0.7271441290898506  0.9562307523018204  1.0000
  N   N3        1.0  0.04197200271160279  0.12019763256778755  0.7889702222473146  1.0000
  N   N4        1.0  0.9580304514658594  0.8798129815667862  0.21102834514810792  1.0000
  N   N5        1.0  0.6762951294357008  0.15033797005784066  0.4324971833696336  1.0000
  N   N6        1.0  0.32370691115835365  0.8496711623976265  0.5675099302952801  1.0000
