data_image0
_chemical_formula_structural       CoH28C32S2N14
_chemical_formula_sum              "Co1 H28 C32 S2 N14"
_cell_length_a       9.127756239721212
_cell_length_b       9.168122853772607
_cell_length_c       11.450223965982655
_cell_angle_alpha    89.60098122424446
_cell_angle_beta     65.06390465699454
_cell_angle_gamma    79.54579279579193

_space_group_name_H-M_alt    "P 1"
_space_group_IT_number       1

loop_
  _space_group_symop_operation_xyz
  'x, y, z'

loop_
  _atom_site_type_symbol
  _atom_site_label
  _atom_site_symmetry_multiplicity
  _atom_site_fract_x
  _atom_site_fract_y
  _atom_site_fract_z
  _atom_site_occupancy
  Co  Co1       1.0  0.999994955942789  8.180660841925755e-07  3.524170090016687e-06  1.0000
  H   H1        1.0  0.7666339363137099  0.40638247276075395  0.9432900801092002  1.0000
  H   H2        1.0  0.23336865767865325  0.5936179318324409  0.056705014453612465  1.0000
  H   H3        1.0  0.9570131331439529  0.37709522360262343  0.7071569015138621  1.0000
  H   H4        1.0  0.0429834193173662  0.6229106253006691  0.2928366019040567  1.0000
  H   H5        1.0  0.13908793421330756  0.5519722701257024  0.6075995992721843  1.0000
  H   H6        1.0  0.8609061768895643  0.4480380357132888  0.39239990130496943  1.0000
  H   H7        1.0  0.14071376434351626  0.7709726107493895  0.7380722260690078  1.0000
  H   H8        1.0  0.8592850276484542  0.2290333178778496  0.26192580094127027  1.0000
  H   H9        1.0  0.6563970733179333  0.4823810432482531  0.18274553666009283  1.0000
  H   H10       1.0  0.34360487365043474  0.5176216070916128  0.8172532462028173  1.0000
  H   H11       1.0  0.6349529723807025  0.6331622033629003  0.2894752946959683  1.0000
  H   H12       1.0  0.36504986248828425  0.3668370942699753  0.710520602782431  1.0000
  H   H13       1.0  0.7221065559720685  0.960259583624847  0.3260777105299866  1.0000
  H   H14       1.0  0.2778898332009163  0.0397407383539203  0.6739254868665795  1.0000
  H   H15       1.0  0.6361877612195102  0.8653528959363611  0.5491433185597074  1.0000
  H   H16       1.0  0.3638192382107093  0.13464318448847476  0.45085912598834454  1.0000
  H   H17       1.0  0.838901855968814  0.7755481280205033  0.6328780435029272  1.0000
  H   H18       1.0  0.16110686417238904  0.22444125759902528  0.3671203949865145  1.0000
  H   H19       1.0  0.13859157557484278  0.7762038521202755  0.5039527307496173  1.0000
  H   H20       1.0  0.8614127391285038  0.22378985766761875  0.4960383577545854  1.0000
  H   H21       1.0  0.40354918867496553  0.8622489328711396  0.33237972588359804  1.0000
  H   H22       1.0  0.5964506770040005  0.1377525466974704  0.6676179833681672  1.0000
  H   H23       1.0  0.4863930581593365  0.9002111406215079  0.1671523256800853  1.0000
  H   H24       1.0  0.5136040055827706  0.09978693030625153  0.8328463010611672  1.0000
  H   H25       1.0  0.3744343079193513  0.605667002656169  0.26667564347582845  1.0000
  H   H26       1.0  0.625568795371386  0.394331182712051  0.733320174562941  1.0000
  H   H27       1.0  0.46879612879124016  0.6450888804270108  0.10322072408609971  1.0000
  H   H28       1.0  0.5312073440898286  0.3549126709884831  0.8967758293573027  1.0000
  C   C1        1.0  0.8488628770701396  0.6079119281220713  0.969178509181134  1.0000
  C   C2        1.0  0.15113762662090827  0.39209180522915693  0.030819856035648685  1.0000
  C   C3        1.0  0.8466669650281915  0.4850196327626932  0.8982641818675745  1.0000
  C   C4        1.0  0.15332979175270361  0.5149896140138994  0.10173535108624782  1.0000
  C   C5        1.0  0.9529017940833242  0.469734086313622  0.7678707239531591  1.0000
  C   C6        1.0  0.04709606392969329  0.530270706100005  0.23212760888694822  1.0000
  C   C7        1.0  0.057865171703134856  0.5713287592928965  0.7105725237095301  1.0000
  C   C8        1.0  0.9421294301649041  0.4286748330961744  0.2894242384336819  1.0000
  C   C9        1.0  0.05989499506880241  0.6928629845729476  0.7810151555450986  1.0000
  C   C10       1.0  0.940105350380989  0.3071418398255831  0.21897975969045558  1.0000
  C   C11       1.0  0.9519904767621981  0.7110235812607684  0.9130011700283092  1.0000
  C   C12       1.0  0.0480107200311792  0.28898239526439085  0.086996086443051  1.0000
  C   C13       1.0  0.6307432122900353  0.6040806323871735  0.1982229776435459  1.0000
  C   C14       1.0  0.36925163045462733  0.3959218530415713  0.8017745874152524  1.0000
  C   C15       1.0  0.9787640362175621  0.9181263707453771  0.2920905691893907  1.0000
  C   C16       1.0  0.021240484787796297  0.0818651781652662  0.7079109486980997  1.0000
  C   C17       1.0  0.8100505319879971  0.9209494143955937  0.36591395365323365  1.0000
  C   C18       1.0  0.18995123315882984  0.07904321479480812  0.6340910612784256  1.0000
  C   C19       1.0  0.7649880909513128  0.8679754403431801  0.48771220948817995  1.0000
  C   C20       1.0  0.2350181878314501  0.13201840221205435  0.512292226160497  1.0000
  C   C21       1.0  0.882524634549931  0.8146266354065334  0.5362212425867979  1.0000
  C   C22       1.0  0.11748256869049101  0.18535934960809192  0.46377508105704385  1.0000
  C   C23       1.0  0.04900467254146435  0.8140945490072794  0.4653490352395763  1.0000
  C   C24       1.0  0.9510010874216307  0.18589251901870094  0.5346468707581309  1.0000
  C   C25       1.0  0.09451731072991272  0.8678068848039048  0.34267456408141334  1.0000
  C   C26       1.0  0.9054910398209656  0.13217913476835014  0.6573231390033952  1.0000
  C   C27       1.0  0.4068139049695033  0.8344339036544924  0.23790037534718783  1.0000
  C   C28       1.0  0.5931858595408742  0.16556309760218826  0.7620965190603143  1.0000
  C   C29       1.0  0.46382776566881745  0.6672565467056515  0.19932896057547814  1.0000
  C   C30       1.0  0.5361708976094448  0.3327449089140018  0.8006691339457461  1.0000
  C   C31       1.0  0.6509340029358981  0.17359742334397057  0.13833019786414977  1.0000
  C   C32       1.0  0.34906531382299727  0.826398603560861  0.8616895583392363  1.0000
  S   S1        1.0  0.4669729306140979  0.2717120954432204  0.18168513537683134  1.0000
  S   S2        1.0  0.5330136375254995  0.7282925716035108  0.8183316649269727  1.0000
  N   N1        1.0  0.9187578757021274  0.8177441546448068  0.010624000518525403  1.0000
  N   N2        1.0  0.0812412878625963  0.1822595812791477  0.9893791617437698  1.0000
  N   N3        1.0  0.8057493874551727  0.7855400251926314  0.11920987295133048  1.0000
  N   N4        1.0  0.19424738032006417  0.2144591633041202  0.8807897155847613  1.0000
  N   N5        1.0  0.7638106526634588  0.6592161343204809  0.09637573868642584  1.0000
  N   N6        1.0  0.23618734505760133  0.3407830728208907  0.9036225822250047  1.0000
  N   N7        1.0  0.0651198251472991  0.9575254037292923  0.16857274985522253  1.0000
  N   N8        1.0  0.934876564025693  0.042474918249475  0.8314304475413437  1.0000
  N   N9        1.0  0.2214580905109429  0.9376601353471229  0.14297455932963027  1.0000
  N   N10       1.0  0.7785414241109053  0.06234247239915902  0.8570258764274001  1.0000
  N   N11       1.0  0.24202088575192696  0.8844157774796174  0.2465107460239864  1.0000
  N   N12       1.0  0.7579806640809893  0.1155835121173112  0.7534881837894929  1.0000
  N   N13       1.0  0.7861208999534456  0.10338599395311833  0.10711411487095279  1.0000
  N   N14       1.0  0.21386553749002246  0.8966197588365789  0.8928983530964204  1.0000
