data_image0
_chemical_formula_structural       Cu4H44C36N8Cl4O8
_chemical_formula_sum              "Cu4 H44 C36 N8 Cl4 O8"
_cell_length_a       7.476548316645734
_cell_length_b       8.586500121133424
_cell_length_c       17.943907202542807
_cell_angle_alpha    103.84197085576012
_cell_angle_beta     96.73557623286757
_cell_angle_gamma    90.017165696679

_space_group_name_H-M_alt    "P 1"
_space_group_IT_number       1

loop_
  _space_group_symop_operation_xyz
  'x, y, z'

loop_
  _atom_site_type_symbol
  _atom_site_label
  _atom_site_symmetry_multiplicity
  _atom_site_fract_x
  _atom_site_fract_y
  _atom_site_fract_z
  _atom_site_occupancy
  Cu  Cu1       1.0  0.6584965575436144  0.28823946396794736  0.2974102629551112  1.0000
  Cu  Cu2       1.0  0.34164317090557  0.991349059057171  0.7027679556306978  1.0000
  Cu  Cu3       1.0  0.2207755016236774  0.4640639289495425  0.29730193227506874  1.0000
  Cu  Cu4       1.0  0.779508888143624  0.1662012680661604  0.7024348807123886  1.0000
  H   H1        1.0  0.5911629870188264  0.12023911791207094  0.1644881901668924  1.0000
  H   H2        1.0  0.4088054384120312  0.9563355809386277  0.8357631240808204  1.0000
  H   H3        1.0  0.5781815525616736  0.17939326887768905  0.44020554763501013  1.0000
  H   H4        1.0  0.4214210184525483  0.7395559351964136  0.560124494277659  1.0000
  H   H5        1.0  0.6159770293204403  0.9224378993650074  0.4825336971110233  1.0000
  H   H6        1.0  0.38307929925599626  0.44034102341983317  0.5178091854066695  1.0000
  H   H7        1.0  0.7250284718419381  0.6811508926433231  0.38882856636181634  1.0000
  H   H8        1.0  0.273901523768032  0.29286834415935903  0.6115602529043473  1.0000
  H   H9        1.0  0.8002761598371959  0.7139424207947511  0.26120380407914473  1.0000
  H   H10       1.0  0.19903665604428503  0.45352959025200307  0.7392230428208393  1.0000
  H   H11       1.0  0.9423055598601661  0.012376896551224098  0.22208492802845836  1.0000
  H   H12       1.0  0.05738676021536549  0.7912629999296286  0.7781649267510673  1.0000
  H   H13       1.0  0.7626476087201437  0.889235681736906  0.16412275447108732  1.0000
  H   H14       1.0  0.23676916459520214  0.7258766915864497  0.8361683364868286  1.0000
  H   H15       1.0  0.9689667226685045  0.23481457419229199  0.19018540905647546  1.0000
  H   H16       1.0  0.0310780753303845  0.0451947446700416  0.809986662268152  1.0000
  H   H17       1.0  0.8887284888504252  0.0491485995070562  0.062072235937201015  1.0000
  H   H18       1.0  0.11122290049075902  0.9885314099771917  0.9382960915979484  1.0000
  H   H19       1.0  0.9069546857360676  0.2474854243139716  0.050158757465304384  1.0000
  H   H20       1.0  0.09345525103488228  0.19878131625808482  0.9499131572370274  1.0000
  H   H21       1.0  0.6905507313484591  0.15653850212876813  0.044191255401237604  1.0000
  H   H22       1.0  0.3096779879817007  0.11350400136556969  0.9559239285370253  1.0000
  H   H23       1.0  0.4553763094386126  0.5686221679479144  0.23226589843711315  1.0000
  H   H24       1.0  0.5450174858956272  0.3358240903843138  0.7676449416576504  1.0000
  H   H25       1.0  0.12798183190079726  0.6521687915135032  0.45217716734361363  1.0000
  H   H26       1.0  0.8722976364160927  0.19971510545130397  0.5476222848274548  1.0000
  H   H27       1.0  0.1146923156673978  0.9462668603116878  0.5162619990423849  1.0000
  H   H28       1.0  0.8850668915121033  0.4297917165426098  0.48350289895579834  1.0000
  H   H29       1.0  0.16780106481133567  0.14682310362624654  0.4374832613956983  1.0000
  H   H30       1.0  0.8313260206816863  0.7088667860362389  0.5622572477076844  1.0000
  H   H31       1.0  0.23290675178659367  0.04741006649870629  0.3020522367742587  1.0000
  H   H32       1.0  0.766473015500203  0.7448311118658919  0.6976664176156931  1.0000
  H   H33       1.0  0.11168782483498765  0.7093828881003218  0.1869845221634847  1.0000
  H   H34       1.0  0.8888256932070957  0.5218395842238479  0.8127433103123779  1.0000
  H   H35       1.0  0.32921429731668167  0.804028338976323  0.2018869533096677  1.0000
  H   H36       1.0  0.671284283582231  0.6015441006652154  0.7979781043724757  1.0000
  H   H37       1.0  0.12711805207317178  0.4475091427856412  0.1274545040723893  1.0000
  H   H38       1.0  0.8736872666624436  0.3194768833883898  0.872175035408553  1.0000
  H   H39       1.0  0.3174848176436242  0.5980653544247189  0.06447362889093712  1.0000
  H   H40       1.0  0.6837156119140032  0.5328352248293555  0.9353468467986376  1.0000
  H   H41       1.0  0.33761853031736405  0.39002244411610576  0.024509949502537185  1.0000
  H   H42       1.0  0.6634711593329496  0.36469982097216286  0.9752803408834793  1.0000
  H   H43       1.0  0.5138475802972522  0.4981236363475076  0.09225922358701412  1.0000
  H   H44       1.0  0.487155956954055  0.40526123390617375  0.9076094024701646  1.0000
  C   C1        1.0  0.6307446966832089  0.0731482131418417  0.4038805946600591  1.0000
  C   C2        1.0  0.3687268420687032  0.6697244206163473  0.5964655551889066  1.0000
  C   C3        1.0  0.6512662692580875  0.9292939140119922  0.4261421429195806  1.0000
  C   C4        1.0  0.34788311168714603  0.5036362357922356  0.5742169583963062  1.0000
  C   C5        1.0  0.713084258708406  0.7975383023399797  0.374690789853382  1.0000
  C   C6        1.0  0.2859761265549494  0.423407900841397  0.6256820368785441  1.0000
  C   C7        1.0  0.754982069517659  0.8148865090667881  0.3034071560064646  1.0000
  C   C8        1.0  0.2443322274905739  0.5121752049257182  0.6969718343995768  1.0000
  C   C9        1.0  0.7362126273535878  0.9636094817475106  0.2857359855893833  1.0000
  C   C10       1.0  0.2633580741421682  0.6785617283934046  0.714597834606991  1.0000
  C   C11       1.0  0.794657733500216  0.994599571311099  0.21293031077735955  1.0000
  C   C12       1.0  0.2050231467776484  0.7824642921025882  0.787361660048056  1.0000
  C   C13       1.0  0.8310008594629819  0.23577963701124102  0.16088796788899637  1.0000
  C   C14       1.0  0.16904969286635918  0.07560222141790966  0.8392525136480276  1.0000
  C   C15       1.0  0.7777710741590695  0.412433119229888  0.18234385396898742  1.0000
  C   C16       1.0  0.2222652180301381  0.23070232416630174  0.8177066842381535  1.0000
  C   C17       1.0  0.8282719595650575  0.16773870415806863  0.07419566570192161  1.0000
  C   C18       1.0  0.1718941731918875  0.09473830891256797  0.9259910407824709  1.0000
  C   C19       1.0  0.15114999746970165  0.7452339902919858  0.42210079943659917  1.0000
  C   C20       1.0  0.8489340380439288  0.32276730424272415  0.5776681571612556  1.0000
  C   C21       1.0  0.14376443903222483  0.9079083362621955  0.45660717195342937  1.0000
  C   C22       1.0  0.8559986625428733  0.45093791881771483  0.543145280328595  1.0000
  C   C23       1.0  0.1729824689842019  0.018096752521259397  0.4131669103361801  1.0000
  C   C24       1.0  0.8264194492092543  0.604439958210065  0.5865767058168458  1.0000
  C   C25       1.0  0.20847096364670384  0.9629140315657878  0.3368345138102455  1.0000
  C   C26       1.0  0.7910661902313333  0.6255691734862407  0.6629221820392389  1.0000
  C   C27       1.0  0.21383215194590116  0.7981017097907921  0.30593436975593147  1.0000
  C   C28       1.0  0.7862629379631086  0.4916622430490918  0.6938530887089059  1.0000
  C   C29       1.0  0.24314441673486434  0.7244259482223824  0.22329210915630435  1.0000
  C   C30       1.0  0.7572874435928297  0.5005578610959844  0.7765004532880297  1.0000
  C   C31       1.0  0.2748834731898454  0.44642600560418777  0.1418632418914214  1.0000
  C   C32       1.0  0.7259047715183016  0.303862444879499  0.8578636417146726  1.0000
  C   C33       1.0  0.3151852428674644  0.28000408979803376  0.1574766925154449  1.0000
  C   C34       1.0  0.6854862157828877  0.12183270281794016  0.8422624252300539  1.0000
  C   C35       1.0  0.3671551028825916  0.4857085627560947  0.07728048790905719  1.0000
  C   C36       1.0  0.6338661461298827  0.40768026075722463  0.9225311896615055  1.0000
  N   N1        1.0  0.6729538646643858  0.0899015994626708  0.3352807789359319  1.0000
  N   N2        1.0  0.3267149975967243  0.7552328751045463  0.6650406659121018  1.0000
  N   N3        1.0  0.7168436907812108  0.14201728157540566  0.19717575121195102  1.0000
  N   N4        1.0  0.28315617631048434  0.9455276822568801  0.8030610753268448  1.0000
  N   N5        1.0  0.1857867537827644  0.6922920978191056  0.3486614085464624  1.0000
  N   N6        1.0  0.8144835949217821  0.3431998355634391  0.6511412723132184  1.0000
  N   N7        1.0  0.3171681192605362  0.5638668474566444  0.21728677247033093  1.0000
  N   N8        1.0  0.6833023294584846  0.34594218496158646  0.7824851227150091  1.0000
  Cl  Cl1       1.0  0.514493643759593  0.4433305535382885  0.39093390174207343  1.0000
  Cl  Cl2       1.0  0.48496435442356756  0.052943639347972686  0.6089793897978455  1.0000
  Cl  Cl3       1.0  0.0197068552022373  0.35393465787583267  0.35667633869965704  1.0000
  Cl  Cl4       1.0  0.9797968239647261  0.9965558119329992  0.6428245370074209  1.0000
  O   O1        1.0  0.6739675601711852  0.4514925988684836  0.23716228588923374  1.0000
  O   O2        1.0  0.32609575438209487  0.21486578857644634  0.7628706312125005  1.0000
  O   O3        1.0  0.83628047291527  0.5110976616021858  0.14967858946503304  1.0000
  O   O4        1.0  0.1637249485764514  0.3619907105449441  0.850322263991167  1.0000
  O   O5        1.0  0.27492951800483206  0.26114398430456026  0.22361349429035474  1.0000
  O   O6        1.0  0.7253627774198537  0.03683476323696059  0.7760583986840716  1.0000
  O   O7        1.0  0.3794686160081397  0.17193502817729467  0.10928676836760333  1.0000
  O   O8        1.0  0.6214321842062204  0.06204670220405008  0.8905642061725133  1.0000
