data_image0
_chemical_formula_structural       Cd2H14C34S4N2F16
_chemical_formula_sum              "Cd2 H14 C34 S4 N2 F16"
_cell_length_a       7.523854269602933
_cell_length_b       11.916063615305417
_cell_length_c       11.91608316885802
_cell_angle_alpha    63.50111305612199
_cell_angle_beta     77.46442695290942
_cell_angle_gamma    77.46446805413403

_space_group_name_H-M_alt    "P 1"
_space_group_IT_number       1

loop_
  _space_group_symop_operation_xyz
  'x, y, z'

loop_
  _atom_site_type_symbol
  _atom_site_label
  _atom_site_symmetry_multiplicity
  _atom_site_fract_x
  _atom_site_fract_y
  _atom_site_fract_z
  _atom_site_occupancy
  Cd  Cd1       1.0  0.2500009040519728  0.5303307568658298  0.46966797249712766  1.0000
  Cd  Cd2       1.0  0.7499993634105026  0.4696693424308195  0.5303314216426714  1.0000
  H   H1        1.0  0.1781545729432992  0.6254713577319393  0.8923117767905637  1.0000
  H   H2        1.0  0.32184342328078225  0.1076891867133369  0.3745303440679492  1.0000
  H   H3        1.0  0.8218410397996722  0.37453157764370104  0.10768783357127626  1.0000
  H   H4        1.0  0.6781624770704084  0.8923099716005751  0.6254678503802114  1.0000
  H   H5        1.0  0.04172081510625238  0.8152433934053537  0.3637684504930759  1.0000
  H   H6        1.0  0.4582831684988307  0.6362313959637762  0.18475232267925176  1.0000
  H   H7        1.0  0.9582812001797836  0.1847548149991525  0.6362323862717999  1.0000
  H   H8        1.0  0.5417170918803224  0.3637687015520187  0.8152453948289988  1.0000
  H   H9        1.0  0.2500007437432075  0.0277144521134929  0.9722852682393183  1.0000
  H   H10       1.0  0.7499995272609328  0.9722856480735799  0.0277149642162585  1.0000
  H   H11       1.0  0.033157462859819  0.0185944319178972  0.16864403916320467  1.0000
  H   H12       1.0  0.4668425154706811  0.8313566726078035  0.9814032463171216  1.0000
  H   H13       1.0  0.9668429996725011  0.981404721549467  0.8313565902370995  1.0000
  H   H14       1.0  0.5331575604636286  0.16864437340854724  0.018595750877949516  1.0000
  C   C1        1.0  0.1155721355430472  0.4580707142310487  0.26578830840310286  1.0000
  C   C2        1.0  0.38442575228606296  0.7342124052708814  0.5419316662993693  1.0000
  C   C3        1.0  0.8844240553261074  0.541929381875903  0.7342133311086911  1.0000
  C   C4        1.0  0.6155760750134718  0.2657867507437573  0.45806961183656375  1.0000
  C   C5        1.0  0.16089585136726475  0.5800944803703274  0.9951343810304821  1.0000
  C   C6        1.0  0.33910231872810204  0.004865412202114801  0.41990666477620653  1.0000
  C   C7        1.0  0.8391026753549867  0.4199075115993125  0.004865247115788102  1.0000
  C   C8        1.0  0.6609010507001615  0.9951327960783942  0.5800923057769792  1.0000
  C   C9        1.0  0.13340815606368037  0.8232528169363464  0.2768417395183604  1.0000
  C   C10       1.0  0.3665944966955693  0.7231582511087781  0.1767432072111319  1.0000
  C   C11       1.0  0.8665924979968054  0.1767453898113089  0.7231592868266645  1.0000
  C   C12       1.0  0.6334057672252414  0.2768418472974404  0.8232553486128893  1.0000
  C   C13       1.0  0.25000042746534495  0.9407600764247378  0.05923959682617404  1.0000
  C   C14       1.0  0.7499996520106293  0.059240970482044006  0.940760238684675  1.0000
  C   C15       1.0  0.013091186995175986  0.5747119968987776  0.19922897891753175  1.0000
  C   C16       1.0  0.4869074760366133  0.800770612431421  0.4252906910909715  1.0000
  C   C17       1.0  0.9869061700296912  0.425289046694303  0.8007712357536079  1.0000
  C   C18       1.0  0.5130933695520455  0.19922664759652517  0.5747107321987811  1.0000
  C   C19       1.0  0.12921014383818633  0.9361206989270132  0.1677443718405058  1.0000
  C   C20       1.0  0.3707909166654134  0.8322553719971139  0.06387729569262747  1.0000
  C   C21       1.0  0.870790123624289  0.0638794003696361  0.8322550222992932  1.0000
  C   C22       1.0  0.6292091592688963  0.1677456740192369  0.9361217015024438  1.0000
  C   C23       1.0  0.2440502378250429  0.4061441682300356  0.19088395529835372  1.0000
  C   C24       1.0  0.2559467842647011  0.8091175553725164  0.5938569694191502  1.0000
  C   C25       1.0  0.7559459495024469  0.5938559269864853  0.8091168458976626  1.0000
  C   C26       1.0  0.744054847964989  0.190882546471407  0.40614307345627765  1.0000
  C   C27       1.0  0.0350794240745458  0.6336269700270877  0.06763632219723802  1.0000
  C   C28       1.0  0.4649201695371019  0.9323622881420024  0.3663759087948719  1.0000
  C   C29       1.0  0.9649177414221484  0.3663750202857018  0.9323634955291807  1.0000
  C   C30       1.0  0.5350835864891651  0.06763402758951291  0.6336246939635403  1.0000
  C   C31       1.0  0.26421524884587205  0.4653969163415255  0.05942921180887593  1.0000
  C   C32       1.0  0.23578538663908696  0.940571150331614  0.5346046326237545  1.0000
  C   C33       1.0  0.7357819166508222  0.5346050739712638  0.940570605917543  1.0000
  C   C34       1.0  0.7642189680417103  0.05942895482601071  0.46539503109138286  1.0000
  S   S1        1.0  0.09204075171341941  0.38013913559679224  0.4312942243209363  1.0000
  S   S2        1.0  0.4079566570380848  0.5687042023726933  0.619863259191078  1.0000
  S   S3        1.0  0.9079579629953403  0.619861908762708  0.5687049624542836  1.0000
  S   S4        1.0  0.5920412781129586  0.4312940019516916  0.3801389846300154  1.0000
  N   N1        1.0  0.2500015985833528  0.7184979035227955  0.28150035766510234  1.0000
  N   N2        1.0  0.7499988604072955  0.281501249054145  0.7184994334194245  1.0000
  F   F1        1.0  0.8927561779285327  0.6354113169625109  0.2634290066176278  1.0000
  F   F2        1.0  0.607242758143485  0.7365696552090172  0.36459166258271125  1.0000
  F   F3        1.0  0.10724390508909919  0.3645897308346946  0.7365716672089988  1.0000
  F   F4        1.0  0.39275710927596214  0.26342570972266804  0.6354107441766389  1.0000
  F   F5        1.0  0.3543317945977407  0.2957896165014944  0.24626613589472163  1.0000
  F   F6        1.0  0.1456655883872671  0.7537356028538015  0.7042128492845877  1.0000
  F   F7        1.0  0.6456628364343543  0.704211422887454  0.7537336196209382  1.0000
  F   F8        1.0  0.8543354727995762  0.24626734003967246  0.2957868410724415  1.0000
  F   F9        1.0  0.9302063551070036  0.7465195817815131  0.009686374566363903  1.0000
  F   F10       1.0  0.569793730417203  0.9903130064035253  0.25348278245403566  1.0000
  F   F11       1.0  0.0697921751569055  0.25348241107855074  0.9903140918956836  1.0000
  F   F12       1.0  0.4302117663492949  0.009681416654999001  0.7465175862978981  1.0000
  F   F13       1.0  0.3892944219898311  0.4085595672208273  0.9929507296455284  1.0000
  F   F14       1.0  0.11070328248049321  0.007050462257794301  0.5914413964165774  1.0000
  F   F15       1.0  0.610699035803222  0.591440522901138  0.0070487740792231695  1.0000
  F   F16       1.0  0.889300884213796  0.9929505905099635  0.40855870866960925  1.0000
