data_image0
_chemical_formula_structural       Zn4H44C68N8O20
_chemical_formula_sum              "Zn4 H44 C68 N8 O20"
_cell_length_a       7.980188113958924
_cell_length_b       11.58646824
_cell_length_c       15.3935
_cell_angle_alpha    90.0
_cell_angle_beta     99.59090546234333
_cell_angle_gamma    90.0

_space_group_name_H-M_alt    "P 1"
_space_group_IT_number       1

loop_
  _space_group_symop_operation_xyz
  'x, y, z'

loop_
  _atom_site_type_symbol
  _atom_site_label
  _atom_site_symmetry_multiplicity
  _atom_site_fract_x
  _atom_site_fract_y
  _atom_site_fract_z
  _atom_site_occupancy
  Zn  Zn1       1.0  0.09021502430339717  0.5896749430868837  0.2569350456795902  1.0000
  Zn  Zn2       1.0  0.40978465791635427  0.0896752986741021  0.2430648294287607  1.0000
  Zn  Zn3       1.0  0.9097843401360988  0.4103243457386796  0.7430653541619492  1.0000
  Zn  Zn4       1.0  0.5902147065231418  0.9103248532272301  0.7569349207879341  1.0000
  H   H1        1.0  0.9922254719850441  0.8163125988079329  0.2817273531604201  1.0000
  H   H2        1.0  0.5077735746741963  0.3163120913193822  0.21827292178946323  1.0000
  H   H3        1.0  0.007773892454444798  0.1836875530933995  0.7182723970562748  1.0000
  H   H4        1.0  0.4922245188984603  0.6836880605819502  0.7817267186574738  1.0000
  H   H5        1.0  0.8321839400770796  0.7210566522037921  0.2536563660099844  1.0000
  H   H6        1.0  0.6678151065821609  0.22105614471524146  0.2463432593150543  1.0000
  H   H7        1.0  0.1678154243624164  0.2789426366217711  0.7463433842067104  1.0000
  H   H8        1.0  0.3321842578573352  0.7789440071860909  0.7536558412767962  1.0000
  H   H9        1.0  0.9261645428245726  0.35330697113273146  0.306923415574488  1.0000
  H   H10       1.0  0.5738345038346677  0.8533066155455131  0.1930768593753882  1.0000
  H   H11       1.0  0.07383482161492337  0.6466931807686008  0.6930763346422  1.0000
  H   H12       1.0  0.426168673205339  0.14669526250735737  0.8069238697754104  1.0000
  H   H13       1.0  0.9463268452260392  0.23606675851035414  0.4434458267731217  1.0000
  H   H14       1.0  0.5536722014332012  0.736066402923143  0.05655444817676169  1.0000
  H   H15       1.0  0.0536725192134497  0.7639333933909782  0.5565545730684178  1.0000
  H   H16       1.0  0.4463297047399734  0.26393374897819644  0.9434468208291236  1.0000
  H   H17       1.0  0.12997028076244985  0.3047313406349943  0.5819123718056929  1.0000
  H   H18       1.0  0.370030672324141  0.804730985047776  0.9180876130724088  1.0000
  H   H19       1.0  0.8700303545438854  0.6952688112663381  0.4180874881807597  1.0000
  H   H20       1.0  0.6299712338490338  0.1952691668535564  0.081913006308632  1.0000
  H   H21       1.0  0.3431353174093984  0.4531285885611708  0.6553052709664229  1.0000
  H   H22       1.0  0.1568656356771925  0.9531282329739524  0.8446940642868414  1.0000
  H   H23       1.0  0.656865317896937  0.5468724264159377  0.3446939393951852  1.0000
  H   H24       1.0  0.8431349996291428  0.0468710558516179  0.15530514607476678  1.0000
  H   H25       1.0  0.5078066172120117  0.6301566490117948  0.6436390784958094  1.0000
  H   H26       1.0  0.9921924294472289  0.13015527844747507  0.856361196454074  1.0000
  H   H27       1.0  0.49219401809432367  0.3698435028895375  0.3563614311154809  1.0000
  H   H28       1.0  0.007806934992259998  0.8698431473023189  0.1436385537626208  1.0000
  H   H29       1.0  0.5860920144972752  0.7987110315507167  0.5506464536459887  1.0000
  H   H30       1.0  0.913909573895644  0.298711387137935  0.9493533912185584  1.0000
  H   H31       1.0  0.4139098916758995  0.2012882572748467  0.449352866485377  1.0000
  H   H32       1.0  0.086089790543852  0.7012887647634045  0.050647008622974  1.0000
  H   H33       1.0  0.5633867075508687  0.8855528524712923  0.3988116592197671  1.0000
  H   H34       1.0  0.9366123391083716  0.38555234498273444  0.1011886157301092  1.0000
  H   H35       1.0  0.4366139277554665  0.11444729943004718  0.6011882007666786  1.0000
  H   H36       1.0  0.06338575446428507  0.6144469438428288  0.8988116743416655  1.0000
  H   H37       1.0  0.3701895306790205  0.7947909414025175  0.2741048422660342  1.0000
  H   H38       1.0  0.1298088806738917  0.2947887077624287  0.22589492307255202  1.0000
  H   H39       1.0  0.6298098337604754  0.20521007357458385  0.7258949079506538  1.0000
  H   H40       1.0  0.8701892128987649  0.7052097179873655  0.7741053669992228  1.0000
  H   H41       1.0  0.19087276142323614  0.4736853272555094  0.9938690909130516  1.0000
  H   H42       1.0  0.3091256499296762  0.9736866978198362  0.5061306744255418  1.0000
  H   H43       1.0  0.8091266030162598  0.5263139615700538  0.006131308928480883  1.0000
  H   H44       1.0  0.6908711727761414  0.0263134540815031  0.4938688562516447  1.0000
  C   C1        1.0  0.20407960961460245  0.5131365207108161  0.43623046329325643  1.0000
  C   C2        1.0  0.2959213434719813  0.0131368762980344  0.0637688719600007  1.0000
  C   C3        1.0  0.7959235674254044  0.48686708349359975  0.5637702658575421  1.0000
  C   C4        1.0  0.704079291834354  0.986864138679067  0.9362303384016004  1.0000
  C   C5        1.0  0.010351210404031997  0.37941328702938637  0.36675304110823254  1.0000
  C   C6        1.0  0.48964847181571247  0.879413794517937  0.1332468340001114  1.0000
  C   C7        1.0  0.9896481540354569  0.6205868648719459  0.6332473587333001  1.0000
  C   C8        1.0  0.5103534343574623  0.1205880835349333  0.8667524861312474  1.0000
  C   C9        1.0  0.0211777250058702  0.31436412930606383  0.4443607912193245  1.0000
  C   C10       1.0  0.4788219572138742  0.8143637737188527  0.055639083889026594  1.0000
  C   C11       1.0  0.9788216394336258  0.6856360225952685  0.5556396086222152  1.0000
  C   C12       1.0  0.5211799489592934  0.18563724125825587  0.9443608858671766  1.0000
  C   C13       1.0  0.12417894057691109  0.3519182822184987  0.5201694187062246  1.0000
  C   C14       1.0  0.3758220125096727  0.8519187897070493  0.9798299165470397  1.0000
  C   C15       1.0  0.8758216947294171  0.6480810066070645  0.47983044128022817  1.0000
  C   C16       1.0  0.6241811645303343  0.14808136219428286  0.020170162978921297  1.0000
  C   C17       1.0  0.21954097557844673  0.4542928777751527  0.5179355586777632  1.0000
  C   C18       1.0  0.2804599775081371  0.9542933852637034  0.982063776575494  1.0000
  C   C19       1.0  0.7804596597278886  0.5457072741261868  0.4820643013086823  1.0000
  C   C20       1.0  0.7195419286650304  0.045706766637629  0.017936193180709395  1.0000
  C   C21       1.0  0.3301051197086551  0.49976488780329476  0.5929130332185154  1.0000
  C   C22       1.0  0.16989583337793585  0.9997645322160764  0.9070869516595865  1.0000
  C   C23       1.0  0.6698929738640016  0.5002361271738138  0.40708725685325925  1.0000
  C   C24       1.0  0.8301060727952387  0.00023561968526309993  0.09291301809662399  1.0000
  C   C25       1.0  0.4206518402570366  0.5988278616297293  0.5865480511157488  1.0000
  C   C26       1.0  0.0793491128295472  0.0988273541411786  0.9134519337623532  1.0000
  C   C27       1.0  0.5793487950492915  0.401172290271603  0.4134524584955415  1.0000
  C   C28       1.0  0.9206502516099488  0.9011719346843847  0.0865478164543347  1.0000
  C   C29       1.0  0.40887852986011086  0.6598550862639739  0.505106289451156  1.0000
  C   C30       1.0  0.0911211523596336  0.1598554418511924  0.9948935856571879  1.0000
  C   C31       1.0  0.5911221054462175  0.3401459287131345  0.4948935705352896  1.0000
  C   C32       1.0  0.9088782120798553  0.840144710050147  0.005106164559506987  1.0000
  C   C33       1.0  0.5036686747840731  0.760387878127048  0.4942323941265415  1.0000
  C   C34       1.0  0.9963329136088459  0.2603882337142593  0.005768100362850188  1.0000
  C   C35       1.0  0.4963332313890944  0.2396114106985223  0.5057675756296618  1.0000
  C   C36       1.0  0.0036677216974893992  0.739611918187073  0.9942324092484398  1.0000
  C   C37       1.0  0.4919144273897302  0.8089393425032156  0.4113436156114006  1.0000
  C   C38       1.0  0.0080852548300143  0.3089379719388957  0.08865690912178792  1.0000
  C   C39       1.0  0.5080862079165982  0.19106080939811673  0.5886562443750449  1.0000
  C   C40       1.0  0.9919141096094817  0.6910613168866746  0.9113434907197445  1.0000
  C   C41       1.0  0.3836759695749804  0.7583855423402068  0.3401250149815809  1.0000
  C   C42       1.0  0.11632117091108538  0.2583841717758872  0.1598752902120921  1.0000
  C   C43       1.0  0.6163233948645157  0.24161460956112527  0.659874735235107  1.0000
  C   C44       1.0  0.8836756517947248  0.7416142539739068  0.8401248900899319  1.0000
  C   C45       1.0  0.3020799641739983  0.6159814925622271  0.42951795330014875  1.0000
  C   C46       1.0  0.1979209889125855  0.1159809850736693  0.0704820315779529  1.0000
  C   C47       1.0  0.6979219419991691  0.3840195224148815  0.5704826660808991  1.0000
  C   C48       1.0  0.8020796463937427  0.8840191668276631  0.9295178284084997  1.0000
  C   C49       1.0  0.34615235528529087  0.512139668196248  0.15854829201482804  1.0000
  C   C50       1.0  0.15384605606761426  0.0121408868592354  0.3414521229486027  1.0000
  C   C51       1.0  0.6538470091541979  0.4878587575535462  0.841452757451549  1.0000
  C   C52       1.0  0.8461520375050424  0.9878601281178659  0.6585475174983346  1.0000
  C   C53       1.0  0.4285909454005646  0.5106266963711121  0.0774114551746976  1.0000
  C   C54       1.0  0.0714087368191869  0.010627915034099497  0.42258906955849085  1.0000
  C   C55       1.0  0.5714084190389315  0.489370866302913  0.9225889446668347  1.0000
  C   C56       1.0  0.9285893567534698  0.9893730999430088  0.5774112205132909  1.0000
  C   C57       1.0  0.6049313445193005  0.5247776866991174  0.0813385455470694  1.0000
  C   C58       1.0  0.8950677021399398  0.024778905362104798  0.4186610797779693  1.0000
  C   C59       1.0  0.39506929078703473  0.4752207390506769  0.9186613144393763  1.0000
  C   C60       1.0  0.10492912056587757  0.9752221096150036  0.5813391005240547  1.0000
  C   C61       1.0  0.3266750501100687  0.4869775571921835  0.9963170277455548  1.0000
  C   C62       1.0  0.17332209037600416  0.9869780646807341  0.5036819781984363  1.0000
  C   C63       1.0  0.6733230434625879  0.5130208685576108  0.0036832623262270776  1.0000
  C   C64       1.0  0.8266760031966525  0.013021224144829098  0.49631636299881177  1.0000
  C   C65       1.0  0.720340033039953  0.5675413649604053  0.16289810289471524  1.0000
  C   C66       1.0  0.779657742752448  0.0675425836233927  0.3371020622854104  1.0000
  C   C67       1.0  0.279659331399543  0.43245706078938884  0.8371022969468174  1.0000
  C   C68       1.0  0.22034035082020856  0.9324584313537085  0.6628982277863713  1.0000
  N   N1        1.0  0.09972110825946597  0.475843879756752  0.3625964781484683  1.0000
  N   N2        1.0  0.4002785739602856  0.9758435241695337  0.1374033969598756  1.0000
  N   N3        1.0  0.9002795270468693  0.5241562721445803  0.6374033818379772  1.0000
  N   N4        1.0  0.5997220613460499  0.024157490807567693  0.8625958134017325  1.0000
  N   N5        1.0  0.2903854475210963  0.6656221585603744  0.34921009646069484  1.0000
  N   N6        1.0  0.2096142346986554  0.16562078799604757  0.15078977864764911  1.0000
  N   N7        1.0  0.709615187785239  0.33437799334096496  0.6507897635257507  1.0000
  N   N8        1.0  0.7903851297408406  0.8343785008295156  0.8492099715690388  1.0000
  O   O1        1.0  0.21757875717895556  0.5802337572367975  0.15539754200207057  1.0000
  O   O2        1.0  0.2824221959076282  0.08023411282401578  0.34460309250087573  1.0000
  O   O3        1.0  0.782423148994212  0.41976553158877283  0.8446030773789773  1.0000
  O   O4        1.0  0.7175758976650286  0.9197660390773235  0.6553965479460615  1.0000
  O   O5        1.0  0.40012734080643486  0.44469806443797205  0.2210308319715608  1.0000
  O   O6        1.0  0.0998723414133096  0.9446994350022918  0.2789696927616276  1.0000
  O   O7        1.0  0.5998732944998932  0.5553003613118291  0.7789703272645738  1.0000
  O   O8        1.0  0.9001270230261864  0.0553007168990405  0.7210307070799047  1.0000
  O   O9        1.0  0.6656749668252073  0.6492962172914929  0.20509367193074013  1.0000
  O   O10       1.0  0.8343253507008725  0.14929829903024938  0.29490541353921174  1.0000
  O   O11       1.0  0.3343243976142886  0.3507030715340774  0.7949060782859478  1.0000
  O   O12       1.0  0.16567401373862364  0.85070185287109  0.7050936870526386  1.0000
  O   O13       1.0  0.8691432894902318  0.5227546370937972  0.1797687537126933  1.0000
  O   O14       1.0  0.6308582989026872  0.0227558557567846  0.3202310911518609  1.0000
  O   O15       1.0  0.1308573458161035  0.477244651731766  0.820231755898597  1.0000
  O   O16       1.0  0.3691397946699694  0.9772451592203237  0.6797685492950762  1.0000
  O   O17       1.0  0.9526443242829428  0.7345862279772672  0.28367447530669665  1.0000
  O   O18       1.0  0.5473547223762976  0.23458572048871665  0.21632515001834213  1.0000
  O   O19       1.0  0.04735504015655319  0.2654130608482959  0.7163252749099983  1.0000
  O   O20       1.0  0.45264464206319827  0.7654144314126227  0.783674600198353  1.0000
