data_image0
_chemical_formula_structural       Cu2H40C40S2N8O8
_chemical_formula_sum              "Cu2 H40 C40 S2 N8 O8"
_cell_length_a       9.859516409575136
_cell_length_b       9.85932367200546
_cell_length_c       14.045685270557794
_cell_angle_alpha    96.65345921021708
_cell_angle_beta     96.65396245888992
_cell_angle_gamma    116.76029292469923

_space_group_name_H-M_alt    "P 1"
_space_group_IT_number       1

loop_
  _space_group_symop_operation_xyz
  'x, y, z'

loop_
  _atom_site_type_symbol
  _atom_site_label
  _atom_site_symmetry_multiplicity
  _atom_site_fract_x
  _atom_site_fract_y
  _atom_site_fract_z
  _atom_site_occupancy
  Cu  Cu1       1.0  0.9253268126685372  0.07467036229350298  0.24999036654914158  1.0000
  Cu  Cu2       1.0  0.07466507315081837  0.9253345256642902  0.7500070285531278  1.0000
  H   H1        1.0  0.4110039787426912  0.9413344649502732  0.12221051850743685  1.0000
  H   H2        1.0  0.05868115201931089  0.5889983555881031  0.3777916646919336  1.0000
  H   H3        1.0  0.5889552216883445  0.05864709884436788  0.8777955057598985  1.0000
  H   H4        1.0  0.9413470544418985  0.4110656452438234  0.6222069588553437  1.0000
  H   H5        1.0  0.4330281262315197  0.9439332669643719  0.24926057827580902  1.0000
  H   H6        1.0  0.05608603994825501  0.566986580986537  0.2507480725448373  1.0000
  H   H7        1.0  0.566954232492968  0.05605400423187488  0.7507458351891072  1.0000
  H   H8        1.0  0.943930544865296  0.433068108469996  0.7492529920393165  1.0000
  H   H9        1.0  0.36018630099906085  0.6656105003877355  0.08945241329784176  1.0000
  H   H10       1.0  0.33440535616606587  0.6398173959816091  0.4105700376458967  1.0000
  H   H11       1.0  0.6397784805820166  0.33438048097708156  0.9105478024798612  1.0000
  H   H12       1.0  0.6655983482786282  0.360182537887546  0.5894379269835637  1.0000
  H   H13       1.0  0.21899890604581174  0.6874233259802337  0.14765593449907746  1.0000
  H   H14       1.0  0.3125905481580062  0.7810235937571903  0.3523623499448546  1.0000
  H   H15       1.0  0.780997083895798  0.3125648662013347  0.8523581607181467  1.0000
  H   H16       1.0  0.6874492628800366  0.21899838006836342  0.6476414448898848  1.0000
  H   H17       1.0  0.23092565936753573  0.29170396778578567  0.15618311172334384  1.0000
  H   H18       1.0  0.7082770339695514  0.7690470986723524  0.343805369299332  1.0000
  H   H19       1.0  0.7690431605245323  0.708274123771119  0.8438206021023188  1.0000
  H   H20       1.0  0.29172443470450565  0.23096039186084022  0.6561788505395326  1.0000
  H   H21       1.0  0.20531391701413065  0.8433803221997846  0.9256770687457913  1.0000
  H   H22       1.0  0.15659904346517808  0.7946923880758661  0.574315295308338  1.0000
  H   H23       1.0  0.7947144933514566  0.15664539160582075  0.07431822311303188  1.0000
  H   H24       1.0  0.8433785865741115  0.20529303711998637  0.42567202921125596  1.0000
  H   H25       1.0  0.003791831957215688  0.5780752267833833  0.9279573936972125  1.0000
  H   H26       1.0  0.42189547148024775  0.9962104459835498  0.5720284189459901  1.0000
  H   H27       1.0  0.9962679105154066  0.42193275165596583  0.07204478432964116  1.0000
  H   H28       1.0  0.5780866052461492  0.0037653449823195993  0.42797198103409057  1.0000
  H   H29       1.0  0.8294524943204635  0.5290848352513107  0.047911988948626937  1.0000
  H   H30       1.0  0.4708876733638406  0.17055491066491865  0.4520759557121749  1.0000
  H   H31       1.0  0.17057948751445198  0.4708817044430801  0.9520777264788476  1.0000
  H   H32       1.0  0.5291113708199119  0.8294332624208208  0.5479384050460678  1.0000
  H   H33       1.0  0.8468130390591783  0.7466142705317864  0.16722858460327217  1.0000
  H   H34       1.0  0.25335061344055987  0.15318658611176517  0.332757209794586  1.0000
  H   H35       1.0  0.1531902299056682  0.2533326915050935  0.8327583301623348  1.0000
  H   H36       1.0  0.7466707701460891  0.84682256993878  0.6672509721580722  1.0000
  H   H37       1.0  0.3001531995733231  0.1543069099527514  0.013356050599064388  1.0000
  H   H38       1.0  0.845674069265101  0.6998324088395476  0.48664933453234466  1.0000
  H   H39       1.0  0.6998274559778325  0.8456919052067916  0.9866540720452901  1.0000
  H   H40       1.0  0.15432538024419526  0.30017511142497705  0.5133339991864929  1.0000
  C   C1        1.0  0.6145180309269875  0.9310095690361704  0.18217325176447463  1.0000
  C   C2        1.0  0.06900828992093716  0.3854873964863116  0.3178380883065229  1.0000
  C   C3        1.0  0.3854605104431812  0.06899081297819977  0.8178204454475944  1.0000
  C   C4        1.0  0.930976581401936  0.6145545069414382  0.6821683399958828  1.0000
  C   C5        1.0  0.445747082449671  0.8905066367650817  0.1801186726872358  1.0000
  C   C6        1.0  0.10951440526513068  0.5542665566075371  0.3198874534320096  1.0000
  C   C7        1.0  0.5542386682934364  0.10948991172482887  0.8198881370948425  1.0000
  C   C8        1.0  0.890492489450665  0.44577198520781275  0.6801099265732657  1.0000
  C   C9        1.0  0.34159452867098855  0.7158094760087224  0.15754179956132924  1.0000
  C   C10       1.0  0.2842101339684859  0.6584188431129119  0.3424765658753798  1.0000
  C   C11       1.0  0.6583989609732299  0.28419048751160847  0.8424666981167872  1.0000
  C   C12       1.0  0.715801216992631  0.3415927644406976  0.65752810453705  1.0000
  C   C13       1.0  0.18277624116839064  0.1675052076724626  0.131750671264335  1.0000
  C   C14       1.0  0.8324714647932012  0.817198940972318  0.36823937212054136  1.0000
  C   C15       1.0  0.8171896068518762  0.8324790967988986  0.8682369485497998  1.0000
  C   C16       1.0  0.16752820349736197  0.18280492633095943  0.6317507818311441  1.0000
  C   C17       1.0  0.13944632959266562  0.9430603964680415  0.04687304759774947  1.0000
  C   C18       1.0  0.056909557619853404  0.8605456227995133  0.4531245607576507  1.0000
  C   C19       1.0  0.8605646787665223  0.0569184888488365  0.9531386990849738  1.0000
  C   C20       1.0  0.9430936726189078  0.13944203111478967  0.5468623502002001  1.0000
  C   C21       1.0  0.13113950802318894  0.8223811414697122  0.9796343304632412  1.0000
  C   C22       1.0  0.17760115312078276  0.8688699701192845  0.5203576421587002  1.0000
  C   C23       1.0  0.8688985583911943  0.1776221949397794  0.020371241583561076  1.0000
  C   C24       1.0  0.8223938596972221  0.13111990155732664  0.4796351524911343  1.0000
  C   C25       1.0  0.01740294717552602  0.6742862910388607  0.9815844754520879  1.0000
  C   C26       1.0  0.32568896332217184  0.9825958317743754  0.5183996743709187  1.0000
  C   C27       1.0  0.9825998773371794  0.3257176591733  0.018401689484512908  1.0000
  C   C28       1.0  0.6743044631423061  0.017414659244806792  0.4816061784393923  1.0000
  C   C29       1.0  0.9175384770327709  0.6470587909398657  0.04937034022317728  1.0000
  C   C30       1.0  0.35291100149644444  0.08246371080449678  0.45061465434520886  1.0000
  C   C31       1.0  0.08251296298013946  0.3529128292221414  0.950646444382812  1.0000
  C   C32       1.0  0.6470969935777048  0.9175168667379762  0.5493756147427857  1.0000
  C   C33       1.0  0.9270730865979147  0.7671441274614849  0.11717847414754345  1.0000
  C   C34       1.0  0.23282680136296113  0.07292516193065518  0.382811528494976  1.0000
  C   C35       1.0  0.07294267177538669  0.232831538454235  0.8828213013202768  1.0000
  C   C36       1.0  0.7671832909325857  0.927079492446694  0.6171924235021533  1.0000
  C   C37       1.0  0.0397030485826306  0.9172906301146355  0.11516232786571827  1.0000
  C   C38       1.0  0.0826830865773473  0.9602831128763397  0.384831246124726  1.0000
  C   C39       1.0  0.9602884654483859  0.08269209710685738  0.8848380804536758  1.0000
  C   C40       1.0  0.9173245346072249  0.0397227513393617  0.615171171386464  1.0000
  S   S1        1.0  0.38246532289768725  0.6175531598515464  0.2500092798561155  1.0000
  S   S2        1.0  0.6175229085331537  0.38243770911351754  0.7499915535506573  1.0000
  N   N1        1.0  0.07054911987302859  0.06074601208850077  0.16705329696087284  1.0000
  N   N2        1.0  0.939234538471595  0.929425446544691  0.33293487372232977  1.0000
  N   N3        1.0  0.9294565065262717  0.9392387248561107  0.8329577787220044  1.0000
  N   N4        1.0  0.06077695325123501  0.07058406217193888  0.6670603685180081  1.0000
  N   N5        1.0  0.22905110857516323  0.10213507830759028  0.06057545363226779  1.0000
  N   N6        1.0  0.8978334367352403  0.7709271217296276  0.43941387831247863  1.0000
  N   N7        1.0  0.7709362311529945  0.8978475723702886  0.9394288551885307  1.0000
  N   N8        1.0  0.10216216402084653  0.2290745361914972  0.5605721661539035  1.0000
  O   O1        1.0  0.7103782672443798  0.026832322136677095  0.2588169976114542  1.0000
  O   O2        1.0  0.9731838525540935  0.289630372735651  0.2411870927407306  1.0000
  O   O3        1.0  0.28962105371149965  0.9731795488088579  0.7411788106174126  1.0000
  O   O4        1.0  0.02679352999219007  0.7103849448262094  0.7588142183218449  1.0000
  O   O5        1.0  0.6526158486558771  0.8724783400289338  0.11239478825382312  1.0000
  O   O6        1.0  0.12751977598082925  0.34736853315304467  0.3876083863309033  1.0000
  O   O7        1.0  0.34734980499969487  0.12751412109174956  0.887592104003346  1.0000
  O   O8        1.0  0.8724587659010936  0.6526731874561449  0.6124067290943528  1.0000
