data_image0
_chemical_formula_structural       Yb2H12C12N2O16
_chemical_formula_sum              "Yb2 H12 C12 N2 O16"
_cell_length_a       6.652007375730095
_cell_length_b       7.806779240105478
_cell_length_c       9.0937030770644
_cell_angle_alpha    95.94328862326627
_cell_angle_beta     110.69701975614532
_cell_angle_gamma    94.49273903004121

_space_group_name_H-M_alt    "P 1"
_space_group_IT_number       1

loop_
  _space_group_symop_operation_xyz
  'x, y, z'

loop_
  _atom_site_type_symbol
  _atom_site_label
  _atom_site_symmetry_multiplicity
  _atom_site_fract_x
  _atom_site_fract_y
  _atom_site_fract_z
  _atom_site_occupancy
  Yb  Yb1       1.0  0.37635258383588877  0.7640136844413591  0.2146551136214114  1.0000
  Yb  Yb2       1.0  0.6236440991012984  0.23598544531035512  0.7853452657534632  1.0000
  H   H1        1.0  0.24219681902626888  0.7427236417067109  0.6156195329656599  1.0000
  H   H2        1.0  0.7578053240057515  0.2572753592267176  0.3843797001841339  1.0000
  H   H3        1.0  0.02996165276401537  0.7716413890677174  0.43940756281438104  1.0000
  H   H4        1.0  0.9700405990975015  0.22835889757164554  0.5605916760335392  1.0000
  H   H5        1.0  0.9772968415629676  0.162156576127515  0.22741951232666935  1.0000
  H   H6        1.0  0.02270864646355619  0.8378463056921533  0.7725797584467388  1.0000
  H   H7        1.0  0.22541420840828857  0.2876911249327351  0.2616020330609247  1.0000
  H   H8        1.0  0.7745926838813375  0.7123084288345684  0.7384007824687303  1.0000
  H   H9        1.0  0.9339743098619379  0.5748482081539451  0.0951413452924967  1.0000
  H   H10       1.0  0.06602341424055429  0.42515204283277097  0.9048578627615812  1.0000
  H   H11       1.0  0.8942385453864076  0.7713407848335838  0.11837852045873382  1.0000
  H   H12       1.0  0.10576184180347781  0.22865983074763827  0.881623072427047  1.0000
  C   C1        1.0  0.157240731818078  0.5352955428862316  0.428254168402745  1.0000
  C   C2        1.0  0.8427537561194072  0.46470211292017893  0.5717450077258448  1.0000
  C   C3        1.0  0.09304002511347421  0.677298492103688  0.5208413277531606  1.0000
  C   C4        1.0  0.9069626948357477  0.3227006851848914  0.4791590926801774  1.0000
  C   C5        1.0  0.12337865497932651  0.23195199676664663  0.32100180482294155  1.0000
  C   C6        1.0  0.8766256830523957  0.7680484781120854  0.6789986315731442  1.0000
  C   C7        1.0  0.24738566394527345  0.10416941311846273  0.4251524590475953  1.0000
  C   C8        1.0  0.7526127208133531  0.8958344436425566  0.5748538635747737  1.0000
  C   C9        1.0  0.6108505384301494  0.9668180185123351  0.0171390020772009  1.0000
  C   C10       1.0  0.389157140756481  0.03318839148326447  0.9828579317527398  1.0000
  C   C11       1.0  0.4141383438329029  0.5254008080485236  0.9256827666272472  1.0000
  C   C12       1.0  0.5858597607787601  0.47459695839887683  0.0743081555377358  1.0000
  N   N1        1.0  0.06543282415203322  0.3728164491202293  0.4100942055219789  1.0000
  N   N2        1.0  0.9345694277094836  0.6271838375191338  0.589905033325941  1.0000
  O   O1        1.0  0.2946559757733239  0.5756292703447271  0.3673905483647744  1.0000
  O   O2        1.0  0.7053452310832923  0.4243719492902758  0.6326063216141834  1.0000
  O   O3        1.0  0.2612241093595173  0.9602141927883496  0.3548769008357909  1.0000
  O   O4        1.0  0.7387687894256061  0.039777967484042207  0.6451198779332047  1.0000
  O   O5        1.0  0.3249537368637974  0.1484689413703961  0.5742498501103341  1.0000
  O   O6        1.0  0.6750440161688401  0.8515271116724394  0.4257469765468899  1.0000
  O   O7        1.0  0.2751870349852865  0.9800826142473087  0.0576802685469247  1.0000
  O   O8        1.0  0.7248140128607402  0.019921607108223306  0.942328438907147  1.0000
  O   O9        1.0  0.6606718597946111  0.8625968994579553  0.11958323017096721  1.0000
  O   O10       1.0  0.3393325909061957  0.1374028068960627  0.8804207521130039  1.0000
  O   O11       1.0  0.2764248083961078  0.6174368305282769  0.9509734382067947  1.0000
  O   O12       1.0  0.7235690736940441  0.3825648468668632  0.04902693203510471  1.0000
  O   O13       1.0  0.580037398177943  0.5308348138703423  0.2073002372725199  1.0000
  O   O14       1.0  0.4199527796595035  0.46916537769528344  0.7926989194584808  1.0000
  O   O15       1.0  0.9980323516063477  0.3056436245781313  0.8931381308756201  1.0000
  O   O16       1.0  0.001966058242828721  0.694358088469656  0.10686227016012852  1.0000
