data_image0
_chemical_formula_structural       Na2H6C8O8
_chemical_formula_sum              "Na2 H6 C8 O8"
_cell_length_a       5.39390288778864
_cell_length_b       6.461205585925217
_cell_length_c       7.95707169035759
_cell_angle_alpha    82.40244341157018
_cell_angle_beta     88.09639727489383
_cell_angle_gamma    67.2201672362429

_space_group_name_H-M_alt    "P 1"
_space_group_IT_number       1

loop_
  _space_group_symop_operation_xyz
  'x, y, z'

loop_
  _atom_site_type_symbol
  _atom_site_label
  _atom_site_symmetry_multiplicity
  _atom_site_fract_x
  _atom_site_fract_y
  _atom_site_fract_z
  _atom_site_occupancy
  Na  Na1       1.0  0.5292646144632513  0.7614120496214056  0.39775005384620954  1.0000
  Na  Na2       1.0  0.47072659954271495  0.23859348437624558  0.6023026868060768  1.0000
  H   H1        1.0  0.7580953625603682  0.7921500964023596  0.9622449074241572  1.0000
  H   H2        1.0  0.24192299324486297  0.20782935146965545  0.03773941305920661  1.0000
  H   H3        1.0  0.334217377004208  0.6930943177219576  0.8322216518904428  1.0000
  H   H4        1.0  0.6657746618670402  0.3069183527124153  0.16787922578541276  1.0000
  H   H5        1.0  0.04457850163622356  0.7095282131757374  0.38074096052883283  1.0000
  H   H6        1.0  0.9553575922854661  0.2906413935041101  0.6192968066691266  1.0000
  C   C1        1.0  0.002575391736570444  0.752714632285489  0.6531803553523191  1.0000
  C   C2        1.0  0.9974340302980875  0.24730868087755908  0.3467914962528128  1.0000
  C   C3        1.0  0.1183850149652129  0.7353160243701639  0.8239363912581865  1.0000
  C   C4        1.0  0.8815708610151205  0.2647632762977707  0.1760184121165764  1.0000
  C   C5        1.0  0.9728426197944414  0.7567472031985077  0.9652603480446661  1.0000
  C   C6        1.0  0.027193247944005277  0.243218661975547  0.03473115043642851  1.0000
  C   C7        1.0  0.10152014697415268  0.730886822137684  0.13241818761120785  1.0000
  C   C8        1.0  0.8985433138864848  0.26902805860268597  0.8675581780891337  1.0000
  O   O1        1.0  0.17797811804226873  0.6685803283258309  0.538902936875509  1.0000
  O   O2        1.0  0.8219930153624943  0.3313820904998366  0.46101883489978956  1.0000
  O   O3        1.0  0.3394094026141374  0.7050773093306262  0.1512278872896928  1.0000
  O   O4        1.0  0.6605789267247886  0.2949603767976399  0.848831144837753  1.0000
  O   O5        1.0  0.9365159099619832  0.7398326878505657  0.2616640515094701  1.0000
  O   O6        1.0  0.0635454823864521  0.2600520412023855  0.7383399415657125  1.0000
  O   O7        1.0  0.7523392503198417  0.8412487609439693  0.6248583010634193  1.0000
  O   O8        1.0  0.24763038273707846  0.15871374093845958  0.3750723264931822  1.0000
