data_image0
_chemical_formula_structural       Ag4H14C24N6O12
_chemical_formula_sum              "Ag4 H14 C24 N6 O12"
_cell_length_a       7.714765158504983
_cell_length_b       7.981127100891006
_cell_length_c       12.499598685419
_cell_angle_alpha    75.63880289797977
_cell_angle_beta     83.75112912410756
_cell_angle_gamma    62.5752613246601

_space_group_name_H-M_alt    "P 1"
_space_group_IT_number       1

loop_
  _space_group_symop_operation_xyz
  'x, y, z'

loop_
  _atom_site_type_symbol
  _atom_site_label
  _atom_site_symmetry_multiplicity
  _atom_site_fract_x
  _atom_site_fract_y
  _atom_site_fract_z
  _atom_site_occupancy
  Ag  Ag1       1.0  0.23127463073343074  0.8200563419965903  0.5033769932351717  1.0000
  Ag  Ag2       1.0  0.7687197923730551  0.17994185950322367  0.4966253920451535  1.0000
  Ag  Ag3       1.0  0.6941039247135877  0.5223154384701729  0.5792733309178146  1.0000
  Ag  Ag4       1.0  0.3058891878245049  0.47768562686410126  0.4207238826385121  1.0000
  H   H1        1.0  0.6628229541254245  0.9102452722480764  0.6975666715453954  1.0000
  H   H2        1.0  0.33717410004970116  0.0897644634488373  0.3024320715578811  1.0000
  H   H3        1.0  0.7174440700001625  0.6865424430521615  0.8846879963482408  1.0000
  H   H4        1.0  0.28255298905227016  0.3134701824984845  0.11531028026661971  1.0000
  H   H5        1.0  0.4327942995146614  0.6547739127766761  0.9869328534560681  1.0000
  H   H6        1.0  0.5672073300455337  0.3452343642129208  0.013067409273325795  1.0000
  H   H7        1.0  0.9780379100003599  0.669415245754273  0.663209566830382  1.0000
  H   H8        1.0  0.021961730612957787  0.330577142157388  0.3367925961287952  1.0000
  H   H9        1.0  0.3575227012598887  0.2051536937041618  0.9193979172835895  1.0000
  H   H10       1.0  0.6424841221553734  0.7948371937274246  0.08060159192945793  1.0000
  H   H11       1.0  0.630664790533544  0.2728898869322762  0.8171551998453026  1.0000
  H   H12       1.0  0.3693394296960261  0.7271067999062739  0.18284435356471823  1.0000
  H   H13       1.0  0.018512129210904477  0.41069108289071476  0.8388511069043503  1.0000
  H   H14       1.0  0.9814946893270572  0.5892969146871393  0.16114886879711318  1.0000
  C   C1        1.0  0.1931271533002671  0.9836320516899377  0.7538165177730463  1.0000
  C   C2        1.0  0.8068731538213356  0.016370430609541103  0.24618157079680714  1.0000
  C   C3        1.0  0.3271179764001815  0.1312441500149149  0.5830620514792884  1.0000
  C   C4        1.0  0.6728777580980604  0.8687598020285137  0.41693611556367943  1.0000
  C   C5        1.0  0.35519634303713593  0.9967749455389452  0.6955814838802185  1.0000
  C   C6        1.0  0.6448033205818363  0.003231886123053601  0.3044175475872848  1.0000
  C   C7        1.0  0.9948256765755161  0.10944715681989692  0.6996143720372602  1.0000
  C   C8        1.0  0.005171361586853407  0.8905539037975176  0.300384971481634  1.0000
  C   C9        1.0  0.5420259728326896  0.8912273532509688  0.7430247540756412  1.0000
  C   C10       1.0  0.4579743433087771  0.10877803545717771  0.2569752651546438  1.0000
  C   C11       1.0  0.5722473267873129  0.76704505028367  0.8474919956691808  1.0000
  C   C12       1.0  0.42775102967108586  0.23296178846891996  0.15250712486041348  1.0000
  C   C13       1.0  0.4154426858065816  0.7481703098720801  0.9050170560153888  1.0000
  C   C14       1.0  0.584556984070538  0.25183941716195335  0.09498230801332139  1.0000
  C   C15       1.0  0.2285054870347382  0.8568069693870582  0.8580133635617601  1.0000
  C   C16       1.0  0.771494176584234  0.14319986227494036  0.1419856679057503  1.0000
  C   C17       1.0  0.1179802882511041  0.5761628339446432  0.7053980841310263  1.0000
  C   C18       1.0  0.8820219743223632  0.42383244067617903  0.2946050323147844  1.0000
  C   C19       1.0  0.32833710661989807  0.3205742620158746  0.8453833977508511  1.0000
  C   C20       1.0  0.6716671114940735  0.6794195460055691  0.1546182202468032  1.0000
  C   C21       1.0  0.47874999038324967  0.3575486451886504  0.7902392512618449  1.0000
  C   C22       1.0  0.5212509671452494  0.6424495153398694  0.2097618896584166  1.0000
  C   C23       1.0  0.14180316788515046  0.4337770527674963  0.8015059010538083  1.0000
  C   C24       1.0  0.8582010439706664  0.5662138598819055  0.19849538438264597  1.0000
  N   N1        1.0  0.0681853728648676  0.833937797954249  0.922361610422314  1.0000
  N   N2        1.0  0.9318181962230625  0.16606033735646264  0.0776377542745408  1.0000
  N   N3        1.0  0.26767095193225304  0.6067117220947154  0.6572805108436128  1.0000
  N   N4        1.0  0.7323267415143137  0.3932879066054795  0.3427214185372875  1.0000
  N   N5        1.0  0.44789302354185145  0.49797343564785035  0.6994205665500459  1.0000
  N   N6        1.0  0.55210466852386  0.5020261875340283  0.3005805637812387  1.0000
  O   O1        1.0  0.8993047806673788  0.9672003651666258  0.9037910269641289  1.0000
  O   O2        1.0  0.10069551946132552  0.03279634846202129  0.0962095926817739  1.0000
  O   O3        1.0  0.10878835315273958  0.6803648225889135  0.9931060757969022  1.0000
  O   O4        1.0  0.8912184813979778  0.31963185006843997  0.006893299488929481  1.0000
  O   O5        1.0  0.3957764089634921  0.25242504705877883  0.5743494321876028  1.0000
  O   O6        1.0  0.6042212838369637  0.7475774494218969  0.42564883450643265  1.0000
  O   O7        1.0  0.24011168794229576  0.12010288723569573  0.5071485585950128  1.0000
  O   O8        1.0  0.7598847025748868  0.8799025061893032  0.49284933067269787  1.0000
  O   O9        1.0  0.9164925421439207  0.028293001106838696  0.6602786132147572  1.0000
  O   O10       1.0  0.08350710196584298  0.9717022711402448  0.3397222842063883  1.0000
  O   O11       1.0  0.9342283347096652  0.28846829631165605  0.6930588774468732  1.0000
  O   O12       1.0  0.06576672987247886  0.7115284180878093  0.30693810319932885  1.0000
