data_image0
_chemical_formula_structural       Cu2H12C12S4Br4N4
_chemical_formula_sum              "Cu2 H12 C12 S4 Br4 N4"
_cell_length_a       3.931912341344053
_cell_length_b       7.435986231394742
_cell_length_c       17.495625719417287
_cell_angle_alpha    93.30377139298096
_cell_angle_beta     89.98281837280561
_cell_angle_gamma    89.9735989023216

_space_group_name_H-M_alt    "P 1"
_space_group_IT_number       1

loop_
  _space_group_symop_operation_xyz
  'x, y, z'

loop_
  _atom_site_type_symbol
  _atom_site_label
  _atom_site_symmetry_multiplicity
  _atom_site_fract_x
  _atom_site_fract_y
  _atom_site_fract_z
  _atom_site_occupancy
  Cu  Cu1       1.0  0.5000090871139448  0.5000000065962026  0.9999994910740924  1.0000
  Cu  Cu2       1.0  1.0876644723000153e-06  0.4999963126928932  0.5000001017881814  1.0000
  H   H1        1.0  0.7001954482897543  0.892952023156532  0.9637530849897826  1.0000
  H   H2        1.0  0.20025862687904086  0.1069448867878577  0.5362121399737773  1.0000
  H   H3        1.0  0.2998138041881049  0.10704811190910848  0.036247264919481395  1.0000
  H   H4        1.0  0.799753171132174  0.8930498600198931  0.46378810158552836  1.0000
  H   H5        1.0  0.3342090089965025  0.7093474443010448  0.7256378409732702  1.0000
  H   H6        1.0  0.8342011067108072  0.2907084400412073  0.7743819357593009  1.0000
  H   H7        1.0  0.665762086654645  0.29066888764565846  0.27436397895201026  1.0000
  H   H8        1.0  0.16580306310537904  0.70928226687176  0.22561822491255865  1.0000
  H   H9        1.0  0.3029420566892113  0.45419466807928893  0.8294114425657779  1.0000
  H   H10       1.0  0.8028725541200072  0.5458751134188304  0.670610331946797  1.0000
  H   H11       1.0  0.6970570209026475  0.5458121613334511  0.17058732740690624  1.0000
  H   H12       1.0  0.19712398674172243  0.45411423357928266  0.32938923007958454  1.0000
  C   C1        1.0  0.5992084333847881  0.8213615718314812  0.9128937098172185  1.0000
  C   C2        1.0  0.0992573809149917  0.17857645106938239  0.5870854472889419  1.0000
  C   C3        1.0  0.4007957304667895  0.17864261883633503  0.08710729336254268  1.0000
  C   C4        1.0  0.9007544183790511  0.8214169208087296  0.4129136234418381  1.0000
  C   C5        1.0  0.40389382843655836  0.7207252323207244  0.7859095545310024  1.0000
  C   C6        1.0  0.9038887034818613  0.2792978833693382  0.7140913177928778  1.0000
  C   C7        1.0  0.596084898771629  0.27928705765337714  0.21409218390678564  1.0000
  C   C8        1.0  0.09612055179768218  0.7206955168068205  0.28590889680394577  1.0000
  C   C9        1.0  0.3920690592198354  0.5918220828315268  0.8384523385286325  1.0000
  C   C10       1.0  0.8920252491963436  0.4081963721234985  0.6615573092632088  1.0000
  C   C11       1.0  0.607927474519677  0.4081860939054138  0.16154645860655137  1.0000
  C   C12       1.0  0.10797891893883357  0.5917983757231581  0.3384429325961235  1.0000
  S   S1        1.0  0.5569880943188963  0.9190577008708019  0.8276830383797457  1.0000
  S   S2        1.0  0.05704805378748288  0.08089054116664579  0.6723022710664066  1.0000
  S   S3        1.0  0.4429957196724103  0.08095325540865869  0.17231924467855458  1.0000
  S   S4        1.0  0.9429612009317193  0.9191042059874089  0.3276979705929079  1.0000
  Br  Br1       1.0  0.8910904064725497  0.27995045507086047  0.9311714085432923  1.0000
  Br  Br2       1.0  0.390788767060421  0.7199077875307507  0.568825955791773  1.0000
  Br  Br3       1.0  0.10892393387216256  0.7200483043725469  0.06882777033743537  1.0000
  Br  Br4       1.0  0.6091899686780237  0.28008826882923177  0.4311725984810834  1.0000
  N   N1        1.0  0.5026515053343841  0.6508588986956665  0.9103856229507554  1.0000
  N   N2        1.0  0.002636012712308399  0.3491189956389746  0.5896054042189716  1.0000
  N   N3        1.0  0.4973577471065411  0.34914388839816707  0.08961306543443467  1.0000
  N   N4        1.0  0.9973732416087128  0.6508784175191379  0.4103937477992828  1.0000
