data_image0
_chemical_formula_structural       Mn4H28C28N4O24
_chemical_formula_sum              "Mn4 H28 C28 N4 O24"
_cell_length_a       6.251849384464273
_cell_length_b       10.628517233582627
_cell_length_c       14.55304062128932
_cell_angle_alpha    106.86698692079109
_cell_angle_beta     90.02897824127696
_cell_angle_gamma    107.08606326377593

_space_group_name_H-M_alt    "P 1"
_space_group_IT_number       1

loop_
  _space_group_symop_operation_xyz
  'x, y, z'

loop_
  _atom_site_type_symbol
  _atom_site_label
  _atom_site_symmetry_multiplicity
  _atom_site_fract_x
  _atom_site_fract_y
  _atom_site_fract_z
  _atom_site_occupancy
  Mn  Mn1       1.0  0.5771832182225579  0.3841189365259154  0.7104656508137597  1.0000
  Mn  Mn2       1.0  0.1929880306527353  0.615916303259148  0.7895158019671984  1.0000
  Mn  Mn3       1.0  0.42282342407741424  0.6158857442700593  0.2895333581591117  1.0000
  Mn  Mn4       1.0  0.8070037242886059  0.3840873827229885  0.21049261625943674  1.0000
  H   H1        1.0  0.5399559035240813  0.06719456473577883  0.583554829416869  1.0000
  H   H2        1.0  0.4726375275514982  0.9328974368828258  0.9163109747434606  1.0000
  H   H3        1.0  0.46000242311593115  0.93279666383004  0.41643516188771207  1.0000
  H   H4        1.0  0.5273625747794313  0.0670845502661734  0.08369219540209372  1.0000
  H   H5        1.0  0.2546375645502153  0.8338804409857945  0.5458282879218289  1.0000
  H   H6        1.0  0.4203932778916979  0.16616663673729454  0.9540291895980886  1.0000
  H   H7        1.0  0.745328529214909  0.16612631626506413  0.4541732146199919  1.0000
  H   H8        1.0  0.579632353737317  0.8338184296794398  0.045969820681826035  1.0000
  H   H9        1.0  0.7701379640076736  0.038861512637389205  0.6637952274609945  1.0000
  H   H10       1.0  0.7307052855322522  0.9611420231957409  0.8362376435694616  1.0000
  H   H11       1.0  0.22982721311450421  0.9611370037524911  0.3362107267633264  1.0000
  H   H12       1.0  0.2692876979822429  0.038851323390297  0.1637665396606707  1.0000
  H   H13       1.0  0.5358258552793416  0.3612848061791141  0.5149452027871747  1.0000
  H   H14       1.0  0.17480264894959419  0.6387017717467459  0.9849755732644712  1.0000
  H   H15       1.0  0.46416975357068685  0.6387105958043123  0.48505666426785876  1.0000
  H   H16       1.0  0.825209620146879  0.3612853616385295  0.015023870111818398  1.0000
  H   H17       1.0  0.6764690465374059  0.3086468906927778  0.8678853258617921  1.0000
  H   H18       1.0  0.36795696539163475  0.6914712203824752  0.6322306134375779  1.0000
  H   H19       1.0  0.3235373323157802  0.6913412627334382  0.13211089560256545  1.0000
  H   H20       1.0  0.6320243555637219  0.30851799430770654  0.3677726998582643  1.0000
  H   H21       1.0  0.6978394052761772  0.51790999576302  0.5685718002802318  1.0000
  H   H22       1.0  0.1800078615535341  0.48202425080652483  0.9313437730602773  1.0000
  H   H23       1.0  0.302153049618184  0.48208229896035715  0.43142735174689056  1.0000
  H   H24       1.0  0.8200076117431366  0.517962890449134  0.06865773375063365  1.0000
  H   H25       1.0  0.43794722270511943  0.33967450147805783  0.8834892054492158  1.0000
  H   H26       1.0  0.09838827358683488  0.6603813274354664  0.6164429975319338  1.0000
  H   H27       1.0  0.5620602496821689  0.6603126348425336  0.11651092516698472  1.0000
  H   H28       1.0  0.9015940247190244  0.3396130448069884  0.38355933873380377  1.0000
  C   C1        1.0  0.36697844262938867  0.05608513821644582  0.5999828439448152  1.0000
  C   C2        1.0  0.31064383236177684  0.94398786579707  0.8999408343953379  1.0000
  C   C3        1.0  0.6330033616063276  0.9439050586522272  0.40000762015611724  1.0000
  C   C4        1.0  0.6893672116492198  0.056009612344624315  0.10006421939267801  1.0000
  C   C5        1.0  0.20745493315836663  0.9261713832880644  0.5798070996400783  1.0000
  C   C6        1.0  0.28088878454989447  0.0738788584811161  0.9201510103563069  1.0000
  C   C7        1.0  0.7925390015490663  0.07382708064784543  0.42018579094576586  1.0000
  C   C8        1.0  0.7191345804479141  0.9261144730881554  0.07984973729782036  1.0000
  C   C9        1.0  0.9879634582865223  0.917325997114361  0.6035727474282098  1.0000
  C   C10       1.0  0.07012933508359961  0.08270023602881343  0.8964648921369192  1.0000
  C   C11       1.0  0.012030739850416711  0.08265698863429805  0.39642169914451847  1.0000
  C   C12       1.0  0.9298907754694878  0.9172961870597547  0.10353444367585504  1.0000
  C   C13       1.0  0.9380745633372244  0.040416249380079705  0.6438847028715815  1.0000
  C   C14       1.0  0.89716818460677  0.9595921427970642  0.8561621575807125  1.0000
  C   C15       1.0  0.06191534752845484  0.9595677616847882  0.3561078973603459  1.0000
  C   C16       1.0  0.10284017684881519  0.040406368616274314  0.1438431131452305  1.0000
  C   C17       1.0  0.10607300355574979  0.1660643340182233  0.6593894191674822  1.0000
  C   C18       1.0  0.939665125765728  0.8339365241478233  0.8405893204688084  1.0000
  C   C19       1.0  0.8939395635375008  0.8339362032256831  0.3406059707555259  1.0000
  C   C20       1.0  0.06031949290353824  0.16604648891274829  0.15941200224465754  1.0000
  C   C21       1.0  0.054684289073279026  0.3002970956824882  0.697330033467189  1.0000
  C   C22       1.0  0.7542174441215792  0.6997051953069048  0.8026754988863232  1.0000
  C   C23       1.0  0.9452844317712136  0.6997117196459259  0.30266984060714464  1.0000
  C   C24       1.0  0.24580535596226843  0.3002902052306596  0.19732637081897056  1.0000
  C   C25       1.0  0.8068578246703381  0.7800234877264318  0.5850178643686874  1.0000
  C   C26       1.0  0.026328397774506098  0.220008537992129  0.9150048034047346  1.0000
  C   C27       1.0  0.19313665958327417  0.2199760602340675  0.41498830991151453  1.0000
  C   C28       1.0  0.9736848591354956  0.7799837690263872  0.08499778918712053  1.0000
  N   N1        1.0  0.3197868493864107  0.1743793404720719  0.6398049927780747  1.0000
  N   N2        1.0  0.1451729184190924  0.825673169803956  0.8601489921198819  1.0000
  N   N3        1.0  0.6802283378108598  0.8256232441287424  0.36018601784699916  1.0000
  N   N4        1.0  0.854833585336884  0.17430882236516254  0.1398555540644892  1.0000
  O   O1        1.0  0.2240920749294163  0.4095739548460316  0.7289128822237744  1.0000
  O   O2        1.0  0.8144293463946399  0.5904563701281024  0.7711111226325686  1.0000
  O   O3        1.0  0.7759289229481255  0.5904338406551233  0.2710909059911373  1.0000
  O   O4        1.0  0.18556023542921452  0.40954937150657866  0.22889497895128133  1.0000
  O   O5        1.0  0.8512342442173452  0.2951436264073877  0.6949512921478913  1.0000
  O   O6        1.0  0.5559056440294371  0.7048089877931432  0.8050311456615306  1.0000
  O   O7        1.0  0.14875278834630729  0.7048538235283105  0.30504619451792087  1.0000
  O   O8        1.0  0.4440867466696901  0.295186384878626  0.19496315629797323  1.0000
  O   O9        1.0  0.8690988454062917  0.6729169105485441  0.5704999840147665  1.0000
  O   O10       1.0  0.1957287419373515  0.32703103220119806  0.9294071748766798  1.0000
  O   O11       1.0  0.13088272678898252  0.32708881275026874  0.4295013028363003  1.0000
  O   O12       1.0  0.8042989190509148  0.6729612874526654  0.07059885765631445  1.0000
  O   O13       1.0  0.6042221774642371  0.7813542497766691  0.5835962410063972  1.0000
  O   O14       1.0  0.8224247635995992  0.2187887240459717  0.9164970507388476  1.0000
  O   O15       1.0  0.39575753703142175  0.21863495427792407  0.4164043213030979  1.0000
  O   O16       1.0  0.17759653400128886  0.7812004724369714  0.08350214020876481  1.0000
  O   O17       1.0  0.6103564303698049  0.4276779548298678  0.5776409339491553  1.0000
  O   O18       1.0  0.18312512902359404  0.5723517467605888  0.9222992841708549  1.0000
  O   O19       1.0  0.3896466490256358  0.572316397545798  0.42235659038996703  1.0000
  O   O20       1.0  0.8168807923800404  0.42763228757521443  0.07769950698855874  1.0000
  O   O21       1.0  0.575390786760714  0.3540544458927499  0.8478307869652186  1.0000
  O   O22       1.0  0.22150529515852932  0.646041443653438  0.6521876215130791  1.0000
  O   O23       1.0  0.4246065670757346  0.6459316497961183  0.15216706234303257  1.0000
  O   O24       1.0  0.7784792212778342  0.35394776550631957  0.3478143166793331  1.0000
