data_image0
_chemical_formula_structural       Cu2H20C20N20O12
_chemical_formula_sum              "Cu2 H20 C20 N20 O12"
_cell_length_a       8.103838195960876
_cell_length_b       8.103841995051466
_cell_length_c       12.007135428037287
_cell_angle_alpha    90.00013742646948
_cell_angle_beta     90.0002046173373
_cell_angle_gamma    105.43817733743288

_space_group_name_H-M_alt    "P 1"
_space_group_IT_number       1

loop_
  _space_group_symop_operation_xyz
  'x, y, z'

loop_
  _atom_site_type_symbol
  _atom_site_label
  _atom_site_symmetry_multiplicity
  _atom_site_fract_x
  _atom_site_fract_y
  _atom_site_fract_z
  _atom_site_occupancy
  Cu  Cu1       1.0  0.7602120107283384  0.7602117748742713  0.6368311929798054  1.0000
  Cu  Cu2       1.0  0.2397856587310088  0.23978606793075133  0.1368349517596599  1.0000
  H   H1        1.0  0.6145205565708451  0.8113674195393514  0.18722423663543716  1.0000
  H   H2        1.0  0.3854767804578855  0.18862813252804497  0.687227812221586  1.0000
  H   H3        1.0  0.1886281409096  0.38547753845490007  0.6872293993697056  1.0000
  H   H4        1.0  0.811366725154528  0.6145180022581087  0.1872226494843261  1.0000
  H   H5        1.0  0.7341483059677429  0.3707069308943857  0.9331746354591177  1.0000
  H   H6        1.0  0.2658492165231579  0.6292937660322836  0.433172423283395  1.0000
  H   H7        1.0  0.6292914299162862  0.2658461721634708  0.4331725682668548  1.0000
  H   H8        1.0  0.37071069919915806  0.7341532673110507  0.933174490480198  1.0000
  H   H9        1.0  0.7651252069470685  0.20680116288499306  0.0216881942736151  1.0000
  H   H10       1.0  0.2348757315458201  0.7931973611288041  0.5216882184538321  1.0000
  H   H11       1.0  0.7931989455416755  0.2348719024068942  0.5216884411835991  1.0000
  H   H12       1.0  0.20680456965776273  0.7651317479322157  0.021689637227318304  1.0000
  H   H13       1.0  0.8023236327791707  0.9236347335370496  0.457669575378482  1.0000
  H   H14       1.0  0.19767618976484164  0.07636482563155769  0.9576708509786371  1.0000
  H   H15       1.0  0.07636709655071881  0.1976803536388516  0.9576699697519474  1.0000
  H   H16       1.0  0.9236337319016953  0.802323046008048  0.4576687909332549  1.0000
  H   H17       1.0  0.463077180420953  0.5836373586273353  0.7399277219132331  1.0000
  H   H18       1.0  0.5369227516811961  0.4163623215389975  0.2399291512390391  1.0000
  H   H19       1.0  0.41636367320992923  0.5369230742073583  0.2399282703077077  1.0000
  H   H20       1.0  0.5836378296735987  0.4630778917926363  0.7399269371712692  1.0000
  C   C1        1.0  0.7595846615810941  0.8695368126520575  0.931326168222256  1.0000
  C   C2        1.0  0.2404168902704811  0.1304651715895204  0.43132808633769326  1.0000
  C   C3        1.0  0.13046623005566724  0.2404199295349656  0.4313272096403296  1.0000
  C   C4        1.0  0.8695375631866183  0.759585900862106  0.931325379249202  1.0000
  C   C5        1.0  0.6870498522253925  0.7952932499819098  0.11320415826665452  1.0000
  C   C6        1.0  0.31294822354871593  0.20470191178142727  0.6132075848361751  1.0000
  C   C7        1.0  0.20470764858125529  0.3129550126384259  0.6132067088278177  1.0000
  C   C8        1.0  0.795295245284521  0.6870491216012551  0.1132033686118419  1.0000
  C   C9        1.0  0.689558729036662  0.2337626116679346  0.9520249289504434  1.0000
  C   C10       1.0  0.3104389199565247  0.7662381861019156  0.45202304544487504  1.0000
  C   C11       1.0  0.7662374532022441  0.3104370241812191  0.4520232272742106  1.0000
  C   C12       1.0  0.23376356693318462  0.6895625104593036  0.9520247471241562  1.0000
  C   C13       1.0  0.49850001216066187  0.18671377718833776  0.9811781586238554  1.0000
  C   C14       1.0  0.5014980620339315  0.8132833417278035  0.4811734806354409  1.0000
  C   C15       1.0  0.8132797616724758  0.5014975533266081  0.4811719393348213  1.0000
  C   C16       1.0  0.18671561198360823  0.4985033890362516  0.9811780342480818  1.0000
  C   C17       1.0  0.7425199733279015  0.9843524050200897  0.8400413533875408  1.0000
  C   C18       1.0  0.2574713116330827  0.0156452106547604  0.34004229444142453  1.0000
  C   C19       1.0  0.015644424292716497  0.25747181485563425  0.3400421979693249  1.0000
  C   C20       1.0  0.9843548384350597  0.7425232802377405  0.8400414498672291  1.0000
  N   N1        1.0  0.6692501045146457  0.8845752578201882  0.022559774440921405  1.0000
  N   N2        1.0  0.33075117513742214  0.11542455102154037  0.5225614341325482  1.0000
  N   N3        1.0  0.11542481510321781  0.3307520568849397  0.5225621810715637  1.0000
  N   N4        1.0  0.8845752290693412  0.6692477462818187  0.022559860338525105  1.0000
  N   N5        1.0  0.7458795182092147  0.9597771267052762  0.7298268732155363  1.0000
  N   N6        1.0  0.2541250584699881  0.04022635694047949  0.2298286787015087  1.0000
  N   N7        1.0  0.040226290762170415  0.2541258109557418  0.22982859337154343  1.0000
  N   N8        1.0  0.9597770504347309  0.7458776670128201  0.7298269585440097  1.0000
  N   N9        1.0  0.7245377720074445  0.10098831743830769  0.6790063726064233  1.0000
  N   N10       1.0  0.2754615216882712  0.8990148716221639  0.1790062847669915  1.0000
  N   N11       1.0  0.8990142245812294  0.27546370359983285  0.1790065335217648  1.0000
  N   N12       1.0  0.10098844025672801  0.7245382223313114  0.6790061238546841  1.0000
  N   N13       1.0  0.7077841050557722  0.21168478624728237  0.7531740069832936  1.0000
  N   N14       1.0  0.2922137802689093  0.7883162335795787  0.2531721151568433  1.0000
  N   N15       1.0  0.7883149591372954  0.29221148160402066  0.253172313063331  1.0000
  N   N16       1.0  0.21168719750726692  0.7077870006097768  0.753173809079911  1.0000
  N   N17       1.0  0.7190777421415149  0.14261218703851603  0.8538391074390149  1.0000
  N   N18       1.0  0.2809208187329801  0.8573893713129618  0.3538381327276383  1.0000
  N   N19       1.0  0.8573898743528261  0.2809205647253206  0.3538375298602148  1.0000
  N   N20       1.0  0.14261239296298814  0.7190810106532836  0.8538380446346991  1.0000
  O   O1        1.0  0.4694961371494344  0.25607748252836865  0.0724951664859006  1.0000
  O   O2        1.0  0.5305027770688681  0.7439264168938207  0.5724941586084427  1.0000
  O   O3        1.0  0.7439242629255317  0.5304991377853839  0.5724942437438827  1.0000
  O   O4        1.0  0.2560780224406116  0.46950349851192635  0.0724967470297315  1.0000
  O   O5        1.0  0.39350925551427457  0.09250318757533896  0.916267386322005  1.0000
  O   O6        1.0  0.6064882773371353  0.907488469123841  0.4162622808767651  1.0000
  O   O7        1.0  0.9074873500371866  0.6064868817540159  0.416259902437794  1.0000
  O   O8        1.0  0.09251399497792788  0.3935099069276261  0.9162639349029362  1.0000
  O   O9        1.0  0.9116273526207338  0.9116257910745134  0.4921250430563333  1.0000
  O   O10       1.0  0.0883765133446062  0.0883790844270251  0.9921302385609678  1.0000
  O   O11       1.0  0.5407995996368911  0.5407990039897753  0.7872313201634142  1.0000
  O   O12       1.0  0.45920064991423704  0.459200929235756  0.28723346399467437  1.0000
