data_image0
_chemical_formula_structural       Yb4H40C56N4O34
_chemical_formula_sum              "Yb4 H40 C56 N4 O34"
_cell_length_a       10.197647965405729
_cell_length_b       11.866157286465477
_cell_length_c       12.739292778193326
_cell_angle_alpha    75.99264941309251
_cell_angle_beta     77.04420601102765
_cell_angle_gamma    72.34416353610924

_space_group_name_H-M_alt    "P 1"
_space_group_IT_number       1

loop_
  _space_group_symop_operation_xyz
  'x, y, z'

loop_
  _atom_site_type_symbol
  _atom_site_label
  _atom_site_symmetry_multiplicity
  _atom_site_fract_x
  _atom_site_fract_y
  _atom_site_fract_z
  _atom_site_occupancy
  Yb  Yb1       1.0  0.801135033030576  0.7803069296364027  0.4496700828599671  1.0000
  Yb  Yb2       1.0  0.19886501582661964  0.21969231433341457  0.5503288111238334  1.0000
  Yb  Yb3       1.0  0.21140604688471845  0.7186901876008847  0.6065888764140864  1.0000
  Yb  Yb4       1.0  0.788593356486217  0.2813108227334665  0.3934100287221369  1.0000
  H   H1        1.0  0.6848868403171766  0.9575655208731033  0.2704301293359705  1.0000
  H   H2        1.0  0.3151127118202766  0.04243443147493046  0.7295695901979968  1.0000
  H   H3        1.0  0.690982375096297  0.03050008545207555  0.3603748523733614  1.0000
  H   H4        1.0  0.30901847627804113  0.9694989911855313  0.6396248666659332  1.0000
  H   H5        1.0  0.8929369343850623  0.9206704590899403  0.5717170683619202  1.0000
  H   H6        1.0  0.10706308926204136  0.07932755208951646  0.42828345999357254  1.0000
  H   H7        1.0  0.7416954130492924  0.994624268580118  0.5538634494841972  1.0000
  H   H8        1.0  0.2583047845744204  0.005373917403382189  0.4461362588973472  1.0000
  H   H9        1.0  0.12395684090846976  0.539161500225724  0.536281871226997  1.0000
  H   H10       1.0  0.8760440104658688  0.46083757641188317  0.4637178478122976  1.0000
  H   H11       1.0  0.2829331597332257  0.4929839608690897  0.5293325167130689  1.0000
  H   H12       1.0  0.7170686681348641  0.5070151232403572  0.4706672074077717  1.0000
  H   H13       1.0  0.9935225622600612  0.13119484689877228  0.0665946457281024  1.0000
  H   H14       1.0  0.006475219130862826  0.8688079223282725  0.9334042654790052  1.0000
  H   H15       1.0  0.17879593467709037  0.012381367409936641  0.9387400595079143  1.0000
  H   H16       1.0  0.8212047509850039  0.9876201914422679  0.061260501315508996  1.0000
  H   H17       1.0  0.3427134994656171  0.8240170095432545  0.0186492299417367  1.0000
  H   H18       1.0  0.6572875089396106  0.1759836661266759  0.981351325305475  1.0000
  H   H19       1.0  0.3980399898817878  0.4379698250075704  0.3265355936107639  1.0000
  H   H20       1.0  0.6019559872881571  0.5620318712894842  0.6734641218309961  1.0000
  H   H21       1.0  0.21475054160426776  0.6246756020194012  0.2895437290293685  1.0000
  H   H22       1.0  0.7852469422536146  0.375329283180264  0.7104535533822584  1.0000
  H   H23       1.0  0.5056737267849629  0.8287700157856716  0.17192128120017708  1.0000
  H   H24       1.0  0.4943279353708901  0.17123155053836558  0.8280792847047991  1.0000
  H   H25       1.0  0.7021102472311752  0.6486472641649214  0.20413375796744762  1.0000
  H   H26       1.0  0.29789089299484317  0.3513537777469792  0.7958692678593878  1.0000
  H   H27       1.0  0.027011756115811622  0.24819456572375018  0.911189216709694  1.0000
  H   H28       1.0  0.9729855455011035  0.7518074876532307  0.088808863865701  1.0000
  H   H29       1.0  0.8546205538961476  0.3190002680873788  0.0741891258801459  1.0000
  H   H30       1.0  0.14537929577434736  0.6809975682880348  0.9258122224493022  1.0000
  H   H31       1.0  0.6938268687849388  0.5260512764758117  0.0455414288444445  1.0000
  H   H32       1.0  0.30617283211903873  0.47394761788591194  0.9544591050872598  1.0000
  H   H33       1.0  0.35875027713434793  0.8168108984221831  0.813650547833106  1.0000
  H   H34       1.0  0.6412537029079459  0.1831896082253408  0.1863467321051786  1.0000
  H   H35       1.0  0.5312244364444325  0.6170069465300043  0.8449709109915985  1.0000
  H   H36       1.0  0.4687783931275007  0.38299337784163595  0.1550271838390955  1.0000
  H   H37       1.0  0.8344402197874459  0.7673840820645947  0.8794499380062959  1.0000
  H   H38       1.0  0.165559943944821  0.23261695237546573  0.1205530827389936  1.0000
  H   H39       1.0  0.6730365324060801  0.9739566329720472  0.855979789617777  1.0000
  H   H40       1.0  0.3269638222485228  0.02604315204378339  0.1440207549716845  1.0000
  C   C1        1.0  0.12169608277566377  0.8439726996667642  0.3769041496534911  1.0000
  C   C2        1.0  0.8783044458555478  0.15602726015310955  0.6230955749620151  1.0000
  C   C3        1.0  0.952040166565311  0.09725253948193564  0.2800190189415233  1.0000
  C   C4        1.0  0.047958880588048126  0.9027454642256814  0.7199815043324236  1.0000
  C   C5        1.0  0.13972283512881492  0.9000376467278243  0.2569225146201717  1.0000
  C   C6        1.0  0.8602745900445257  0.09996211587249342  0.7430780147246594  1.0000
  C   C7        1.0  0.050925334349834414  0.009578959740188981  0.2118293983838626  1.0000
  C   C8        1.0  0.9490742177876256  0.9904209926078448  0.7881703211500977  1.0000
  C   C9        1.0  0.0649028665334583  0.047097363333442395  0.0979392876491403  1.0000
  C   C10       1.0  0.9350963628608683  0.9529034721968583  0.9020604374610315  1.0000
  C   C11       1.0  0.16707641673166038  0.9811020861110721  0.027210949681013098  1.0000
  C   C12       1.0  0.8329247656501694  0.01889876436290181  0.9727887855922575  1.0000
  C   C13       1.0  0.2591253037564132  0.876184959877264  0.07137771601627918  1.0000
  C   C14       1.0  0.7408760273919417  0.12381483261039954  0.9286228336547281  1.0000
  C   C15       1.0  0.24635493700294117  0.8371488991596364  0.18481673500079407  1.0000
  C   C16       1.0  0.7536455998926287  0.16285371767887816  0.8151830114248924  1.0000
  C   C17       1.0  0.4285526692887913  0.5208164496548947  0.2892789402045395  1.0000
  C   C18       1.0  0.5714459146192752  0.47918615223994004  0.7107207960580624  1.0000
  C   C19       1.0  0.32425301358703257  0.6239910207667663  0.2693075802252025  1.0000
  C   C20       1.0  0.6757455703210342  0.37601158112806815  0.7306921560373923  1.0000
  C   C21       1.0  0.4887316031486649  0.73892668550031  0.20092544043217936  1.0000
  C   C22       1.0  0.5112669386035903  0.26107610783244434  0.7990775863839871  1.0000
  C   C23       1.0  0.596583767857851  0.6383158953634903  0.21956282653270878  1.0000
  C   C24       1.0  0.4034172657574615  0.3616860130968006  0.7804360943428179  1.0000
  C   C25       1.0  0.5722285711097896  0.5219770849061759  0.2627842974607333  1.0000
  C   C26       1.0  0.4277696648450586  0.47802516738056494  0.7372170787497723  1.0000
  C   C27       1.0  0.5236350586042777  0.6976765964831556  0.4943989337799195  1.0000
  C   C28       1.0  0.47636596674666987  0.3023226549585018  0.5055999652854268  1.0000
  C   C29       1.0  0.48407926728754097  0.8105996149848662  0.5453920350596917  1.0000
  C   C30       1.0  0.515920930336172  0.18939857099864085  0.45460767332185265  1.0000
  C   C31       1.0  0.9044516952760446  0.6250777230618638  0.6827383415705838  1.0000
  C   C32       1.0  0.0955491560983006  0.3749213535757434  0.3172613774687107  1.0000
  C   C33       1.0  0.06241427877479581  0.3590472561665121  0.7080322850919315  1.0000
  C   C34       1.0  0.9375825009122922  0.640954272798339  0.2919682554053153  1.0000
  C   C35       1.0  0.8846897097887875  0.5337089777593248  0.7871401960101423  1.0000
  C   C36       1.0  0.11530886585492083  0.46629096711686896  0.2128595184422792  1.0000
  C   C37       1.0  0.9699853317392454  0.41475810936118757  0.8017041120589568  1.0000
  C   C38       1.0  0.0300120934341025  0.58524165323913  0.19829641728587427  1.0000
  C   C39       1.0  0.9584085381827805  0.33918627352783653  0.9047167383035983  1.0000
  C   C40       1.0  0.041587761730291085  0.6608145395869512  0.09528297156194299  1.0000
  C   C41       1.0  0.8617669351715305  0.3776291929393593  0.9937198968680647  1.0000
  C   C42       1.0  0.1382324429893202  0.6223705846046312  0.006280642639850999  1.0000
  C   C43       1.0  0.771932517107736  0.4930744300564524  0.9783400089269351  1.0000
  C   C44       1.0  0.2280667040222255  0.5069237484552145  0.021659694373056496  1.0000
  C   C45       1.0  0.7837441944296586  0.5687532325763412  0.8761155858524603  1.0000
  C   C46       1.0  0.21625533249770967  0.4312454869813393  0.1238857680531993  1.0000
  C   C47       1.0  0.4620432512579883  0.8105530612763514  0.8288626636667331  1.0000
  C   C48       1.0  0.5379576083807153  0.18944867237989624  0.17113707718274182  1.0000
  C   C49       1.0  0.5552483074724465  0.7001017910842717  0.8453812967022998  1.0000
  C   C50       1.0  0.4447555155389579  0.2998971165309285  0.1546151470280606  1.0000
  C   C51       1.0  0.7278497884884202  0.7854064299010303  0.8656987152098025  1.0000
  C   C52       1.0  0.2721513686833248  0.21459318778259015  0.1343026544351531  1.0000
  C   C53       1.0  0.6384328276028912  0.8975428725224005  0.8520050734181766  1.0000
  C   C54       1.0  0.3615693312726975  0.10245798542342036  0.1479946669366328  1.0000
  C   C55       1.0  0.49976641008417055  0.9177593965125292  0.8306988129603566  1.0000
  C   C56       1.0  0.5002356169706205  0.08224109519132128  0.1692984568148361  1.0000
  N   N1        1.0  0.3530223635604273  0.7319286311474541  0.22312656559972047  1.0000
  N   N2        1.0  0.6469770228647816  0.26807380341517006  0.7768739957183756  1.0000
  N   N3        1.0  0.6874281805586193  0.6867357190999568  0.8624031212246521  1.0000
  N   N4        1.0  0.31257185135284965  0.3132649490981407  0.1375974289410209  1.0000
  O   O1        1.0  0.017848235858373605  0.8005557260575173  0.4147991791186598  1.0000
  O   O2        1.0  0.9821526155159648  0.1994433505800898  0.5852005399206348  1.0000
  O   O3        1.0  0.21661135082330665  0.8337994272563379  0.430314270629701  1.0000
  O   O4        1.0  0.783389326574422  0.16619947457722614  0.5696862683835491  1.0000
  O   O5        1.0  0.9596017446988445  0.08448563387440795  0.3813043027877043  1.0000
  O   O6        1.0  0.04039780743861605  0.9155143184736256  0.6186954167462559  1.0000
  O   O7        1.0  0.8666739220030593  0.18899057589117516  0.23426478406558  1.0000
  O   O8        1.0  0.13332512515029293  0.8110074278164486  0.7657357392083739  1.0000
  O   O9        1.0  0.6735911491582128  0.4260409581924165  0.2754304015881814  1.0000
  O   O10       1.0  0.32640660702261914  0.5739605782442679  0.7245701439906115  1.0000
  O   O11       1.0  0.650608638986746  0.6658493082816078  0.4489197718276898  1.0000
  O   O12       1.0  0.34939043337669773  0.33414992821636946  0.5510791170745648  1.0000
  O   O13       1.0  0.43127789913732056  0.6445748717219428  0.5042694310852838  1.0000
  O   O14       1.0  0.5687219757432658  0.3554241974438312  0.49573028287247206  1.0000
  O   O15       1.0  0.5773090603032786  0.8620641613686925  0.5377632479221646  1.0000
  O   O16       1.0  0.42269211381418603  0.13793403208665464  0.4622364655409257  1.0000
  O   O17       1.0  0.3580919069879227  0.8407702840086769  0.5939232978564988  1.0000
  O   O18       1.0  0.6419089443864152  0.15922879262893017  0.4060764211827959  1.0000
  O   O19       1.0  0.8182842570801084  0.6532176494748325  0.6171324302311874  1.0000
  O   O20       1.0  0.18171806750771682  0.34678072625639084  0.3828664683394932  1.0000
  O   O21       1.0  0.005396093279877443  0.6701524887718617  0.6729817532820731  1.0000
  O   O22       1.0  0.9946063800744724  0.32984482897305156  0.3270179596863443  1.0000
  O   O23       1.0  0.04743506616565445  0.4089660497596838  0.608869988107017  1.0000
  O   O24       1.0  0.9525641297542219  0.5910308959616231  0.39113134956467377  1.0000
  O   O25       1.0  0.1478102409148435  0.25651162771225683  0.7301335482296096  1.0000
  O   O26       1.0  0.8521899901833265  0.7434904480802371  0.2698645475904158  1.0000
  O   O27       1.0  0.4170696038713047  0.023040580998532754  0.8159335359541585  1.0000
  O   O28       1.0  0.5829322322611504  0.9769611601295549  0.1840662099768622  1.0000
  O   O29       1.0  0.7336949149240583  0.9533231826652864  0.33293803359617863  1.0000
  O   O30       1.0  0.2663057624736708  0.046675719168277334  0.6670625054170713  1.0000
  O   O31       1.0  0.8042074119095375  0.9137785973756462  0.5571282924159249  1.0000
  O   O32       1.0  0.19579376220792707  0.08621959607969384  0.4428714210471583  1.0000
  O   O33       1.0  0.20770003554874708  0.5690925251459331  0.5212607268412625  1.0000
  O   O34       1.0  0.7923004678723801  0.4309062018835873  0.47874063214593576  1.0000
