data_image0
_chemical_formula_structural       Ca2H28C16N4O20
_chemical_formula_sum              "Ca2 H28 C16 N4 O20"
_cell_length_a       5.942749817004846
_cell_length_b       9.926665794695511
_cell_length_c       10.800801706119133
_cell_angle_alpha    111.5515768652193
_cell_angle_beta     89.99986149425827
_cell_angle_gamma    90.00009414962409

_space_group_name_H-M_alt    "P 1"
_space_group_IT_number       1

loop_
  _space_group_symop_operation_xyz
  'x, y, z'

loop_
  _atom_site_type_symbol
  _atom_site_label
  _atom_site_symmetry_multiplicity
  _atom_site_fract_x
  _atom_site_fract_y
  _atom_site_fract_z
  _atom_site_occupancy
  Ca  Ca1       1.0  0.552858375528281  0.2499989063908999  0.9999994982641742  1.0000
  Ca  Ca2       1.0  0.4471403255771591  0.7499995067453329  0.9999999236066448  1.0000
  H   H1        1.0  0.17761814649796284  0.10049327023542531  0.8144927835086551  1.0000
  H   H2        1.0  0.8223843231035701  0.6004940824870392  0.8144909286390534  1.0000
  H   H3        1.0  0.8223861124668302  0.8995055871628003  0.18550939912771744  1.0000
  H   H4        1.0  0.17761825314936894  0.39950589859190444  0.18550701114848078  1.0000
  H   H5        1.0  0.1985926537449245  0.9922406960875634  0.8930858035366784  1.0000
  H   H6        1.0  0.8014088638074027  0.4922445657720689  0.8930856580099092  1.0000
  H   H7        1.0  0.8014065570497735  0.007754912068172401  0.10691526130594305  1.0000
  H   H8        1.0  0.19859202972214263  0.507757573347064  0.10691395006612238  1.0000
  H   H9        1.0  0.0132398056829146  0.1450718799374968  0.02535935276645772  1.0000
  H   H10       1.0  0.9867611983318056  0.6450727616577512  0.025359153945118007  1.0000
  H   H11       1.0  0.9867610878405557  0.8549269937001542  0.9746409836923821  1.0000
  H   H12       1.0  0.013238012476414  0.3549283025007028  0.9746391584432533  1.0000
  H   H13       1.0  0.9450069134833042  0.2366843178475335  0.17409092565453937  1.0000
  H   H14       1.0  0.054993689824776495  0.7366836225297817  0.1740923550745635  1.0000
  H   H15       1.0  0.05499398004354109  0.7633167300710539  0.825909232912338  1.0000
  H   H16       1.0  0.9450055209739647  0.26331524298728237  0.8259089044749859  1.0000
  H   H17       1.0  0.8673661921220982  0.9879331111132147  0.5969818757393104  1.0000
  H   H18       1.0  0.1326366119689695  0.48793445780855665  0.596982681656357  1.0000
  H   H19       1.0  0.13263638412813353  0.012065778765183702  0.40301661453907667  1.0000
  H   H20       1.0  0.8673642815598869  0.5120698393512059  0.4030185947071986  1.0000
  H   H21       1.0  0.3433474017510819  0.7186102318201224  0.6256858851760259  1.0000
  H   H22       1.0  0.6566511717816753  0.21860969370499825  0.6256844166893674  1.0000
  H   H23       1.0  0.6566518090503594  0.28138972489747976  0.3743148238826779  1.0000
  H   H24       1.0  0.3433463562964007  0.7813891799317787  0.3743159197714193  1.0000
  H   H25       1.0  0.32398794836953476  0.8897121860330869  0.6090727870712629  1.0000
  H   H26       1.0  0.6760111676601568  0.3897127410928007  0.6090716687906196  1.0000
  H   H27       1.0  0.6760129451539356  0.11028668760456381  0.39092754938757684  1.0000
  H   H28       1.0  0.3239880431433236  0.6102872237449547  0.39092811717834774  1.0000
  C   C1        1.0  0.6637379450043781  0.8206219282405627  0.6248969024647979  1.0000
  C   C2        1.0  0.3362575465524529  0.3206201562281095  0.6248935857887831  1.0000
  C   C3        1.0  0.3362595830723336  0.1793780203564523  0.37510472968462244  1.0000
  C   C4        1.0  0.6637366160856644  0.6793776586878553  0.37510360880583016  1.0000
  C   C5        1.0  0.7896408278049735  0.6747548189580428  0.5847238136714169  1.0000
  C   C6        1.0  0.2103679012990867  0.17475621430225635  0.5847236065924266  1.0000
  C   C7        1.0  0.21036679660928576  0.32524405468136314  0.415276522783529  1.0000
  C   C8        1.0  0.7896397231219228  0.8252470078990229  0.4152763740786017  1.0000
  C   C9        1.0  0.4166049367672429  0.7867813749617697  0.5760422178714751  1.0000
  C   C10       1.0  0.5833940415654768  0.28678188172956004  0.5760412067185217  1.0000
  C   C11       1.0  0.5833925913128652  0.2132175067951607  0.42395719549956834  1.0000
  C   C12       1.0  0.4166051692400288  0.7132180912283488  0.4239576561606954  1.0000
  C   C13       1.0  0.6570741609887634  0.9127283151592495  0.7747517633115424  1.0000
  C   C14       1.0  0.3429192436052588  0.41274287402823273  0.7747447970148758  1.0000
  C   C15       1.0  0.34291831888673124  0.08725745594954051  0.22525610213210007  1.0000
  C   C16       1.0  0.6570715536198932  0.5872712764143914  0.2252478325778996  1.0000
  N   N1        1.0  0.7724118172118892  0.8966315409111236  0.5470521353697113  1.0000
  N   N2        1.0  0.22758590703890746  0.3966286291546696  0.5470485717937026  1.0000
  N   N3        1.0  0.2275873935847912  0.10337055760680873  0.4529520881559963  1.0000
  N   N4        1.0  0.7724149864933665  0.6033713600439867  0.4529484449050616  1.0000
  O   O1        1.0  0.2198946753476534  0.09488638380719293  0.9004690912429755  1.0000
  O   O2        1.0  0.7801074018659763  0.5948849916139949  0.9004683862554332  1.0000
  O   O3        1.0  0.7801062181764848  0.9051135729108497  0.09953161781475484  1.0000
  O   O4        1.0  0.2198951743829198  0.4051117321036203  0.09952935882516567  1.0000
  O   O5        1.0  0.8880485139118264  0.1635699925366012  0.09137617751764544  1.0000
  O   O6        1.0  0.11195393412631918  0.6635704262389981  0.0913760674737461  1.0000
  O   O7        1.0  0.1119557450577062  0.8364299641823152  0.9086245315381379  1.0000
  O   O8        1.0  0.8880486421245876  0.3364295467197921  0.9086227954035311  1.0000
  O   O9        1.0  0.9013649730246129  0.6300075433286028  0.6608219575281284  1.0000
  O   O10       1.0  0.09863656866568958  0.13000340005311983  0.6608274014051221  1.0000
  O   O11       1.0  0.09863760324051189  0.3699957275922686  0.3391724846073744  1.0000
  O   O12       1.0  0.9013660075682709  0.8699954248640579  0.3391784735911899  1.0000
  O   O13       1.0  0.7062925342300943  0.04511427530040631  0.8089191544830501  1.0000
  O   O14       1.0  0.293709807807879  0.5451115951326599  0.8089131009615117  1.0000
  O   O15       1.0  0.29370835928587985  0.954888890058044  0.191087287820061  1.0000
  O   O16       1.0  0.7062944511745571  0.45488625226654733  0.19108040126830164  1.0000
  O   O17       1.0  0.5877827573870036  0.8460828926681857  0.846323945322226  1.0000
  O   O18       1.0  0.4122219294622411  0.3460832858223243  0.8463259014320388  1.0000
  O   O19       1.0  0.41222150158659343  0.15391708029104487  0.15367491755407064  1.0000
  O   O20       1.0  0.5877806467818658  0.6539188208166423  0.1536773990019854  1.0000
