data_image0
_chemical_formula_structural       Cu4H16C32S8N8O16
_chemical_formula_sum              "Cu4 H16 C32 S8 N8 O16"
_cell_length_a       8.488568659523986
_cell_length_b       10.607580122022116
_cell_length_c       12.91459328931123
_cell_angle_alpha    89.9999920052076
_cell_angle_beta     109.85942936689227
_cell_angle_gamma    89.99977056928087

_space_group_name_H-M_alt    "P 1"
_space_group_IT_number       1

loop_
  _space_group_symop_operation_xyz
  'x, y, z'

loop_
  _atom_site_type_symbol
  _atom_site_label
  _atom_site_symmetry_multiplicity
  _atom_site_fract_x
  _atom_site_fract_y
  _atom_site_fract_z
  _atom_site_occupancy
  Cu  Cu1       1.0  0.20745360723625342  0.6202541944465807  0.4919139559173118  1.0000
  Cu  Cu2       1.0  0.29254330948170093  0.12025313118434158  0.008080059128388894  1.0000
  Cu  Cu3       1.0  0.792579053955805  0.37974782791925327  0.5080952357645572  1.0000
  Cu  Cu4       1.0  0.7074267311147934  0.879750776732649  0.9919135016415339  1.0000
  H   H1        1.0  0.12851492515617483  0.24775088581164784  0.7783128017026755  1.0000
  H   H2        1.0  0.3714807718923864  0.7477372712541522  0.7216870831226528  1.0000
  H   H3        1.0  0.8714676601836614  0.752268105637377  0.22167893423569743  1.0000
  H   H4        1.0  0.6285380790428475  0.25227040746745627  0.2783267460789389  1.0000
  H   H5        1.0  0.5905002991166269  0.3041060549877344  0.032306451943242054  1.0000
  H   H6        1.0  0.9095014015833627  0.8041149179641065  0.4676983113867408  1.0000
  H   H7        1.0  0.4094985306218176  0.6958705139395889  0.9676982289233393  1.0000
  H   H8        1.0  0.09051875684595248  0.19587107814791688  0.5323026484020659  1.0000
  H   H9        1.0  0.4038520197620841  0.023439146090453288  0.25143495178910064  1.0000
  H   H10       1.0  0.096173016169729  0.5234500331881192  0.2485561113449393  1.0000
  H   H11       1.0  0.5961405924071103  0.9765638190661433  0.7485574903674321  1.0000
  H   H12       1.0  0.9038408310546657  0.4765595309862505  0.7514550439690595  1.0000
  H   H13       1.0  0.07666738597840349  0.8748666641446406  0.9530320723513412  1.0000
  H   H14       1.0  0.42331637201877464  0.37485478356822444  0.5469596857923875  1.0000
  H   H15       1.0  0.9232838503529947  0.12513912924847398  0.046961131271885385  1.0000
  H   H16       1.0  0.5767113113206294  0.6251396970297662  0.4530406432544326  1.0000
  C   C1        1.0  0.23327919591852717  0.44387367111612963  0.6607610495773812  1.0000
  C   C2        1.0  0.26672294719273987  0.9438698309037077  0.8392418002363584  1.0000
  C   C3        1.0  0.7667422279348768  0.5561245803808958  0.3392370975003516  1.0000
  C   C4        1.0  0.7332645902462859  0.05612747792849149  0.16076498711135664  1.0000
  C   C5        1.0  0.3145803650014614  0.3861431140491759  0.7709932585794091  1.0000
  C   C6        1.0  0.18541959554478638  0.8861339021300977  0.7290067872427741  1.0000
  C   C7        1.0  0.6854360163717104  0.6138645646769733  0.2290114977365292  1.0000
  C   C8        1.0  0.8145717221079423  0.1138681203062504  0.2709954299652324  1.0000
  C   C9        1.0  0.2489238868331327  0.29274303373282606  0.8177495845026075  1.0000
  C   C10       1.0  0.2510715728578887  0.7927383158449144  0.6822486906740011  1.0000
  C   C11       1.0  0.7510637151645125  0.7072627595985704  0.18224173095419618  1.0000
  C   C12       1.0  0.7489422743843904  0.20726464927489724  0.3177624646445807  1.0000
  C   C13       1.0  0.4931012338830811  0.32133066078822736  0.9535586739981525  1.0000
  C   C14       1.0  0.006890306795938302  0.8213362101896493  0.5464402636537358  1.0000
  C   C15       1.0  0.5068863487988224  0.6786534499351758  0.046437283039203664  1.0000
  C   C16       1.0  0.9931198151397637  0.17865732771601017  0.4535623107055499  1.0000
  C   C17       1.0  0.29515590870964553  0.8007881572601716  0.3521792946160147  1.0000
  C   C18       1.0  0.20486260778295667  0.3007958659361236  0.147811804020094  1.0000
  C   C19       1.0  0.7048554980552738  0.1992063233656651  0.6478158254745522  1.0000
  C   C20       1.0  0.7951287292289352  0.6992118128328499  0.8521857716184797  1.0000
  C   C21       1.0  0.2576682089092656  0.8491838059985921  0.23778863742467846  1.0000
  C   C22       1.0  0.24233750058634476  0.3491838368755679  0.2622042188593667  1.0000
  C   C23       1.0  0.7423156257884358  0.15081821645082982  0.7622041537941656  1.0000
  C   C24       1.0  0.7576638244855048  0.6508153573773326  0.7378033461231582  1.0000
  C   C25       1.0  0.31521482345851126  0.9553643829562618  0.2011330790616128  1.0000
  C   C26       1.0  0.18480660663708187  0.45536649204135665  0.2988601972214369  1.0000
  C   C27       1.0  0.6847677425528146  0.04463763949517839  0.7988632984540445  1.0000
  C   C28       1.0  0.8152072728908878  0.5446383585228459  0.701143222153327  1.0000
  C   C29       1.0  0.14276844710118294  0.8798385025640981  0.0408287584998277  1.0000
  C   C30       1.0  0.35722832530924353  0.3798258727111729  0.4591628571140731  1.0000
  C   C31       1.0  0.8571940685469103  0.1201710616981373  0.9591654330022622  1.0000
  C   C32       1.0  0.6427980958070522  0.6201667224447149  0.5408395110423713  1.0000
  S   S1        1.0  0.5104316928686431  0.42846345754332293  0.8596988024092481  1.0000
  S   S2        1.0  0.9895726047807968  0.928456989615938  0.6403026233580319  1.0000
  S   S3        1.0  0.4895897180888796  0.5715272521769634  0.14030243905072837  1.0000
  S   S4        1.0  0.010422506073474799  0.07152335020640518  0.359691929351591  1.0000
  S   S5        1.0  0.11874858226727979  0.7690347576253986  0.1285817400916542  1.0000
  S   S6        1.0  0.38124124297021916  0.2690333654563943  0.3714160752180646  1.0000
  S   S7        1.0  0.8812251966083052  0.23095783762006752  0.8714173072749531  1.0000
  S   S8        1.0  0.6187613572563817  0.7309620579062112  0.6285863562817582  1.0000
  N   N1        1.0  0.3503031848364202  0.2575180470342602  0.9210935930344704  1.0000
  N   N2        1.0  0.14969245279753807  0.7575165096453841  0.5789078254130828  1.0000
  N   N3        1.0  0.6496806498587234  0.7424849181372437  0.07889919818371285  1.0000
  N   N4        1.0  0.8503276571444899  0.2424883409078902  0.42110473827640493  1.0000
  N   N5        1.0  0.24706551802005808  0.9724381425877054  0.08903525454423539  1.0000
  N   N6        1.0  0.2529445402600247  0.4724305844025948  0.4109570101637914  1.0000
  N   N7        1.0  0.7529120378171612  0.027567650760609304  0.910959996271032  1.0000
  N   N8        1.0  0.7470781361496819  0.5275620107598087  0.5890414185923162  1.0000
  O   O1        1.0  0.31753549079589044  0.534275862746945  0.6369113376151461  1.0000
  O   O2        1.0  0.18246388093566418  0.03427608945600719  0.8630863124992203  1.0000
  O   O3        1.0  0.6824971768543263  0.4657261596189385  0.3630963068782194  1.0000
  O   O4        1.0  0.8175111730589107  0.9657259330082933  0.13690760137552616  1.0000
  O   O5        1.0  0.09586750660003669  0.4015334300938348  0.6002549877690129  1.0000
  O   O6        1.0  0.40413988577300586  0.901533831938778  0.8997467267297025  1.0000
  O   O7        1.0  0.9041539301569159  0.5984695350136916  0.3997400649284443  1.0000
  O   O8        1.0  0.5958526618094738  0.09847101866150611  0.1002611873105437  1.0000
  O   O9        1.0  0.1785874357714263  0.725322509797536  0.3595326652290112  1.0000
  O   O10       1.0  0.32141642044352636  0.22531191119710314  0.1404644412121101  1.0000
  O   O11       1.0  0.8214139215707945  0.2746842262322459  0.6404671638057665  1.0000
  O   O12       1.0  0.678572398593083  0.7746872830773341  0.859535665460477  1.0000
  O   O13       1.0  0.42623299558916017  0.8328706495711133  0.42640574956961075  1.0000
  O   O14       1.0  0.07379792410642239  0.33289012194579465  0.0735757437607205  1.0000
  O   O15       1.0  0.5737846997030475  0.16712760193254178  0.5735845901365408  1.0000
  O   O16       1.0  0.9261884027339137  0.667120384997979  0.9264207051781241  1.0000
