data_image0
_chemical_formula_structural       Zn4H36C44N12O20
_chemical_formula_sum              "Zn4 H36 C44 N12 O20"
_cell_length_a       10.215642898271023
_cell_length_b       10.244512727446823
_cell_length_c       11.703104929000576
_cell_angle_alpha    89.99998769581418
_cell_angle_beta     90.00003434419871
_cell_angle_gamma    92.71973733340887

_space_group_name_H-M_alt    "P 1"
_space_group_IT_number       1

loop_
  _space_group_symop_operation_xyz
  'x, y, z'

loop_
  _atom_site_type_symbol
  _atom_site_label
  _atom_site_symmetry_multiplicity
  _atom_site_fract_x
  _atom_site_fract_y
  _atom_site_fract_z
  _atom_site_occupancy
  Zn  Zn1       1.0  0.0348026194716624  0.7463660892661251  0.7082666813397722  1.0000
  Zn  Zn2       1.0  0.9651974069090273  0.7536337452680113  0.20826713499138091  1.0000
  Zn  Zn3       1.0  0.9651989511437479  0.253632805813389  0.29173306590730164  1.0000
  Zn  Zn4       1.0  0.03480230147793151  0.24636710670579018  0.791732612255032  1.0000
  H   H1        1.0  0.0019293095157024852  0.8518713277487533  0.5047129893264072  1.0000
  H   H2        1.0  0.9980705793571618  0.6481285504425073  0.004712625471462701  1.0000
  H   H3        1.0  0.9980713299857699  0.1481285457778156  0.4952876123944351  1.0000
  H   H4        1.0  0.0019290813116725947  0.35187132429896195  0.9952871217750215  1.0000
  H   H5        1.0  0.594549015794371  0.992550851326861  0.9947471894570868  1.0000
  H   H6        1.0  0.4054512518318348  0.5074498989969171  0.4947473958904922  1.0000
  H   H7        1.0  0.405451671425226  0.007449999432040499  0.005253412263677101  1.0000
  H   H8        1.0  0.5945484088369997  0.4925499757445522  0.5052523513559991  1.0000
  H   H9        1.0  0.7547182714270948  0.07051105739846263  0.9976952533189235  1.0000
  H   H10       1.0  0.24528312032903452  0.4294888109471628  0.49769444237953303  1.0000
  H   H11       1.0  0.24528334690672446  0.9294888149132988  0.0023053484021673  1.0000
  H   H12       1.0  0.754717566890271  0.5705120398118309  0.5023053048671287  1.0000
  H   H13       1.0  0.7106778537323636  0.9480123752775285  0.10010686462886302  1.0000
  H   H14       1.0  0.28932112074974736  0.5519874836690875  0.6001057262358813  1.0000
  H   H15       1.0  0.2893227857691087  0.05198749824904069  0.8998937370919792  1.0000
  H   H16       1.0  0.7106775610867333  0.44801239228718964  0.39989402101034704  1.0000
  H   H17       1.0  0.23479854591781196  0.5788085628362508  0.0773042787863218  1.0000
  H   H18       1.0  0.7652014397109002  0.9211922770184415  0.5773033206478644  1.0000
  H   H19       1.0  0.7652011147513066  0.42119131190512593  0.9226963229342644  1.0000
  H   H20       1.0  0.2347992475084126  0.07880857374055239  0.4226964265987974  1.0000
  H   H21       1.0  0.45866294787186496  0.7423208076390535  0.7962152480004718  1.0000
  H   H22       1.0  0.5413370902023403  0.7576780308002425  0.2962137698596408  1.0000
  H   H23       1.0  0.5413376916296074  0.2576790658875083  0.2037853537203631  1.0000
  H   H24       1.0  0.4586625227480781  0.2423208667089867  0.7037851229128267  1.0000
  H   H25       1.0  0.4351993663680816  0.5811564999032584  0.19700846159565802  1.0000
  H   H26       1.0  0.5648016312397035  0.918843335830644  0.6970091078424049  1.0000
  H   H27       1.0  0.5648003420188773  0.41884435207055043  0.8029912856507481  1.0000
  H   H28       1.0  0.4351999870941157  0.0811565364811102  0.302991493878686  1.0000
  H   H29       1.0  0.6494904974862906  0.6709675183110377  0.1173595609849656  1.0000
  H   H30       1.0  0.3505104940340047  0.8290333117378523  0.6173601117572005  1.0000
  H   H31       1.0  0.35050925861879284  0.3290343108950964  0.8826401862613623  1.0000
  H   H32       1.0  0.6494901454674675  0.1709665617887168  0.3826404899636345  1.0000
  H   H33       1.0  0.0844753731302816  0.9510040347697807  0.5838774632123176  1.0000
  H   H34       1.0  0.9155245692211978  0.5489958264426491  0.0838779291310487  1.0000
  H   H35       1.0  0.9155252663711837  0.0489958387567881  0.4161231385085244  1.0000
  H   H36       1.0  0.08447509144792782  0.45100404829872787  0.9161226725895304  1.0000
  C   C1        1.0  0.6987223348531303  0.9779968454656328  0.010675036422732402  1.0000
  C   C2        1.0  0.30127853687968553  0.5220030302320992  0.510674764379587  1.0000
  C   C3        1.0  0.30127928348068883  0.0220030268461215  0.9893255652983586  1.0000
  C   C4        1.0  0.6987221026217868  0.47799684329446285  0.489325837341248  1.0000
  C   C5        1.0  0.7487190751489053  0.8796367577963622  0.9312384532556381  1.0000
  C   C6        1.0  0.25128212840727576  0.620364004933613  0.4312385577802118  1.0000
  C   C7        1.0  0.25128263862087863  0.1203650689801563  0.06876129399120151  1.0000
  C   C8        1.0  0.7487175322618498  0.37963586980777103  0.5687620439403746  1.0000
  C   C9        1.0  0.8612917705640587  0.8802016801342559  0.8652440303946705  1.0000
  C   C10       1.0  0.1387084095782285  0.6197990979646447  0.3652440760407032  1.0000
  C   C11       1.0  0.13870695899112212  0.11979917305417588  0.1347574257996698  1.0000
  C   C12       1.0  0.8612922776413615  0.3802017527942568  0.6347565256800607  1.0000
  C   C13       1.0  0.9715465909287035  0.9768343021499393  0.8468190253144315  1.0000
  C   C14       1.0  0.0284534813300255  0.5231645254361723  0.34681732232576223  1.0000
  C   C15       1.0  0.028455863082804504  0.0231626372500955  0.15318072193306162  1.0000
  C   C16       1.0  0.9715461793388087  0.47683534930529686  0.6531824249207221  1.0000
  C   C17       1.0  0.21221430839622005  0.6641384243691274  0.8593155392888365  1.0000
  C   C18       1.0  0.7877848889086396  0.8358623562161539  0.3593150301215431  1.0000
  C   C19       1.0  0.7877853522726143  0.33586145037234155  0.1406842079576478  1.0000
  C   C20       1.0  0.21221379292784806  0.1641375197401302  0.6406847171246852  1.0000
  C   C21       1.0  0.3340736971798037  0.6611931028144084  0.9297755054130974  1.0000
  C   C22       1.0  0.6659245211724071  0.8388066866415967  0.42977407737051015  1.0000
  C   C23       1.0  0.6659259634893148  0.33880677192696845  0.07022509630748171  1.0000
  C   C24       1.0  0.3340741606637891  0.1611931893147798  0.5702248154016232  1.0000
  C   C25       1.0  0.32809593420390837  0.6164611863058056  0.042811743888208305  1.0000
  C   C26       1.0  0.6719050069565287  0.8835396597317526  0.5428115983855974  1.0000
  C   C27       1.0  0.6719047530153972  0.3835396644531883  0.9571880033584605  1.0000
  C   C28       1.0  0.3280956802627771  0.11646119102724131  0.4571881488610714  1.0000
  C   C29       1.0  0.4539557221774403  0.7079650691891216  0.8841295262564657  1.0000
  C   C30       1.0  0.546039576560098  0.7920357109336319  0.38412718967754966  1.0000
  C   C31       1.0  0.5460430550958648  0.29203676123164257  0.11587192993779641  1.0000
  C   C32       1.0  0.453957099893266  0.20796319022002754  0.6158717030941503  1.0000
  C   C33       1.0  0.5653567836354796  0.7106560631084874  0.9525225162762043  1.0000
  C   C34       1.0  0.43464149780150074  0.7893446987011146  0.45252183077973035  1.0000
  C   C35       1.0  0.43464297246988803  0.28934576609756135  0.0474780854442187  1.0000
  C   C36       1.0  0.5653571840349871  0.2106551772551626  0.547477916466498  1.0000
  C   C37       1.0  0.4408529692458175  0.618996085416704  0.10997343710601373  1.0000
  C   C38       1.0  0.5591469907344546  0.8810037701987877  0.609974087471123  1.0000
  C   C39       1.0  0.5591467391411344  0.3810047665571048  0.8900263101403922  1.0000
  C   C40       1.0  0.4408536487670177  0.1189961033277811  0.390026514249719  1.0000
  C   C41       1.0  0.5606257827789989  0.6669595055889347  0.0657287953260877  1.0000
  C   C42       1.0  0.43937424274871995  0.8330423139805703  0.5657293919098265  1.0000
  C   C43       1.0  0.43937299449373074  0.3330423248320145  0.9342709519199844  1.0000
  C   C44       1.0  0.5606264444708771  0.1669585367783313  0.4342712098109303  1.0000
  N   N1        1.0  0.687274865633299  0.7616571750525836  0.9064561360022411  1.0000
  N   N2        1.0  0.3127243635168711  0.7383435954221795  0.40645625064331636  1.0000
  N   N3        1.0  0.3127258215860067  0.23834367570641043  0.09354361124442079  1.0000
  N   N4        1.0  0.6872743183199006  0.26165628053401235  0.5935443510770071  1.0000
  N   N5        1.0  0.755436697947772  0.6923881650789242  0.829008337262927  1.0000
  N   N6        1.0  0.24456350543419358  0.8076135980239342  0.3290084032275545  1.0000
  N   N7        1.0  0.2445630104394781  0.3076126868947853  0.17099226445757412  1.0000
  N   N8        1.0  0.7554371817854035  0.19238725273496723  0.6709921984932025  1.0000
  N   N9        1.0  0.86054796321573  0.7656767440339534  0.8057546999050799  1.0000
  N   N10       1.0  0.1394511501892737  0.734323070806269  0.3057555789837068  1.0000
  N   N11       1.0  0.1394526285673265  0.23432215226037556  0.1942450473417452  1.0000
  N   N12       1.0  0.8605484627617275  0.26567582670277545  0.6942450227369505  1.0000
  O   O1        1.0  0.1037870398841179  0.6210102443553039  0.9016256542362271  1.0000
  O   O2        1.0  0.8962131648353308  0.8789905259406366  0.40162604828465476  1.0000
  O   O3        1.0  0.8962135996170633  0.3789896291713574  0.09837409301051282  1.0000
  O   O4        1.0  0.10378752238425902  0.1210103248182648  0.598374553436102  1.0000
  O   O5        1.0  0.2212605194522795  0.7128188051913398  0.7590301848730974  1.0000
  O   O6        1.0  0.778739588938997  0.787181995687675  0.259030534549801  1.0000
  O   O7        1.0  0.7787401200489015  0.2871810683353219  0.2409695623736425  1.0000
  O   O8        1.0  0.22126109828030852  0.21281885507131895  0.7409692126968609  1.0000
  O   O9        1.0  0.06858142137361511  0.9363145229606715  0.7925784859043219  1.0000
  O   O10       1.0  0.9314196407946725  0.5636852922760199  0.2925781029282604  1.0000
  O   O11       1.0  0.9314201969590528  0.0636853493514522  0.20741869792038872  1.0000
  O   O12       1.0  0.06858197753885521  0.43631458003582674  0.7074216443187356  1.0000
  O   O13       1.0  0.9587814754252693  0.09301502162784199  0.8836383934443789  1.0000
  O   O14       1.0  0.04121983928175871  0.4069848711799652  0.38363833426854654  1.0000
  O   O15       1.0  0.0412200951895585  0.9069838734518498  0.116359644854505  1.0000
  O   O16       1.0  0.9587808479378382  0.5930159795789365  0.6163622674522102  1.0000
  O   O17       1.0  0.07074837884686501  0.856602981273042  0.5652003736669471  1.0000
  O   O18       1.0  0.9292506197733632  0.6433978623922909  0.065200829112527  1.0000
  O   O19       1.0  0.9292513772582114  0.1433988479330992  0.43479937357938075  1.0000
  O   O20       1.0  0.07074908861388003  0.35660298958142517  0.9347997726079741  1.0000
