data_image0
_chemical_formula_structural       V6Cu2H16C20N4O17
_chemical_formula_sum              "V6 Cu2 H16 C20 N4 O17"
_cell_length_a       8.010747331718875
_cell_length_b       9.624927470138289
_cell_length_c       10.546787484831805
_cell_angle_alpha    98.89281014037068
_cell_angle_beta     102.66739139088831
_cell_angle_gamma    106.2742629335127

_space_group_name_H-M_alt    "P 1"
_space_group_IT_number       1

loop_
  _space_group_symop_operation_xyz
  'x, y, z'

loop_
  _atom_site_type_symbol
  _atom_site_label
  _atom_site_symmetry_multiplicity
  _atom_site_fract_x
  _atom_site_fract_y
  _atom_site_fract_z
  _atom_site_occupancy
  V   V1        1.0  0.23010448047696028  0.010359709873363  0.5619408108749369  1.0000
  V   V2        1.0  0.7698938051535791  0.9896464147562443  0.43806119263696536  1.0000
  V   V3        1.0  0.7600511396601204  0.0569098273808137  0.8399366951681344  1.0000
  V   V4        1.0  0.23995952495351963  0.9430984108265292  0.1600686291374132  1.0000
  V   V5        1.0  0.2243613420197832  0.09039977968337351  0.8802361677357099  1.0000
  V   V6        1.0  0.7756436802368468  0.9096040464818245  0.11976664177286976  1.0000
  Cu  Cu1       1.0  0.47364197216646875  0.7586832199214725  0.5589062231669075  1.0000
  Cu  Cu2       1.0  0.5263672415056817  0.24131833253836987  0.4410950728146474  1.0000
  H   H1        1.0  0.4296233801630223  0.7983838906660452  0.8400858164321435  1.0000
  H   H2        1.0  0.5703767336709686  0.20161104992033776  0.15991112747303046  1.0000
  H   H3        1.0  0.02797216424289668  0.2952540184564114  0.5951344325823911  1.0000
  H   H4        1.0  0.9720191210472393  0.7047443575622339  0.40486056642713913  1.0000
  H   H5        1.0  0.04030910741223443  0.37950121687204325  0.831791603414466  1.0000
  H   H6        1.0  0.959693731863524  0.6205003971398996  0.16820958074530518  1.0000
  H   H7        1.0  0.46562531506258137  0.6462042705286349  0.2736539337071733  1.0000
  H   H8        1.0  0.5343666056465537  0.35380191594100535  0.7263432188267274  1.0000
  H   H9        1.0  0.2500797705900624  0.6380986498721981  0.9609201175737853  1.0000
  H   H10       1.0  0.7499301656464823  0.3618984287054587  0.03908351458879615  1.0000
  H   H11       1.0  0.29108536730166884  0.40994793148939834  0.09824512441904427  1.0000
  H   H12       1.0  0.708901455406348  0.5900583042680053  0.901751180392438  1.0000
  H   H13       1.0  0.0671678229877557  0.20728023148003416  0.15841576887054742  1.0000
  H   H14       1.0  0.9328281961788037  0.792720332105567  0.8415803315177541  1.0000
  H   H15       1.0  0.03400215366340121  0.24339165130128043  0.3891480493964962  1.0000
  H   H16       1.0  0.9660025972989246  0.756602127558203  0.6108523529313458  1.0000
  C   C1        1.0  0.2303542559530811  0.4642840725794882  0.45275770166243495  1.0000
  C   C2        1.0  0.7696386698570236  0.5357120543200864  0.5472363077901079  1.0000
  C   C3        1.0  0.3395969638906422  0.6862278546207179  0.7902567587408029  1.0000
  C   C4        1.0  0.6603942284413975  0.3137671722192366  0.2097387016501386  1.0000
  C   C5        1.0  0.11745022644314676  0.4054572684052361  0.651717485573279  1.0000
  C   C6        1.0  0.8825599866449849  0.5945342243117793  0.3482835108206288  1.0000
  C   C7        1.0  0.22358986027849437  0.5012612655556908  0.5917961085119359  1.0000
  C   C8        1.0  0.7764077064499376  0.4987336997321563  0.4081994637007895  1.0000
  C   C9        1.0  0.1248562205086117  0.4533588060725434  0.7852190926187674  1.0000
  C   C10       1.0  0.8751468918287415  0.5466372219635858  0.21478135143482285  1.0000
  C   C11       1.0  0.3686446030936281  0.5537945984255116  0.29387982579400074  1.0000
  C   C12       1.0  0.6313454076962303  0.4462037899150673  0.7061149612849251  1.0000
  C   C13       1.0  0.2380790774691661  0.5954730525606634  0.8561253424093564  1.0000
  C   C14       1.0  0.7619220340135229  0.40452746156442043  0.1438744491950885  1.0000
  C   C15       1.0  0.2695387092052783  0.42300212911297314  0.19730126314102137  1.0000
  C   C16       1.0  0.7304614900068174  0.57699616042175  0.8026990107077125  1.0000
  C   C17       1.0  0.14736043595791412  0.3106852348084885  0.23162711625852242  1.0000
  C   C18       1.0  0.8526321257275027  0.6893131289457983  0.7683671468503661  1.0000
  C   C19       1.0  0.12765670126550788  0.3306102719043337  0.3606396642679854  1.0000
  C   C20       1.0  0.8723354033371178  0.6693869795259814  0.6393553138786671  1.0000
  N   N1        1.0  0.3483619673234911  0.57256766441472  0.41743830197312787  1.0000
  N   N2        1.0  0.6516340461580794  0.42743289899811987  0.5825606419088984  1.0000
  N   N3        1.0  0.33195274224937776  0.6400691103797983  0.6618803921198549  1.0000
  N   N4        1.0  0.6680481908971031  0.3599247056182549  0.3381165309224414  1.0000
  O   O1        1.0  0.26396070197162647  0.8650675180113225  0.4819976887592077  1.0000
  O   O2        1.0  0.7360413901047806  0.1349385691341851  0.5180134810256972  1.0000
  O   O3        1.0  0.26183092720080475  0.0008459097565349998  0.7351263802917387  1.0000
  O   O4        1.0  0.7381716371183626  0.9991612901736389  0.2648764918054524  1.0000
  O   O5        1.0  0.6358496821715959  0.829554342564073  0.45609110589564494  1.0000
  O   O6        1.0  0.36415435001632795  0.17044391029277509  0.5439050645886923  1.0000
  O   O7        1.0  0.6178220986057639  0.9194655597669905  0.7113488653885724  1.0000
  O   O8        1.0  0.3821972978036356  0.08053589371423438  0.2886607608565157  1.0000
  O   O9        1.0  2.6303941069997086e-07  4.634809357599997e-06  0.5000027735747494  1.0000
  O   O10       1.0  0.26952452119151366  0.9926594456280782  0.0050557352563770745  1.0000
  O   O11       1.0  0.730468837066425  0.007337792846847402  0.9949498809645476  1.0000
  O   O12       1.0  0.7215520924509136  0.21327747600107475  0.8367328104407293  1.0000
  O   O13       1.0  0.27843156099753236  0.7867209744098956  0.1632533343352236  1.0000
  O   O14       1.0  0.3518066817831239  0.2625401348005525  0.9273711868647821  1.0000
  O   O15       1.0  0.6482067100395668  0.7374591435508223  0.07263523040844429  1.0000
  O   O16       1.0  0.9954966813131704  0.0803556527862455  0.8446390732720559  1.0000
  O   O17       1.0  0.0045210633339820986  0.9196636828076379  0.1553794289731485  1.0000
