data_image0
_chemical_formula_structural       Ag2H28C34N6O8
_chemical_formula_sum              "Ag2 H28 C34 N6 O8"
_cell_length_a       7.589213213086305
_cell_length_b       9.035272394655257
_cell_length_c       11.764173755398252
_cell_angle_alpha    72.21102570474763
_cell_angle_beta     85.48214800098381
_cell_angle_gamma    89.80256433546035

_space_group_name_H-M_alt    "P 1"
_space_group_IT_number       1

loop_
  _space_group_symop_operation_xyz
  'x, y, z'

loop_
  _atom_site_type_symbol
  _atom_site_label
  _atom_site_symmetry_multiplicity
  _atom_site_fract_x
  _atom_site_fract_y
  _atom_site_fract_z
  _atom_site_occupancy
  Ag  Ag1       1.0  0.39662655908911404  0.7729557253759866  0.28199678544155643  1.0000
  Ag  Ag2       1.0  0.6033745284819291  0.22705080901231875  0.7180057053344342  1.0000
  H   H1        1.0  0.5882113082034408  0.09482241065773422  0.04265238429725569  1.0000
  H   H2        1.0  0.41178951283425397  0.905182873243021  0.9573427720091343  1.0000
  H   H3        1.0  0.9976321486942866  0.8828195552196477  0.2691290144314422  1.0000
  H   H4        1.0  0.0023685008248363923  0.1171763995329584  0.7308658454068249  1.0000
  H   H5        1.0  0.26369640806759526  0.3309451263004562  0.5869430412309027  1.0000
  H   H6        1.0  0.7363085623562499  0.6690556326268579  0.4130597374764802  1.0000
  H   H7        1.0  0.8909980273590892  0.3918648062974556  0.8690539144991829  1.0000
  H   H8        1.0  0.10900805902791431  0.6081382149171548  0.13094144612353623  1.0000
  H   H9        1.0  0.20707918636668413  0.3860165873775756  0.918717227707418  1.0000
  H   H10       1.0  0.7929204118907691  0.6139840799460644  0.08128336889414806  1.0000
  H   H11       1.0  0.308269472589707  0.1730654820130866  0.09025841500590558  1.0000
  H   H12       1.0  0.6917342800067345  0.8269434084613112  0.9097433372675635  1.0000
  H   H13       1.0  0.1231171699503335  0.41453709037968883  0.7186288177032266  1.0000
  H   H14       1.0  0.8768834580016291  0.5854565394201361  0.2813666025754883  1.0000
  H   H15       1.0  0.010527580267847695  0.6393610011693412  0.7846183629147345  1.0000
  H   H16       1.0  0.9894718493864121  0.3606245441822297  0.21538503047312924  1.0000
  H   H17       1.0  0.043383871623234406  0.9085133059817141  0.6370925114340122  1.0000
  H   H18       1.0  0.9565945455988755  0.09147435437218122  0.36291513031649447  1.0000
  H   H19       1.0  0.1881845686004198  0.9383807455757704  0.4334159651389341  1.0000
  H   H20       1.0  0.8118059872532867  0.0616210437107725  0.5665908969961534  1.0000
  H   H21       1.0  0.3536224107312691  0.15404110812742294  0.5104111989395433  1.0000
  H   H22       1.0  0.6463838206543073  0.8459561691583701  0.4895914853208437  1.0000
  H   H23       1.0  0.4837981643598185  0.08112556065993463  0.3328386844753055  1.0000
  H   H24       1.0  0.5162039666046851  0.9188693058570438  0.6671614430120412  1.0000
  H   H25       1.0  0.5451110071533166  0.2931235802041456  0.13614028939957726  1.0000
  H   H26       1.0  0.4548845867165668  0.7068758681641187  0.8638600084386636  1.0000
  H   H27       1.0  0.4624861416713273  0.5644588733921336  0.12636761168101165  1.0000
  H   H28       1.0  0.5375108983778175  0.43554179213523986  0.8736357012125563  1.0000
  C   C1        1.0  0.8714632283263981  0.0659942000009792  0.11337741136825488  1.0000
  C   C2        1.0  0.1285404106034775  0.9340146513573444  0.8866209565986267  1.0000
  C   C3        1.0  0.8177029216580041  0.18578158347447274  0.013325240918405272  1.0000
  C   C4        1.0  0.18229403707532302  0.8142225303659957  0.9866738470078997  1.0000
  C   C5        1.0  0.9376296849685062  0.30158525156323895  0.9445344744430171  1.0000
  C   C6        1.0  0.06237383636070601  0.6984200830288716  0.05546219595460395  1.0000
  C   C7        1.0  0.1128988994049394  0.29640805589095715  0.9729928107435554  1.0000
  C   C8        1.0  0.8871047032400912  0.7035938303880586  0.02700808462133603  1.0000
  C   C9        1.0  0.17165923820698484  0.17816429239568524  0.06832131002191484  1.0000
  C   C10       1.0  0.8283455861995536  0.8218329399864005  0.9316789250395627  1.0000
  C   C11       1.0  0.051657007640088216  0.06349947274618019  0.138351085756014  1.0000
  C   C12       1.0  0.9483438555132082  0.9365011905860785  0.8616477296612214  1.0000
  C   C13       1.0  0.7446336356475456  0.9480888240467849  0.19058448039706374  1.0000
  C   C14       1.0  0.2553646026993022  0.05191992592884281  0.8094108593873557  1.0000
  C   C15       1.0  0.2160002565618058  0.5601653658831437  0.5414469957089949  1.0000
  C   C16       1.0  0.7839993024954311  0.4398341291850869  0.4585530350361536  1.0000
  C   C17       1.0  0.1346547265828448  0.5333497392660363  0.6587346033593062  1.0000
  C   C18       1.0  0.8653434039281863  0.4666473859457059  0.3412635386273875  1.0000
  C   C19       1.0  0.0723177390094705  0.6573650323660162  0.6943920554413053  1.0000
  C   C20       1.0  0.9276778214909385  0.3426216580990271  0.30561386304937327  1.0000
  C   C21       1.0  0.0901016508949652  0.8074864353232133  0.6129060973622699  1.0000
  C   C22       1.0  0.9098940027235758  0.19250723977917522  0.3870989858836963  1.0000
  C   C23       1.0  0.17069308845996284  0.8241888365696824  0.4999788635505381  1.0000
  C   C24       1.0  0.8293053438505282  0.17580723373486512  0.5000288654994945  1.0000
  C   C25       1.0  0.34583862954563227  0.39892581999173166  0.4111846031850276  1.0000
  C   C26       1.0  0.6541636366525907  0.6010714105940879  0.5888183481684447  1.0000
  C   C27       1.0  0.3826338828612847  0.24123399127500994  0.42346677734148824  1.0000
  C   C28       1.0  0.617368248103219  0.7587608752419686  0.5765333501458513  1.0000
  C   C29       1.0  0.45476543029486294  0.2018511435292112  0.3254183331774669  1.0000
  C   C30       1.0  0.5452367438039616  0.7981483728933156  0.674580673428963  1.0000
  C   C31       1.0  0.4877708976275913  0.3186312301546438  0.21552922560803717  1.0000
  C   C32       1.0  0.5122273896843268  0.681370584078728  0.7844711798043348  1.0000
  C   C33       1.0  0.44423419167073064  0.46927917263626284  0.21011261342637505  1.0000
  C   C34       1.0  0.555765356602926  0.5307191599555807  0.789887697539001  1.0000
  N   N1        1.0  0.2772771573433417  0.42966802990140723  0.5140163258608581  1.0000
  N   N2        1.0  0.7227263492681858  0.5703326645641696  0.4859823114943182  1.0000
  N   N3        1.0  0.23342737634661156  0.7045813445008307  0.4631440643097589  1.0000
  N   N4        1.0  0.7665682038243203  0.2954227342149452  0.5368534204942748  1.0000
  N   N5        1.0  0.3756813346215041  0.5108891056714243  0.3053811977598355  1.0000
  N   N6        1.0  0.6243261440268527  0.48910932032036675  0.6946185790193479  1.0000
  O   O1        1.0  0.7970966197609641  0.8453773913359869  0.282746508968401  1.0000
  O   O2        1.0  0.20290016847251743  0.15462666383037776  0.7172475024980185  1.0000
  O   O3        1.0  0.5825505265675518  0.9542144019689688  0.16370888498779818  1.0000
  O   O4        1.0  0.4174489795905103  0.04578855119137161  0.8362877668667251  1.0000
  O   O5        1.0  0.648816577411793  0.1900636153008222  0.9827010260304048  1.0000
  O   O6        1.0  0.35118570058874365  0.809944048235437  0.017296865111091998  1.0000
  O   O7        1.0  0.1085891354827879  0.9498582555876354  0.2319343260699539  1.0000
  O   O8        1.0  0.8914129317989608  0.05013890654506531  0.7680627027469952  1.0000
