data_image0
_chemical_formula_structural       Cd2H44C44N8O16
_chemical_formula_sum              "Cd2 H44 C44 N8 O16"
_cell_length_a       8.800818142812432
_cell_length_b       11.723898727791795
_cell_length_c       13.063116930103153
_cell_angle_alpha    64.81864426098262
_cell_angle_beta     76.44888625108914
_cell_angle_gamma    81.77275758089367

_space_group_name_H-M_alt    "P 1"
_space_group_IT_number       1

loop_
  _space_group_symop_operation_xyz
  'x, y, z'

loop_
  _atom_site_type_symbol
  _atom_site_label
  _atom_site_symmetry_multiplicity
  _atom_site_fract_x
  _atom_site_fract_y
  _atom_site_fract_z
  _atom_site_occupancy
  Cd  Cd1       1.0  0.8304678257699224  0.5716856445967835  0.8993810601123684  1.0000
  Cd  Cd2       1.0  0.1695277345251966  0.42831689510661153  0.10062018156755669  1.0000
  H   H1        1.0  0.802395446345159  0.4107454024455349  0.3188453821605606  1.0000
  H   H2        1.0  0.19760164817457593  0.5892505181821477  0.6811588584433679  1.0000
  H   H3        1.0  0.6936504596721421  0.2995169443335541  0.3094921643519726  1.0000
  H   H4        1.0  0.3063502767057783  0.7004761453875192  0.6905110147597636  1.0000
  H   H5        1.0  0.26485183974105553  0.5015890038065224  0.31627328429685514  1.0000
  H   H6        1.0  0.7351437624253094  0.4984126004668639  0.68372753589734  1.0000
  H   H7        1.0  0.0016752236008344024  0.5801084889440062  0.3828979521918682  1.0000
  H   H8        1.0  0.9983213351311307  0.41989689257267326  0.6171005300043433  1.0000
  H   H9        1.0  0.9732233575887365  0.7430439856993232  0.46133840397303766  1.0000
  H   H10       1.0  0.026776810135963603  0.2569594921416112  0.5386602053909472  1.0000
  H   H11       1.0  0.4780244719465045  0.7509919279017936  0.39946098566009874  1.0000
  H   H12       1.0  0.5219776311710476  0.24899828446360325  0.6005468783185677  1.0000
  H   H13       1.0  0.1585893535651834  0.06133124348245639  0.516324645932329  1.0000
  H   H14       1.0  0.8414099413364015  0.9386665862551666  0.48367545845817267  1.0000
  H   H15       1.0  0.3294442866374184  0.0015935516195426985  0.5774004694273458  1.0000
  H   H16       1.0  0.6705584047429485  0.9984061571581011  0.42259761220268605  1.0000
  H   H17       1.0  0.6654856380791401  0.7225918768054811  0.047339900827296146  1.0000
  H   H18       1.0  0.3345191730983005  0.2774125063763933  0.9526591449176822  1.0000
  H   H19       1.0  0.6551795606215621  0.9300008995848187  0.05783949142281127  1.0000
  H   H20       1.0  0.34482270573090557  0.07000637462436292  0.9421542903507358  1.0000
  H   H21       1.0  0.0205623727191835  0.0424856428886713  0.7519033543130578  1.0000
  H   H22       1.0  0.9794400462644081  0.9575188004330428  0.24809146452599848  1.0000
  H   H23       1.0  0.017516988674032098  0.8299714631268813  0.7553459666959982  1.0000
  H   H24       1.0  0.9824806941085314  0.1700339539130482  0.24464849155929613  1.0000
  H   H25       1.0  0.597051474944692  0.3458027323472592  0.9884612121927319  1.0000
  H   H26       1.0  0.4029464203518173  0.6541989019769119  0.011535395990804945  1.0000
  H   H27       1.0  0.5906916738678802  0.13620580455192774  0.987857516164354  1.0000
  H   H28       1.0  0.4093108468697863  0.8637967515114727  0.012137994051698547  1.0000
  H   H29       1.0  0.08210433889539101  0.164379269046357  0.8278915724895058  1.0000
  H   H30       1.0  0.9178993450737497  0.8356241841779876  0.1721072398394837  1.0000
  H   H31       1.0  0.0690297995760005  0.3726701779092352  0.8326609155457448  1.0000
  H   H32       1.0  0.9309715313801661  0.6273341970926367  0.16734099593116974  1.0000
  H   H33       1.0  0.4674690069588436  0.3930879658484584  0.36602315787634865  1.0000
  H   H34       1.0  0.5325271039779196  0.6069042021333787  0.6339811192028648  1.0000
  H   H35       1.0  0.3872815959848169  0.9556063545503405  0.38012135612235204  1.0000
  H   H36       1.0  0.6127189188733626  0.044390526085649605  0.6198789058869068  1.0000
  H   H37       1.0  0.5595881314901519  0.7193233205214469  0.789177527864183  1.0000
  H   H38       1.0  0.4404099402971441  0.2806745638835437  0.2108181615506552  1.0000
  H   H39       1.0  0.505759206442491  0.5779927723374456  0.8697432963154413  1.0000
  H   H40       1.0  0.49423771427683527  0.42200510114172823  0.1302541155176086  1.0000
  H   H41       1.0  0.8146185847867147  0.6718313165586595  0.6562908661921654  1.0000
  H   H42       1.0  0.18538071912067272  0.3281665049798193  0.34371000537257157  1.0000
  H   H43       1.0  0.9778408844270601  0.7157986173231238  0.6486270903919688  1.0000
  H   H44       1.0  0.022160808516460406  0.28419824964124263  0.3513737507217769  1.0000
  C   C1        1.0  0.7514161005711202  0.46064280874801966  0.15235821235445704  1.0000
  C   C2        1.0  0.24858089219453922  0.539354999137977  0.8476453368724677  1.0000
  C   C3        1.0  0.7059984397504735  0.4006091621818938  0.28358719735612686  1.0000
  C   C4        1.0  0.2939998238488144  0.5993867529733166  0.7164168551780606  1.0000
  C   C5        1.0  0.5473880390361926  0.5734759060401017  0.31432952957388943  1.0000
  C   C6        1.0  0.452606759195696  0.4265190901025377  0.6856746656837983  1.0000
  C   C7        1.0  0.3877056784891622  0.6209786483989248  0.3546322566756216  1.0000
  C   C8        1.0  0.6122950070117242  0.3790153849513088  0.6453705767476096  1.0000
  C   C9        1.0  0.2536407211196163  0.5728114770631406  0.35055998417333717  1.0000
  C   C10       1.0  0.7463550845549064  0.42718635269362437  0.6494422187748582  1.0000
  C   C11       1.0  0.10503823554870453  0.6177085408519858  0.3873871017862455  1.0000
  C   C12       1.0  0.8949597376422247  0.38229212524559125  0.6126121536084953  1.0000
  C   C13       1.0  0.08937791401243092  0.7096766713331135  0.4304251508407474  1.0000
  C   C14       1.0  0.9106236443115564  0.2903230101204244  0.5695761875559668  1.0000
  C   C15       1.0  0.22292421842971072  0.7595150171849878  0.4344081129630837  1.0000
  C   C16       1.0  0.7770774506541471  0.24048276881108427  0.5655946839848696  1.0000
  C   C17       1.0  0.3722361049638964  0.7161809929569927  0.39490033950686865  1.0000
  C   C18       1.0  0.6277646404198194  0.283812088564936  0.605103606779096  1.0000
  C   C19       1.0  0.19843704096748388  0.8510414439527166  0.48923007978159205  1.0000
  C   C20       1.0  0.8015670770353511  0.1489544356409453  0.5107737995781108  1.0000
  C   C21       1.0  0.283791401038215  0.0361640431066519  0.49700497373750363  1.0000
  C   C22       1.0  0.7162102919053055  0.9638328238577143  0.5029958673762422  1.0000
  C   C23       1.0  0.36870081775996516  0.1541231264320047  0.40834654274897286  1.0000
  C   C24       1.0  0.6312949010143569  0.8458756797505131  0.5916522458137835  1.0000
  C   C25       1.0  0.7405636050205686  0.797058589964124  0.9826779483468541  1.0000
  C   C26       1.0  0.2594388499861894  0.2029458205609985  0.017319939189135852  1.0000
  C   C27       1.0  0.7350239881427711  0.9138492595419978  0.98720024196772  1.0000
  C   C28       1.0  0.2649807361344614  0.0861561000656224  0.012795389391818885  1.0000
  C   C29       1.0  0.8370497842325123  0.0059963524370232005  0.9046756541805651  1.0000
  C   C30       1.0  0.162953720088133  0.9940099562722293  0.09531981956021694  1.0000
  C   C31       1.0  0.9406143945822334  0.9744531322085167  0.8200400741272704  1.0000
  C   C32       1.0  0.0593879406588584  0.025553181973215502  0.1799555876832528  1.0000
  C   C33       1.0  0.939136229181479  0.8553937553400104  0.8213761566850691  1.0000
  C   C34       1.0  0.0608637498889379  0.1446125861849765  0.17861834691647263  1.0000
  C   C35       1.0  0.7024823216259862  0.3029442227492112  0.9529615441816193  1.0000
  C   C36       1.0  0.297517896975748  0.6970583114625696  0.04703741087086391  1.0000
  C   C37       1.0  0.7000907186691805  0.1844547248832812  0.9534760328592071  1.0000
  C   C38       1.0  0.2999118979744821  0.8155468465552359  0.04652365891652716  1.0000
  C   C39       1.0  0.8363645097613529  0.1304732417702397  0.9076038515697464  1.0000
  C   C40       1.0  0.16363922508482176  0.8695292678249519  0.09239530644774133  1.0000
  C   C41       1.0  0.9712192865155559  0.19995802543233054  0.864176067218402  1.0000
  C   C42       1.0  0.028782101165724314  0.8000445033069639  0.1358226997643399  1.0000
  C   C43       1.0  0.9649149509596455  0.31763315051052393  0.8671864381261758  1.0000
  C   C44       1.0  0.035085285653678994  0.6823693673029539  0.13281405127477794  1.0000
  N   N1        1.0  0.841008874654321  0.7679161276228115  0.9013758065595993  1.0000
  N   N2        1.0  0.1589947314203997  0.23208829382813428  0.0986203585581862  1.0000
  N   N3        1.0  0.8329622951135321  0.3688056890649563  0.9102271011813698  1.0000
  N   N4        1.0  0.16703681429148534  0.6311958987909989  0.08977315480359481  1.0000
  N   N5        1.0  0.5600671380767608  0.4515007561183282  0.3284897783040535  1.0000
  N   N6        1.0  0.4399289399945517  0.5484923390943736  0.6715156874351251  1.0000
  N   N7        1.0  0.3036430034326116  0.9391832713051543  0.45297002497229505  1.0000
  N   N8        1.0  0.696359858590462  0.06081359018673279  0.5470306280717098  1.0000
  O   O1        1.0  0.8941636917777559  0.45566662173361994  0.10528821512594519  1.0000
  O   O2        1.0  0.105833157362575  0.5443340088406928  0.894715064209713  1.0000
  O   O3        1.0  0.6453444237789226  0.511472828404905  0.09265341587705217  1.0000
  O   O4        1.0  0.3546488343802636  0.48852968944686387  0.9073512706392961  1.0000
  O   O5        1.0  0.6610040860420698  0.6432181663061911  0.26916430607953146  1.0000
  O   O6        1.0  0.338994413930827  0.35677304710153374  0.7308399405486982  1.0000
  O   O7        1.0  0.08246231300995531  0.8447559165317386  0.5689871066352339  1.0000
  O   O8        1.0  0.9175429740724255  0.15523995758944412  0.43101658465472786  1.0000
  O   O9        1.0  0.46285153757550307  0.14505283629932114  0.3218326357683381  1.0000
  O   O10       1.0  0.5371441213159898  0.8549469217114948  0.6781650399316844  1.0000
  O   O11       1.0  0.33443912349415683  0.2531421950123871  0.42805912909389576  1.0000
  O   O12       1.0  0.665557833248336  0.7468556456701948  0.5719413514360882  1.0000
  O   O13       1.0  0.5813763438325664  0.6406177262638053  0.8570619002869081  1.0000
  O   O14       1.0  0.4186264519922531  0.359378298187842  0.14292912518054374  1.0000
  O   O15       1.0  0.9058244850598172  0.6449356040801961  0.6950258508712962  1.0000
  O   O16       1.0  0.09417590418462403  0.3550640828458214  0.3049756755951663  1.0000
