data_image0
_chemical_formula_structural       Ni2P2H20C12N2O12
_chemical_formula_sum              "Ni2 P2 H20 C12 N2 O12"
_cell_length_a       6.553349812279616
_cell_length_b       7.388275319507955
_cell_length_c       9.980973479498823
_cell_angle_alpha    87.04114480611655
_cell_angle_beta     76.5679637629344
_cell_angle_gamma    70.15119741486467

_space_group_name_H-M_alt    "P 1"
_space_group_IT_number       1

loop_
  _space_group_symop_operation_xyz
  'x, y, z'

loop_
  _atom_site_type_symbol
  _atom_site_label
  _atom_site_symmetry_multiplicity
  _atom_site_fract_x
  _atom_site_fract_y
  _atom_site_fract_z
  _atom_site_occupancy
  Ni  Ni1       1.0  0.2644792041997022  0.17625783373026851  0.035964974952428015  1.0000
  Ni  Ni2       1.0  0.7355196160299114  0.8237418648513001  0.9640329612508226  1.0000
  P   P1        1.0  0.7284503768933702  0.2147614607925377  0.10909578418356596  1.0000
  P   P2        1.0  0.2715515753637732  0.7852382516446356  0.8909016980730444  1.0000
  H   H1        1.0  0.5481663949432586  0.27110739110747784  0.48783940673459386  1.0000
  H   H2        1.0  0.45183391856248517  0.7288922580389255  0.5121633247552924  1.0000
  H   H3        1.0  0.673569440029304  0.40822909854693284  0.6625552270629955  1.0000
  H   H4        1.0  0.32643209736993833  0.5917633007752342  0.3374515509163771  1.0000
  H   H5        1.0  0.08257730433152227  0.3566970285423849  0.6284218763688828  1.0000
  H   H6        1.0  0.9174242912578306  0.6432954158701634  0.3715808838025297  1.0000
  H   H7        1.0  0.3414946740003727  0.1861289198593354  0.4049953187605056  1.0000
  H   H8        1.0  0.6585082455560066  0.8138722165216593  0.5950039850851284  1.0000
  H   H9        1.0  0.6674317373738885  0.016508996904399  0.29896276418557494  1.0000
  H   H10       1.0  0.33256850602483456  0.9834950342164108  0.701034837046109  1.0000
  H   H11       1.0  0.9484360426945949  0.9319830552315266  0.20339988378785986  1.0000
  H   H12       1.0  0.051565880467492754  0.06801663466045943  0.7965996073727342  1.0000
  H   H13       1.0  0.11714801880442832  0.5556592420577006  0.07850867312039614  1.0000
  H   H14       1.0  0.8828523674389496  0.44434046345167394  0.9214890361095345  1.0000
  H   H15       1.0  0.31688104743876266  0.44076307159394196  0.14951190888697852  1.0000
  H   H16       1.0  0.6831203351989071  0.5592380804044482  0.850485613027985  1.0000
  H   H17       1.0  0.37878216930973696  0.39425778277829693  0.8349640390147642  1.0000
  H   H18       1.0  0.6212159384557477  0.6057476809759238  0.16503382884859266  1.0000
  H   H19       1.0  0.506588058500604  0.17022157096275956  0.8023973530266346  1.0000
  H   H20       1.0  0.4934090528705893  0.8297824463024457  0.19760070215168213  1.0000
  C   C1        1.0  0.8725069514366052  0.15292883981088318  0.35607468812074233  1.0000
  C   C2        1.0  0.12749124098343143  0.8470722532415209  0.6439273055488288  1.0000
  C   C3        1.0  0.7234634774495916  0.2539806290734035  0.4735592035876835  1.0000
  C   C4        1.0  0.2765399389886196  0.7460190113834175  0.5264450828595457  1.0000
  C   C5        1.0  0.7935957397819275  0.3285914846265357  0.5724202160747327  1.0000
  C   C6        1.0  0.2064025954827711  0.6714052828144333  0.4275818855930781  1.0000
  C   C7        1.0  0.020175003111738452  0.30230918222413555  0.5526216215057006  1.0000
  C   C8        1.0  0.9798301367324315  0.697686150821639  0.447381541514467  1.0000
  C   C9        1.0  0.16450866558939473  0.20818536047391945  0.433860495865389  1.0000
  C   C10       1.0  0.8354905232249263  0.7918171790675006  0.5661413104892149  1.0000
  C   C11       1.0  0.8111178126985619  0.060314055192748114  0.2512627519190502  1.0000
  C   C12       1.0  0.18887981010199428  0.9396884774208659  0.7487392814088666  1.0000
  N   N1        1.0  0.09193607472110434  0.135712648078858  0.33861992982195244  1.0000
  N   N2        1.0  0.9080658193459283  0.8642870192679412  0.6613815702426252  1.0000
  O   O1        1.0  0.9391126645416674  0.23621015547580276  0.013339054338487727  1.0000
  O   O2        1.0  0.06089048514453295  0.7637867229293323  0.9866543307934422  1.0000
  O   O3        1.0  0.6125920085752339  0.1079294831061617  0.038340882897244896  1.0000
  O   O4        1.0  0.3874071802390873  0.8920730564352513  0.9616609234573588  1.0000
  O   O5        1.0  0.560349882637247  0.4079119668194977  0.17314878173250756  1.0000
  O   O6        1.0  0.43965423434818257  0.5920863355294587  0.8268464249884461  1.0000
  O   O7        1.0  0.23925563009011336  0.042232330197506905  0.22803559598821727  1.0000
  O   O8        1.0  0.7607430181997897  0.9577716714503168  0.7719642411207704  1.0000
  O   O9        1.0  0.16954178467008763  0.44027172297767697  0.1347295607483758  1.0000
  O   O10       1.0  0.8304601530395315  0.5597279781868992  0.8652689259602301  1.0000
  O   O11       1.0  0.3558041615807068  0.26615493763104336  0.8327475526915439  1.0000
  O   O12       1.0  0.6441939461847707  0.7338505261231772  0.16725031517181324  1.0000
