data_image0
_chemical_formula_structural       Zr6H19C50Cl10O32F
_chemical_formula_sum              "Zr6 H19 C50 Cl10 O32 F1"
_cell_length_a       14.799593545664024
_cell_length_b       14.7833917567453
_cell_length_c       14.848600182983324
_cell_angle_alpha    60.06639365907887
_cell_angle_beta     59.853255328958475
_cell_angle_gamma    60.239922232633035

_space_group_name_H-M_alt    "P 1"
_space_group_IT_number       1

loop_
  _space_group_symop_operation_xyz
  'x, y, z'

loop_
  _atom_site_type_symbol
  _atom_site_label
  _atom_site_symmetry_multiplicity
  _atom_site_fract_x
  _atom_site_fract_y
  _atom_site_fract_z
  _atom_site_occupancy
  Zr  Zr1       1.0  0.8784548394343902  0.8831914697559216  0.6163357107444583  1.0000
  Zr  Zr2       1.0  0.12315962915737803  0.11680311308734305  0.3828300831736016  1.0000
  Zr  Zr3       1.0  0.11679565980129818  0.8786797352915837  0.6213442726510152  1.0000
  Zr  Zr4       1.0  0.8842652467712567  0.12235452346663316  0.37789209577185545  1.0000
  Zr  Zr5       1.0  0.11967339111139111  0.8809208916102732  0.3804082074299657  1.0000
  Zr  Zr6       1.0  0.8811305507944168  0.11967604720820894  0.6190750323508923  1.0000
  H   H1        1.0  0.0895199236583296  0.7184379141276832  0.5937183684455576  1.0000
  H   H2        1.0  0.0987297581516628  0.09447982151085912  0.21822547039225526  1.0000
  H   H3        1.0  0.09445232824448616  0.09058434657833911  0.5974427309901387  1.0000
  H   H4        1.0  0.7186517067630261  0.09829494228581845  0.5896599531078835  1.0000
  H   H5        1.0  0.14747926097117417  0.5840978314324019  0.37393061781850195  1.0000
  H   H6        1.0  0.8368182214187954  0.43609668008051033  0.6014728037798919  1.0000
  H   H7        1.0  0.625477584795604  0.10239465239659766  0.9349209732262552  1.0000
  H   H8        1.0  0.38799810644866295  0.883175081365863  0.07648471369333994  1.0000
  H   H9        1.0  0.8472569746759788  0.12122331882734033  0.10973976127476696  1.0000
  H   H10       1.0  0.13492080780028454  0.8604271175762644  0.9088996550446852  1.0000
  H   H11       1.0  0.5989544402792291  0.4114927417148309  0.3577922026368513  1.0000
  H   H12       1.0  0.422361334526791  0.6103251023977876  0.620811119728785  1.0000
  H   H13       1.0  0.13168200883889386  0.6015716651651529  0.9203856796941139  1.0000
  H   H14       1.0  0.7358988962890439  0.6211277746069612  0.9739466681964187  1.0000
  H   H15       1.0  0.8239061739123275  0.5363592417800334  0.8888796572426756  1.0000
  H   H16       1.0  0.8334701185364466  0.3663598922241604  0.05884858829122664  1.0000
  H   H17       1.0  0.7452458688608417  0.4512628310864172  0.1438718586959881  1.0000
  H   H18       1.0  0.6040060296673744  0.857773881029054  0.6271764208471139  1.0000
  H   H19       1.0  0.4136441895456926  0.12634373261859366  0.3560363577799066  1.0000
  C   C1        1.0  0.9875933894085874  0.7060251934185899  0.49427316510711006  1.0000
  C   C2        1.0  0.31170944118522226  0.9958090870417067  0.20434316045901127  1.0000
  C   C3        1.0  0.0036203476034729755  0.3049343822112506  0.4935347022146389  1.0000
  C   C4        1.0  0.6975519351576626  0.9952941874168603  0.8031785426111996  1.0000
  C   C5        1.0  0.9907674552682196  0.7023815015948147  0.8070506667856706  1.0000
  C   C6        1.0  0.7025798837159485  0.003935608378753777  0.48615263028409567  1.0000
  C   C7        1.0  0.00129615261553076  0.3076099508002913  0.2025263590942288  1.0000
  C   C8        1.0  0.3085313657145011  0.9866617760907984  0.5036104059224372  1.0000
  C   C9        1.0  0.3066345285544901  0.7000916107480535  0.4924053568652981  1.0000
  C   C10       1.0  0.9877283806055247  0.9967100680722968  0.811129986603902  1.0000
  C   C11       1.0  0.7056411561263615  0.3120920822395164  0.4959029743143546  1.0000
  C   C12       1.0  0.0021932030293641703  0.9937315226087762  0.1988894662039302  1.0000
  C   C13       1.0  0.0021237729645733243  0.41021758853280943  0.4864900416259417  1.0000
  C   C14       1.0  0.9836335361518991  0.6079807430867988  0.491853728729325  1.0000
  C   C15       1.0  0.09036448136792077  0.45367623287237535  0.4199689732550669  1.0000
  C   C16       1.0  0.8941960592688076  0.5663508020852461  0.5555625528494659  1.0000
  C   C17       1.0  0.0793134293929613  0.5509161615921911  0.423983056041351  1.0000
  C   C18       1.0  0.905188104216215  0.4689939171197041  0.5519532322180751  1.0000
  C   C19       1.0  0.4143362895793319  0.995553000475695  0.10444228893842943  1.0000
  C   C20       1.0  0.5985610948950605  0.9908153411932689  0.9064942003324462  1.0000
  C   C21       1.0  0.48278532127500984  0.05774695322269001  0.06403977964440344  1.0000
  C   C22       1.0  0.5308323397503973  0.9276487645941883  0.9475395709085321  1.0000
  C   C23       1.0  0.5726293789111595  0.05439012296456968  0.9665731276768313  1.0000
  C   C24       1.0  0.4409505324823473  0.9310564963616771  0.04493127988710919  1.0000
  C   C25       1.0  0.9835332934699611  0.9961726281343816  0.9147004932273933  1.0000
  C   C26       1.0  0.00011648275351229552  0.9872527736338909  0.1021893341531738  1.0000
  C   C27       1.0  0.9007680531162593  0.06983701962229827  0.9735231842102364  1.0000
  C   C28       1.0  0.08125890648201307  0.9114971606347311  0.045324880173126324  1.0000
  C   C29       1.0  0.9107204564806749  0.06406905783082813  0.06487524178866275  1.0000
  C   C30       1.0  0.07152134439952103  0.9176693979900817  0.9536539499119743  1.0000
  C   C31       1.0  0.4125622740711848  0.6040523386841059  0.48531896406683483  1.0000
  C   C32       1.0  0.6074825992298968  0.41626130204269157  0.49474063836956367  1.0000
  C   C33       1.0  0.46510735944062287  0.548136228716821  0.40853313957703824  1.0000
  C   C34       1.0  0.557348897397489  0.4747872004230516  0.5687406047658925  1.0000
  C   C35       1.0  0.5599749624787266  0.45611222299826454  0.41523648835614324  1.0000
  C   C36       1.0  0.4617051956261733  0.5660948030901308  0.5629369670819032  1.0000
  C   C37       1.0  0.988447114153807  0.6056377412606794  0.9105131642482648  1.0000
  C   C38       1.0  0.9968247369265271  0.41087959004403257  0.1059780815864499  1.0000
  C   C39       1.0  0.9111271668175575  0.5513949252215085  0.9638750596317254  1.0000
  C   C40       1.0  0.07269473297104415  0.4689254224779448  0.051953838766721126  1.0000
  C   C41       1.0  0.9161156358699286  0.45752543694175074  0.05793010115719706  1.0000
  C   C42       1.0  0.06953658308872693  0.5622627955764514  0.958053509629643  1.0000
  C   C43       1.0  0.8106894872249415  0.5494732919154474  0.9617674395799015  1.0000
  C   C44       1.0  0.8164515908307166  0.44308421112599206  0.06819300510959893  1.0000
  C   C45       1.0  0.41276103160402766  0.9834331967111607  0.5009497677246344  1.0000
  C   C46       1.0  0.604321268711807  0.0012154349598249633  0.4828800066161564  1.0000
  C   C47       1.0  0.4685125620383206  0.9055699950149575  0.577612387933833  1.0000
  C   C48       1.0  0.5505523393910038  0.077091651843361  0.4042668174566728  1.0000
  C   C49       1.0  0.5616671758047149  0.9164634284502142  0.5674803717122998  1.0000
  C   C50       1.0  0.4564423018302932  0.0671687354827313  0.4153046801700527  1.0000
  Cl  Cl1       1.0  0.21539632390856409  0.39302675408582394  0.3340878575273223  1.0000
  Cl  Cl2       1.0  0.7680115224188602  0.6293335655779941  0.6387651145314521  1.0000
  Cl  Cl3       1.0  0.4646973803056511  0.13824183299013992  0.12874568220973262  1.0000
  Cl  Cl4       1.0  0.5489661491621116  0.846838480151668  0.882855217507803  1.0000
  Cl  Cl5       1.0  0.7843917980611009  0.1696763932488923  0.9405834143027718  1.0000
  Cl  Cl6       1.0  0.19608517787759194  0.8095295095997059  0.07995545396015293  1.0000
  Cl  Cl7       1.0  0.4195087765380164  0.5844606867725376  0.30455022402359344  1.0000
  Cl  Cl8       1.0  0.6063647004029633  0.441462031718558  0.6690056083412516  1.0000
  Cl  Cl9       1.0  0.4293217630341108  0.7948802439240763  0.6863073092090631  1.0000
  Cl  Cl10      1.0  0.5930223003542351  0.18452807251149764  0.2924189452107839  1.0000
  O   O1        1.0  0.9143248074463489  0.7434350319678843  0.5729419310700978  1.0000
  O   O2        1.0  0.2698980383301546  0.07324871853492713  0.2431189007550429  1.0000
  O   O3        1.0  0.08205001827452212  0.2606637125333862  0.4213404672027252  1.0000
  O   O4        1.0  0.7370688063684768  0.9211987324779686  0.7606939917417394  1.0000
  O   O5        1.0  0.07024703691035963  0.7398591582250729  0.7650732859276559  1.0000
  O   O6        1.0  0.7418528566250872  0.08186332610586076  0.4131536311508981  1.0000
  O   O7        1.0  0.9255486101921518  0.2668957748424818  0.2384632560432892  1.0000
  O   O8        1.0  0.26425893176491416  0.9137146964488353  0.5815539275868034  1.0000
  O   O9        1.0  0.26324940677898945  0.738471254278501  0.4196658384249048  1.0000
  O   O10       1.0  0.9154052512132156  0.07494128015515139  0.7673482231771301  1.0000
  O   O11       1.0  0.7430693691760836  0.26791295165342893  0.5744857669162188  1.0000
  O   O12       1.0  0.07930486810995065  0.9203648389690002  0.2379376263067386  1.0000
  O   O13       1.0  0.06562083775377676  0.9200940464720375  0.7725496981726396  1.0000
  O   O14       1.0  0.7428143385194163  0.2734266181413645  0.41937051073317366  1.0000
  O   O15       1.0  0.9271972612755021  0.07338117101134878  0.2342986087417317  1.0000
  O   O16       1.0  0.266512404990131  0.7355004513833306  0.5720248688832043  1.0000
  O   O17       1.0  0.9158772050461861  0.7395756496633724  0.7666410482063953  1.0000
  O   O18       1.0  0.2702531719847201  0.06491451159920561  0.42740919893634544  1.0000
  O   O19       1.0  0.07818127422537206  0.26540339824097703  0.2415889940106695  1.0000
  O   O20       1.0  0.7386382691456109  0.9278215683404409  0.5645714755915563  1.0000
  O   O21       1.0  0.7353123579001989  0.07306797103271381  0.7653104668973968  1.0000
  O   O22       1.0  0.06708868309593206  0.7423924637001561  0.41930149238929465  1.0000
  O   O23       1.0  0.2714645205678681  0.9202086282396208  0.24102321570103422  1.0000
  O   O24       1.0  0.9263557010615244  0.26672067431259444  0.5718998252020029  1.0000
  O   O25       1.0  0.7988200968964634  0.0706462085596229  0.5638802385492809  1.0000
  O   O26       1.0  0.06763786569781866  0.06444290490919256  0.5702069994226875  1.0000
  O   O27       1.0  0.0710606327258319  0.06706386501114987  0.2982802506618185  1.0000
  O   O28       1.0  0.0643756363735267  0.7985214128147006  0.5666751917115747  1.0000
  O   O29       1.0  0.14913040795448768  0.94831600693621  0.4524878878294061  1.0000
  O   O30       1.0  0.9508387554963635  0.9530303291520638  0.4479794146170592  1.0000
  O   O31       1.0  0.9534341166211036  0.14867571900838072  0.45052304246981123  1.0000
  O   O32       1.0  0.9484425530624846  0.9508153195193072  0.6482279081999708  1.0000
  F   F1        1.0  0.154326166217416  0.43350485444110376  0.09090664875111544  1.0000
