data_image0
_chemical_formula_structural       Zn2C18I2N2O8F4
_chemical_formula_sum              "Zn2 C18 I2 N2 O8 F4"
_cell_length_a       10.89392938535026
_cell_length_b       10.653867993543399
_cell_length_c       11.875036344511344
_cell_angle_alpha    91.81632662316912
_cell_angle_beta     92.56236186411742
_cell_angle_gamma    87.73545883297227

_space_group_name_H-M_alt    "P 1"
_space_group_IT_number       1

loop_
  _space_group_symop_operation_xyz
  'x, y, z'

loop_
  _atom_site_type_symbol
  _atom_site_label
  _atom_site_symmetry_multiplicity
  _atom_site_fract_x
  _atom_site_fract_y
  _atom_site_fract_z
  _atom_site_occupancy
  Zn  Zn1       1.0  0.5010217200252002  0.3700704941184014  0.4964130061845821  1.0000
  Zn  Zn2       1.0  0.49897034686385666  0.6299442854573697  0.5035896440159391  1.0000
  C   C1        1.0  0.5002417970779831  0.499737409921984  0.7187392454902337  1.0000
  C   C2        1.0  0.9586835299576745  0.5677714239856185  0.5898615267326477  1.0000
  C   C3        1.0  0.055595892296821596  0.4549690994817155  0.5959640390575487  1.0000
  C   C4        1.0  0.9443985143528976  0.5449693524316713  0.404024921232029  1.0000
  C   C5        1.0  0.12484572097717715  0.5113453414317348  0.4949117279177385  1.0000
  C   C6        1.0  0.8751478931205127  0.4885874876870205  0.505077134102315  1.0000
  C   C7        1.0  0.4998143158504007  0.4999392797071636  0.8401556799249335  1.0000
  C   C8        1.0  0.5001972400911113  0.5001878695892186  0.159847327380497  1.0000
  C   C9        1.0  0.4999034500923969  0.5000362936612531  0.9431788283908275  1.0000
  C   C10       1.0  0.5001109597031784  0.5001465369717764  0.05684357786764591  1.0000
  C   C11       1.0  0.4997503403025546  0.5003639054622439  0.2812722394573086  1.0000
  C   C12       1.0  0.738032883816892  0.4879555405123951  0.5066878565192782  1.0000
  C   C13       1.0  0.26196394266187883  0.5120074489834677  0.4933107766836997  1.0000
  C   C14       1.0  0.500922034203981  0.9358657008278326  0.5021825587284923  1.0000
  C   C15       1.0  0.49910011337948385  0.06415796473617522  0.4978191779970729  1.0000
  C   C16       1.0  0.9729519467655477  0.37678854146643215  0.5099108716744141  1.0000
  C   C17       1.0  0.02704300245123649  0.6231378903884703  0.4900897197694434  1.0000
  C   C18       1.0  0.04131187246773751  0.4321670688397106  0.41013082497845943  1.0000
  I   I1        1.0  0.14157097893446746  0.38780069786248816  0.744890199788486  1.0000
  I   I2        1.0  0.8584440368696561  0.6121157533516381  0.2550946706953496  1.0000
  N   N1        1.0  0.5024525980447122  0.8270126190768109  0.5058264340985231  1.0000
  N   N2        1.0  0.4975696396439842  0.1730139762173124  0.494182086035245  1.0000
  O   O1        1.0  0.5028560732609292  0.39228022890797815  0.6683476869950553  1.0000
  O   O2        1.0  0.49711757806590373  0.6077981121751321  0.3316757064369682  1.0000
  O   O3        1.0  0.5019717893130249  0.39314194355117854  0.3261413484803626  1.0000
  O   O4        1.0  0.49804338856948493  0.6069370913821855  0.6738517739718404  1.0000
  O   O5        1.0  0.6883246780904598  0.38215806174455474  0.5034508939202027  1.0000
  O   O6        1.0  0.3116527478280631  0.6178070719222859  0.4965448285831755  1.0000
  O   O7        1.0  0.3148952906661506  0.40351281745074635  0.4906502091290363  1.0000
  O   O8        1.0  0.6851131695494743  0.5964535739176995  0.5093386132160802  1.0000
  F   F1        1.0  0.9479962438553285  0.2543937555994731  0.5210525207022982  1.0000
  F   F2        1.0  0.05199109958875429  0.7455249712177334  0.47892926423126875  1.0000
  F   F3        1.0  0.0834328966645188  0.3667669460842333  0.3191044169051409  1.0000
  F   F4        1.0  0.9165616702831371  0.6331407923201766  0.6809009502958432  1.0000
