data_image0
_chemical_formula_structural       Zn2H22C46N6O10
_chemical_formula_sum              "Zn2 H22 C46 N6 O10"
_cell_length_a       12.03686218300552
_cell_length_b       13.135499159411623
_cell_length_c       14.666911957042041
_cell_angle_alpha    90.75739161468161
_cell_angle_beta     108.3191763268952
_cell_angle_gamma    96.40507919972147

_space_group_name_H-M_alt    "P 1"
_space_group_IT_number       1

loop_
  _space_group_symop_operation_xyz
  'x, y, z'

loop_
  _atom_site_type_symbol
  _atom_site_label
  _atom_site_symmetry_multiplicity
  _atom_site_fract_x
  _atom_site_fract_y
  _atom_site_fract_z
  _atom_site_occupancy
  Zn  Zn1       1.0  0.8847454463446596  0.49839647669450926  0.5158254718082061  1.0000
  Zn  Zn2       1.0  0.11525141182038819  0.5016089972803357  0.48417210187332665  1.0000
  H   H1        1.0  0.7912698389876311  0.6054955863689387  0.6384977907493407  1.0000
  H   H2        1.0  0.20872400113053402  0.39449146392356477  0.36149814169581856  1.0000
  H   H3        1.0  0.4003281403402639  0.3697999802468458  0.33587741005842275  1.0000
  H   H4        1.0  0.5996705717251701  0.630184099254123  0.6641211880675683  1.0000
  H   H5        1.0  0.9916874077815407  0.4486625969716229  0.1633950040822753  1.0000
  H   H6        1.0  0.0083205510746325  0.5513407814549114  0.8366069349330088  1.0000
  H   H7        1.0  0.127106114418261  0.563428097275974  0.01222827039287469  1.0000
  H   H8        1.0  0.8728841198354402  0.4365512475027843  0.9877700333932892  1.0000
  H   H9        1.0  0.5152227945707182  0.5129061049318722  0.19347409772586832  1.0000
  H   H10       1.0  0.4847633153587623  0.487054831139389  0.8065324929934972  1.0000
  H   H11       1.0  0.107001198089911  0.1753011711143273  0.4410748389570074  1.0000
  H   H12       1.0  0.8929857599843061  0.8246872953228818  0.5589212792961431  1.0000
  H   H13       1.0  0.8404667148295958  0.18206948408173668  0.5775493845168639  1.0000
  H   H14       1.0  0.1595294092666819  0.8179298565302915  0.42244862528658433  1.0000
  H   H15       1.0  0.17204461021099607  0.007946384255618002  0.40911615611602764  1.0000
  H   H16       1.0  0.827948065220234  0.9920536654437342  0.5908822854801414  1.0000
  H   H17       1.0  0.7080372158231045  0.2782852129316922  0.4459767955623518  1.0000
  H   H18       1.0  0.6276392993709834  0.26297565101416603  0.319820761045932  1.0000
  H   H19       1.0  0.5481960239545813  0.2599569897650724  0.40539827242222515  1.0000
  H   H20       1.0  0.37236564143830014  0.7370093037300266  0.6801795367329787  1.0000
  H   H21       1.0  0.29195429318931326  0.7217003253425884  0.55403622169824  1.0000
  H   H22       1.0  0.45178933114175385  0.7400322045281698  0.594594687943477  1.0000
  C   C1        1.0  0.019558186885362323  0.6976058078084862  0.5011182466546344  1.0000
  C   C2        1.0  0.9804432774215641  0.3023928363951427  0.49887370834353106  1.0000
  C   C3        1.0  0.47065526880855657  0.5147331501953187  0.11686041745133477  1.0000
  C   C4        1.0  0.5293327737837644  0.48524388519211203  0.8831447742814617  1.0000
  C   C5        1.0  0.3532349883987962  0.5288398402815984  0.08687874491447185  1.0000
  C   C6        1.0  0.6467523434869378  0.47113793640609447  0.9131228496457026  1.0000
  C   C7        1.0  0.9738075907117293  0.18859673912304234  0.5068229538572095  1.0000
  C   C8        1.0  0.026182065669509244  0.8113994214136182  0.49317191011757433  1.0000
  C   C9        1.0  0.1119505648159702  0.9679063604773717  0.4428427768485647  1.0000
  C   C10       1.0  0.8880489602178727  0.03209305624084639  0.557160931366212  1.0000
  C   C11       1.0  0.1056020902757666  0.8632274528452442  0.4502576291915545  1.0000
  C   C12       1.0  0.8943914468544637  0.13677261435820037  0.5497417286743626  1.0000
  C   C13       1.0  0.9544494082879565  0.8660983204351709  0.5273891127329902  1.0000
  C   C14       1.0  0.045555329326312205  0.13390651573336504  0.47260718828484727  1.0000
  C   C15       1.0  0.9597095480715082  0.9738197190322991  0.5216175750179557  1.0000
  C   C16       1.0  0.0402852650866237  0.026175769455164796  0.47837936748103255  1.0000
  C   C17       1.0  0.3981997661234188  0.41729216855298285  0.3964520976608412  1.0000
  C   C18       1.0  0.6018077831450556  0.5826997133665658  0.603546915632755  1.0000
  C   C19       1.0  0.2927356796682616  0.430743424741884  0.4096477084293966  1.0000
  C   C20       1.0  0.7072606197857284  0.5692490148179273  0.5903455235616376  1.0000
  C   C21       1.0  0.38227397916161004  0.5409640502484336  0.5451557352832309  1.0000
  C   C22       1.0  0.6177250607197351  0.4590376355284249  0.4548424028404269  1.0000
  C   C23       1.0  0.07614498979931031  0.5008901584860155  0.6873992261101376  1.0000
  C   C24       1.0  0.9238669343126348  0.4991239931506399  0.3126004623919129  1.0000
  C   C25       1.0  0.49663808106753043  0.5318551560994536  0.5384039589957936  1.0000
  C   C26       1.0  0.503363075647428  0.46814430780656113  0.4616056484232017  1.0000
  C   C27       1.0  0.14872594658400828  0.5038214437885671  0.7921889068595007  1.0000
  C   C28       1.0  0.8512753539132661  0.49618565764474454  0.20781534191698367  1.0000
  C   C29       1.0  0.1657655191602032  0.5429374708725162  0.9574724422705925  1.0000
  C   C30       1.0  0.8342340077426798  0.45706116674200076  0.042527169072492696  1.0000
  C   C31       1.0  0.0998577415102631  0.5357438247317674  0.8614779802584777  1.0000
  C   C32       1.0  0.9001436488348347  0.464264043625647  0.1385262987249475  1.0000
  C   C33       1.0  0.2648837099277799  0.47871023064679014  0.8202639584129583  1.0000
  C   C34       1.0  0.7351093788292432  0.5212997573521392  0.1797292151615366  1.0000
  C   C35       1.0  0.3403349529137785  0.49867321984700647  0.9179368125610805  1.0000
  C   C36       1.0  0.6596635956080803  0.501323079191792  0.0820550141168681  1.0000
  C   C37       1.0  0.2853279157536548  0.5253726204167961  0.9866812262724307  1.0000
  C   C38       1.0  0.7146640212708562  0.4746128610193309  0.013312813219357586  1.0000
  C   C39       1.0  0.4671126239052442  0.4950234668699379  0.9499543727723817  1.0000
  C   C40       1.0  0.5328727102978021  0.5049680667643344  0.05005155598583846  1.0000
  C   C41       1.0  0.296739900157732  0.5444743720941501  0.15713869398053495  1.0000
  C   C42       1.0  0.7032538861631181  0.4554775176595385  0.8428705969557909  1.0000
  C   C43       1.0  0.699498334752775  0.5788013584017263  0.24724275939640702  1.0000
  C   C44       1.0  0.3004949212859174  0.4211948518519789  0.752748991882761  1.0000
  C   C45       1.0  0.6276617343046597  0.2936374926628105  0.38963551880416236  1.0000
  C   C46       1.0  0.3723307839271612  0.7063541424354725  0.6103648623402904  1.0000
  N   N1        1.0  0.7148292052063498  0.5077004607068359  0.5171580834378062  1.0000
  N   N2        1.0  0.2851794843837538  0.492286081662449  0.4828405176142922  1.0000
  N   N3        1.0  0.2489263965343298  0.5571445469500489  0.21375599980718352  1.0000
  N   N4        1.0  0.751044060033948  0.4427939020005454  0.7862413930843957  1.0000
  N   N5        1.0  0.6682918313829448  0.635118159896102  0.29401753094793986  1.0000
  N   N6        1.0  0.3316771922835429  0.36488302614842644  0.7059813095450735  1.0000
  O   O1        1.0  0.9349272663263406  0.65303983698022  0.5258156679668459  1.0000
  O   O2        1.0  0.0650810385040472  0.34696583206892484  0.4741829727819819  1.0000
  O   O3        1.0  0.10025562486422496  0.654060711408121  0.48233644115882857  1.0000
  O   O4        1.0  0.8997401885713288  0.3459202417943816  0.5176572539978039  1.0000
  O   O5        1.0  0.9661699604327437  0.5032351646598342  0.6669126508172311  1.0000
  O   O6        1.0  0.03383709894203689  0.4967750790454131  0.33308704974360376  1.0000
  O   O7        1.0  0.1347284975403937  0.5000755496598259  0.6291037737786666  1.0000
  O   O8        1.0  0.8652710589316827  0.4999376184144778  0.3708925456244927  1.0000
  O   O9        1.0  0.6277681092812841  0.4034434148749141  0.3800914557018301  1.0000
  O   O10       1.0  0.37223834899599956  0.5965484799895577  0.619916807983877  1.0000
