data_image0
_chemical_formula_structural       Cu2H14C24N12O4
_chemical_formula_sum              "Cu2 H14 C24 N12 O4"
_cell_length_a       5.300204108673327
_cell_length_b       8.40859638283874
_cell_length_c       15.515055129162409
_cell_angle_alpha    89.99961901056214
_cell_angle_beta     89.99975435209916
_cell_angle_gamma    105.21866047083093

_space_group_name_H-M_alt    "P 1"
_space_group_IT_number       1

loop_
  _space_group_symop_operation_xyz
  'x, y, z'

loop_
  _atom_site_type_symbol
  _atom_site_label
  _atom_site_symmetry_multiplicity
  _atom_site_fract_x
  _atom_site_fract_y
  _atom_site_fract_z
  _atom_site_occupancy
  Cu  Cu1       1.0  0.6197666333730893  0.9242139546680973  0.42234572447217283  1.0000
  Cu  Cu2       1.0  0.3802433360464192  0.07579030259859107  0.9223443592757335  1.0000
  H   H1        1.0  0.5145708526790499  0.24767026852919818  0.5064788491416934  1.0000
  H   H2        1.0  0.4854257681437629  0.7523391936928334  0.0064797394422698  1.0000
  H   H3        1.0  0.36852197337978515  0.4161722514648146  0.4961867137042404  1.0000
  H   H4        1.0  0.6314744187122583  0.5838333403681727  0.9961896000354286  1.0000
  H   H5        1.0  0.48633006412710234  0.3315802133788991  0.4023302007341202  1.0000
  H   H6        1.0  0.5136739481647083  0.6684317549193608  0.9023297319776518  1.0000
  H   H7        1.0  0.048180367475069326  0.5467541951838937  0.2728816729302892  1.0000
  H   H8        1.0  0.9518115233195344  0.45324745435336666  0.7728813389405857  1.0000
  H   H9        1.0  0.984022367976891  0.4260799199828185  0.36880545558884853  1.0000
  H   H10       1.0  0.01596769730778651  0.573920248280416  0.8688054082756977  1.0000
  H   H11       1.0  0.2565871094222273  0.6062420063374387  0.3650254629294523  1.0000
  H   H12       1.0  0.7434042228569879  0.3937520550499513  0.865027580555534  1.0000
  H   H13       1.0  0.4827391731507546  0.5919292737577351  0.1581262844657587  1.0000
  H   H14       1.0  0.5172518089145298  0.4080667529703561  0.6581261023879392  1.0000
  C   C1        1.0  0.1319069486232038  0.4358012871533817  0.0999375338720725  1.0000
  C   C2        1.0  0.8680916544520868  0.5641931675040652  0.599938856568464  1.0000
  C   C3        1.0  0.009260312335811679  0.25884489029302665  0.1130290971143921  1.0000
  C   C4        1.0  0.9907421536719737  0.7411456605134672  0.6130308934930541  1.0000
  C   C5        1.0  0.15404539105180245  0.19781985997924773  0.1738422915466913  1.0000
  C   C6        1.0  0.8459536917178312  0.8021734520393834  0.673840212437085  1.0000
  C   C7        1.0  0.3777560370566988  0.3419921791068603  0.20052756221625145  1.0000
  C   C8        1.0  0.6222430532862973  0.6580019532968108  0.7005276170878431  1.0000
  C   C9        1.0  0.7889326482962815  0.18064771069443705  0.06586093460324349  1.0000
  C   C10       1.0  0.21107226167180215  0.8193472659347875  0.5658622980628536  1.0000
  C   C11       1.0  0.9137780582712337  0.9052667487962935  0.1855561824359739  1.0000
  C   C12       1.0  0.0862185756494114  0.09473008262614258  0.6855513108183968  1.0000
  C   C13       1.0  0.1230285983587507  0.0405771334619303  0.20929396953496138  1.0000
  C   C14       1.0  0.8769698097425759  0.959415631110417  0.7092912796131969  1.0000
  C   C15       1.0  0.2933532429251926  0.006875447571658801  0.27222117183381295  1.0000
  C   C16       1.0  0.7066444830614387  0.993117577751953  0.7722179646363898  1.0000
  C   C17       1.0  0.13793653666802191  0.190677917798034  0.4541416746568174  1.0000
  C   C18       1.0  0.8620692309690766  0.8093307826063024  0.9541440580732967  1.0000
  C   C19       1.0  0.391900469692402  0.3031972297814959  0.46555407280198574  1.0000
  C   C20       1.0  0.6080999378104437  0.6968125311194057  0.9655559423484518  1.0000
  C   C21       1.0  0.889260877789276  0.6510936817548724  0.37325241330238157  1.0000
  C   C22       1.0  0.11074145051372136  0.3489088743082859  0.8732523925202997  1.0000
  C   C23       1.0  0.054936145316780406  0.5516307340742724  0.34348662910812067  1.0000
  C   C24       1.0  0.945056287931294  0.4483698237488267  0.8434869670506089  1.0000
  N   N1        1.0  0.35236277276962363  0.4762695475106256  0.1540608591825006  1.0000
  N   N2        1.0  0.6476315434862839  0.5237253066862382  0.6540607154403588  1.0000
  N   N3        1.0  0.6062458136927233  0.1281626427072879  0.0218432716032453  1.0000
  N   N4        1.0  0.3937657679677642  0.8718379407396099  0.5218448242956697  1.0000
  N   N5        1.0  0.7416170980744069  0.7913903791482753  0.1675591549066269  1.0000
  N   N6        1.0  0.25837525082837937  0.20860919939249095  0.6675542670805186  1.0000
  N   N7        1.0  0.4215481324199856  0.9682855101300801  0.3256687243600638  1.0000
  N   N8        1.0  0.578456811980189  0.0317128479997493  0.8256659394530956  1.0000
  N   N9        1.0  0.9328033939753623  0.10069025049349989  0.44321187239299314  1.0000
  N   N10       1.0  0.06720583847942407  0.8993173833743667  0.9432150917288523  1.0000
  N   N11       1.0  0.7584323685132544  0.7345383754975783  0.3959238862290206  1.0000
  N   N12       1.0  0.24157518674468292  0.2654638262430851  0.895921396575652  1.0000
  O   O1        1.0  0.062738537119742  0.5336457679912812  0.0524667423631797  1.0000
  O   O2        1.0  0.9372585678015921  0.46634818865624783  0.552467671544143  1.0000
  O   O3        1.0  0.5481945023196532  0.34076049241810585  0.2541353707995313  1.0000
  O   O4        1.0  0.4517989403173032  0.6592352813774551  0.7541343808143282  1.0000
