data_image0
_chemical_formula_structural       Cu3H16C12N22
_chemical_formula_sum              "Cu3 H16 C12 N22"
_cell_length_a       7.399771416296165
_cell_length_b       9.079323806529548
_cell_length_c       9.269424421711557
_cell_angle_alpha    76.49710893299006
_cell_angle_beta     75.6217587112257
_cell_angle_gamma    71.00127499144095

_space_group_name_H-M_alt    "P 1"
_space_group_IT_number       1

loop_
  _space_group_symop_operation_xyz
  'x, y, z'

loop_
  _atom_site_type_symbol
  _atom_site_label
  _atom_site_symmetry_multiplicity
  _atom_site_fract_x
  _atom_site_fract_y
  _atom_site_fract_z
  _atom_site_occupancy
  Cu  Cu1       1.0  0.0006458917750293579  0.49990543799702875  0.5000006803562086  1.0000
  Cu  Cu2       1.0  0.43214885234543493  0.3979131050446937  0.2816944113523689  1.0000
  Cu  Cu3       1.0  0.5672075503653461  0.6020696253107329  0.7184595074925113  1.0000
  H   H1        1.0  0.6754910608313409  0.08993105915207877  0.388332670944507  1.0000
  H   H2        1.0  0.324288986811169  0.9100692656965208  0.6117454671119942  1.0000
  H   H3        1.0  0.8908547124313272  0.8404443751429935  0.008358323345071068  1.0000
  H   H4        1.0  0.10932668135264119  0.15984313360853966  0.9915301074155419  1.0000
  H   H5        1.0  0.6721635467083117  0.06773464298123602  0.8639851957970844  1.0000
  H   H6        1.0  0.3274413445592401  0.9324938626359508  0.13608897498095024  1.0000
  H   H7        1.0  0.46967569078790206  0.29896371582894693  0.9883766861931701  1.0000
  H   H8        1.0  0.5297660052905044  0.7009991805547313  0.011858442711798063  1.0000
  H   H9        1.0  0.0811962996214604  0.7943932092117619  0.24299362615303  1.0000
  H   H10       1.0  0.9191281544940255  0.20634300246528875  0.7566830125125745  1.0000
  H   H11       1.0  0.922304981307178  0.8518282250015261  0.4099151670261421  1.0000
  H   H12       1.0  0.07808335049308814  0.1486028826144192  0.589873917934369  1.0000
  H   H13       1.0  0.9259115931283615  0.6147684652780042  0.23862170443695152  1.0000
  H   H14       1.0  0.07531070996576969  0.385274106979402  0.761278060884784  1.0000
  H   H15       1.0  0.7337209385930662  0.6829952745000937  0.3675079654766406  1.0000
  H   H16       1.0  0.2676143813532689  0.3165205246958606  0.6326538957248997  1.0000
  C   C1        1.0  0.6794748271008259  0.0790478725946002  0.2726588544004257  1.0000
  C   C2        1.0  0.32030205812024065  0.9209655250643249  0.7274062123203249  1.0000
  C   C3        1.0  0.7995156191483654  0.9463430076954041  0.2106836084921184  1.0000
  C   C4        1.0  0.20055092524095391  0.053829025376124696  0.7892719095257944  1.0000
  C   C5        1.0  0.7976931506402352  0.9417481231910685  0.06122274220662401  1.0000
  C   C6        1.0  0.20230497949707169  0.0584523697157309  0.9387476744099171  1.0000
  C   C7        1.0  0.6774762514193141  0.0682243226517727  0.9803397215400762  1.0000
  C   C8        1.0  0.3222242732623286  0.9318729121033227  0.019744586225449674  1.0000
  C   C9        1.0  0.5631198868566115  0.19709499097365318  0.04950261306851899  1.0000
  C   C10       1.0  0.43640870569444695  0.8028867078472215  0.9506893506521691  1.0000
  C   C11       1.0  0.9300257035333387  0.8154696323051098  0.3033486284045636  1.0000
  C   C12       1.0  0.0703928290513574  0.18489045589212338  0.696466434872974  1.0000
  N   N1        1.0  0.3093982415076511  0.5648714029276574  0.4095535910378913  1.0000
  N   N2        1.0  0.6906188998781956  0.435047384266447  0.5899536941453787  1.0000
  N   N3        1.0  0.37394766047435724  0.6707831056604403  0.40739686307503575  1.0000
  N   N4        1.0  0.6261864770233385  0.3290893200331694  0.5922537761533276  1.0000
  N   N5        1.0  0.4333220657195511  0.7756266420194178  0.4076664983467281  1.0000
  N   N6        1.0  0.5668293313930448  0.22418345433786155  0.5919589867766033  1.0000
  N   N7        1.0  0.1711346118087747  0.3538534530195249  0.3470325424495825  1.0000
  N   N8        1.0  0.8279493199284788  0.6460301937390509  0.6528247382876626  1.0000
  N   N9        1.0  0.1240896926324027  0.2518203617165325  0.31365021431543727  1.0000
  N   N10       1.0  0.8750605674262596  0.7477852744242313  0.6869419455229387  1.0000
  N   N11       1.0  0.07784145645090487  0.15432903420532537  0.2821797788957382  1.0000
  N   N12       1.0  0.9217241033976222  0.8448316831775953  0.7185838427501706  1.0000
  N   N13       1.0  0.6546080653022626  0.48690863958060504  0.1902127659697683  1.0000
  N   N14       1.0  0.3448228975178296  0.5130327884612028  0.8095956043354557  1.0000
  N   N15       1.0  0.764889221091387  0.44243551634188083  0.07899877600689814  1.0000
  N   N16       1.0  0.23490047715092285  0.5574831972894573  0.9209596993513142  1.0000
  N   N17       1.0  0.8723826532524867  0.40434284846040197  0.9695895118683067  1.0000
  N   N18       1.0  0.1278115136023245  0.5956710176164108  0.030486860051979585  1.0000
  N   N19       1.0  0.5646477680739749  0.20193672520231584  0.1934437013404987  1.0000
  N   N20       1.0  0.4348606608072528  0.7979943225942062  0.8067582022064668  1.0000
  N   N21       1.0  0.88205193472033  0.6635518241067329  0.3353767273362394  1.0000
  N   N22       1.0  0.11913758081067981  0.3364766615616759  0.6645349009170471  1.0000
