data_image0
_chemical_formula_structural       Al6H48C96N4O28
_chemical_formula_sum              "Al6 H48 C96 N4 O28"
_cell_length_a       12.228627693027333
_cell_length_b       12.029472262114119
_cell_length_c       27.938073526953207
_cell_angle_alpha    89.59062608886398
_cell_angle_beta     90.23801873481744
_cell_angle_gamma    120.19898948872549

_space_group_name_H-M_alt    "P 1"
_space_group_IT_number       1

loop_
  _space_group_symop_operation_xyz
  'x, y, z'

loop_
  _atom_site_type_symbol
  _atom_site_label
  _atom_site_symmetry_multiplicity
  _atom_site_fract_x
  _atom_site_fract_y
  _atom_site_fract_z
  _atom_site_occupancy
  Al  Al1       1.0  0.5998579360656748  0.20743271647877762  0.4973562312725123  1.0000
  Al  Al2       1.0  0.34611637696372083  0.9323973953555579  0.4972545895766416  1.0000
  Al  Al3       1.0  0.5935127700490667  0.9374648817207074  0.5009361885593719  1.0000
  Al  Al4       1.0  0.0896493475322373  0.15769909620233596  0.9835526852927146  1.0000
  Al  Al5       1.0  0.09093633057510424  0.4253314188363788  0.9836693721088423  1.0000
  Al  Al6       1.0  0.3405681327122919  0.43570938959474864  0.9836375273428999  1.0000
  H   H1        1.0  0.19973819188844286  0.752789700630828  0.2109603218365876  1.0000
  H   H2        1.0  0.15068596705573603  0.556710594339208  0.2789036545358812  1.0000
  H   H3        1.0  0.009787110871251116  0.5382540755088031  0.7767477663312263  1.0000
  H   H4        1.0  0.025112864544979678  0.5770320836448449  0.6913621233882096  1.0000
  H   H5        1.0  0.6489944407100552  0.7852247277865344  0.789317370723019  1.0000
  H   H6        1.0  0.6628827818032974  0.8206702794366268  0.7036988614522031  1.0000
  H   H7        1.0  0.5626500412027297  0.8090128111203326  0.6256537384993521  1.0000
  H   H8        1.0  0.941245421275454  0.0649718488754658  0.8614841229046561  1.0000
  H   H9        1.0  0.8207743115133468  0.9996156336717235  0.6217459224326517  1.0000
  H   H10       1.0  0.42910668212781633  0.9184079330214417  0.2594092033427131  1.0000
  H   H11       1.0  0.8551167629928144  0.3676257303971298  0.8649185975836744  1.0000
  H   H12       1.0  0.6894779820077017  0.1972677131349982  0.2073597889917025  1.0000
  H   H13       1.0  0.7297309175655896  0.40003333904964244  0.7051543215041818  1.0000
  H   H14       1.0  0.7226427815558764  0.29562528858021153  0.6273006145396067  1.0000
  H   H15       1.0  0.46690587906202546  0.4366087350476065  0.8492006728924295  1.0000
  H   H16       1.0  0.5059842098972425  0.3351751383310244  0.6128308433573437  1.0000
  H   H17       1.0  0.5557793309812027  0.5217029333448409  0.76855306630884  1.0000
  H   H18       1.0  0.5677931320867559  0.48592176752278265  0.6821999332382376  1.0000
  H   H19       1.0  0.1978177909012402  0.0371950624358206  0.8695710136086916  1.0000
  H   H20       1.0  0.5577664145321535  0.8310596868257534  0.1995055217108543  1.0000
  H   H21       1.0  0.16179803146670224  0.8449380766361047  0.7143791571426945  1.0000
  H   H22       1.0  0.2365953559403878  0.9333246029294959  0.6326844791333102  1.0000
  H   H23       1.0  0.5534458008045106  0.36399641150618584  0.2193337139726736  1.0000
  H   H24       1.0  0.5086596526870863  0.6345397868660998  0.2675147931420909  1.0000
  H   H25       1.0  0.28005224243811705  0.46926560220664026  0.2189326652168475  1.0000
  H   H26       1.0  0.8671572673845915  0.9946453820003143  0.21375441659956348  1.0000
  H   H27       1.0  0.0363691771144801  0.16802536569276333  0.283536377598864  1.0000
  H   H28       1.0  0.662780032435549  0.9880622858067057  0.2647626295430285  1.0000
  H   H29       1.0  0.8591888747641718  0.3705155911520848  0.2770060974107409  1.0000
  H   H30       1.0  0.06326264385593557  0.3769908380792942  0.2260901317894906  1.0000
  H   H31       1.0  0.053235520192217126  0.6201174918379593  0.6245886497557365  1.0000
  H   H32       1.0  0.15375504603737503  0.6936871725923054  0.5757763825970557  1.0000
  H   H33       1.0  0.6213635727661071  0.7414645785578956  0.854763355361861  1.0000
  H   H34       1.0  0.37480502500121554  0.3738065987950776  0.2816807180924812  1.0000
  H   H35       1.0  0.5228319311732434  0.6706420345796502  0.9044905371891971  1.0000
  H   H36       1.0  0.9697527328894607  0.9539728811105661  0.8201999760136262  1.0000
  H   H37       1.0  0.9598899281566274  0.8823246056430565  0.7682518828550329  1.0000
  H   H38       1.0  0.895331742608491  0.9385141404488028  0.6949107120439136  1.0000
  H   H39       1.0  0.7723242409774471  0.4218592087200578  0.7921053499082262  1.0000
  H   H40       1.0  0.11512992883776012  0.7691389532353484  0.794790508138874  1.0000
  H   H41       1.0  0.16302706346701967  0.8667144016697108  0.8424930471452825  1.0000
  H   H42       1.0  0.5071482906593728  0.13386200251622435  0.2658222428096835  1.0000
  H   H43       1.0  0.31267029515323924  0.989751897582792  0.1975638534678836  1.0000
  H   H44       1.0  0.1340605645204532  0.9996338622554788  0.2598640912135934  1.0000
  H   H45       1.0  0.1810910096534144  0.23024456525001114  0.21325325273616613  1.0000
  H   H46       1.0  0.1113320673629516  0.5522353482724541  0.8556412837981925  1.0000
  H   H47       1.0  0.7098865482673632  0.4162634162473538  0.4657200027356367  1.0000
  H   H48       1.0  0.9935404842358224  0.94539654017418  0.0120528344619331  1.0000
  C   C1        1.0  0.3787810662745272  0.1125568591057302  0.4288579479433139  1.0000
  C   C2        1.0  0.38053653941743437  0.7285271658884369  0.3382332179127586  1.0000
  C   C3        1.0  0.9597960687210544  0.17446279550151192  0.2658729736556324  1.0000
  C   C4        1.0  0.4058515032492096  0.7944559695762765  0.429579825429542  1.0000
  C   C5        1.0  0.8650847235371728  0.0777220960256386  0.2283099776541064  1.0000
  C   C6        1.0  0.9177326087702937  0.2232629970620366  0.1035339691808304  1.0000
  C   C7        1.0  0.7971633185080123  0.1403737857707412  0.3862641625950971  1.0000
  C   C8        1.0  0.9742597135812404  0.2906449317432164  0.23535816396501016  1.0000
  C   C9        1.0  0.8797644091053839  0.19408664664975112  0.1965966255618028  1.0000
  C   C10       1.0  0.8610249987628932  0.287392370247602  0.2623746531020075  1.0000
  C   C11       1.0  0.8461451369507245  0.17101747176630513  0.29402350973384733  1.0000
  C   C12       1.0  0.3884673289403935  0.7479436608653316  0.3812544842090233  1.0000
  C   C13       1.0  0.7660889892791899  0.19062913251936922  0.2249172119206833  1.0000
  C   C14       1.0  0.7517236630257287  0.07437304706808591  0.2552995353053475  1.0000
  C   C15       1.0  0.8989993811195589  0.20929819679249564  0.1465577900405535  1.0000
  C   C16       1.0  0.7413603044884097  0.11832972839155793  0.433089839898102  1.0000
  C   C17       1.0  0.8235069886531364  0.1552817933621355  0.3438179547968261  1.0000
  C   C18       1.0  0.361367145338903  0.2891359577961623  0.2623299274679098  1.0000
  C   C19       1.0  0.4604015713083953  0.2831575245668888  0.2287838012492713  1.0000
  C   C20       1.0  0.34641746531165296  0.2352498514477404  0.0981038333230018  1.0000
  C   C21       1.0  0.34394988756461226  0.1287210577204903  0.3811217726013254  1.0000
  C   C22       1.0  0.2530990798262351  0.20852118282466148  0.2258344278211837  1.0000
  C   C23       1.0  0.3129046713738289  0.5690697534697123  0.2286396661745655  1.0000
  C   C24       1.0  0.352635075392925  0.2031493785629266  0.19108198283266378  1.0000
  C   C25       1.0  0.22722825633781696  0.0804295805963591  0.2504664355053947  1.0000
  C   C26       1.0  0.33516773318645926  0.16030072811607712  0.28820175102381995  1.0000
  C   C27       1.0  0.32629793713595484  0.07442630400276333  0.21693437363900608  1.0000
  C   C28       1.0  0.3858256520484176  0.11000446362832861  0.567197933420573  1.0000
  C   C29       1.0  0.43469511587932164  0.15512444262554234  0.2533741684155899  1.0000
  C   C30       1.0  0.35376123543253607  0.2220431295063818  0.1410879331901711  1.0000
  C   C31       1.0  0.3345890533017055  0.1413693762737509  0.3382201948626573  1.0000
  C   C32       1.0  0.24381413569218324  0.6906310834649221  0.6371558728392374  1.0000
  C   C33       1.0  0.23180849219016145  0.6621951688053116  0.6874378492063257  1.0000
  C   C34       1.0  0.3399005082556386  0.678430688555636  0.1903466860572678  1.0000
  C   C35       1.0  0.21115220212809757  0.616386393015013  0.7885505103953463  1.0000
  C   C36       1.0  0.10244051652527011  0.5838723714449898  0.7596720940935171  1.0000
  C   C37       1.0  0.11202238990246363  0.6056903101767689  0.7113509114396876  1.0000
  C   C38       1.0  0.2029061580728637  0.5948006681815629  0.8378644876018698  1.0000
  C   C39       1.0  0.30882071119906845  0.6204018307866479  0.8657694470464605  1.0000
  C   C40       1.0  0.39089435392929767  0.7822698250930672  0.5646505307079082  1.0000
  C   C41       1.0  0.4709861131531098  0.7675775298880296  0.64326189443792  1.0000
  C   C42       1.0  0.46239487117973965  0.7459136127320037  0.6925877791113635  1.0000
  C   C43       1.0  0.3414088505790857  0.6926385561781601  0.7151638711377402  1.0000
  C   C44       1.0  0.5709492388332859  0.7773752280818653  0.7211397682029954  1.0000
  C   C45       1.0  0.4401371779362577  0.660869412037492  0.2545993403277933  1.0000
  C   C46       1.0  0.5619533030632766  0.7570377247401299  0.7695008285499512  1.0000
  C   C47       1.0  0.44222095214096396  0.7016426718881521  0.7933423959375006  1.0000
  C   C48       1.0  0.3323816384746364  0.6708978757363866  0.7658374345105942  1.0000
  C   C49       1.0  0.4306902540904716  0.6735645804557395  0.8437042616255468  1.0000
  C   C50       1.0  0.3658100143367946  0.7426252874214755  0.6152462370896004  1.0000
  C   C51       1.0  0.8122942328104658  0.07105855037283962  0.6426986183551762  1.0000
  C   C52       1.0  0.7256320671806764  0.12285213464493693  0.5697254553853455  1.0000
  C   C53       1.0  0.8410073927750331  0.08450206111455572  0.6917969638680006  1.0000
  C   C54       1.0  0.8846330816102251  0.10568710252139372  0.7923638383459347  1.0000
  C   C55       1.0  0.8989151341437703  0.011954065454965202  0.7647776621291767  1.0000
  C   C56       1.0  0.36839871716900063  0.7090832437061251  0.28812809265537004  1.0000
  C   C57       1.0  0.8815866936137909  0.006820117420659202  0.7159106642518083  1.0000
  C   C58       1.0  0.9103801022292471  0.1221764029853034  0.8413609068286263  1.0000
  C   C59       1.0  0.9024984494023656  0.2177538431146431  0.8668807830554783  1.0000
  C   C60       1.0  0.756674586994606  0.2389040986755759  0.6458907239963168  1.0000
  C   C61       1.0  0.7818297639373171  0.253538127460665  0.6951094401863429  1.0000
  C   C62       1.0  0.8231411732285636  0.17521545562266996  0.7185356486234369  1.0000
  C   C63       1.0  0.7641155224926236  0.3426797361333698  0.7230731803132997  1.0000
  C   C64       1.0  0.24077795883110298  0.6172314781284883  0.2606922665541305  1.0000
  C   C65       1.0  0.7872184265189334  0.3543302162010563  0.771143682496607  1.0000
  C   C66       1.0  0.8309318265822512  0.27848703448180606  0.7954913212066899  1.0000
  C   C67       1.0  0.4677144885833329  0.7703119833049146  0.21771628992480882  1.0000
  C   C68       1.0  0.8463173579564582  0.18626683612860265  0.7685819462896363  1.0000
  C   C69       1.0  0.8615670100528022  0.29441120472579035  0.8443547081970877  1.0000
  C   C70       1.0  0.7696293246059157  0.1465330124057402  0.6202545267312586  1.0000
  C   C71       1.0  0.4442465347453534  0.2568639647585869  0.6368952626733275  1.0000
  C   C72       1.0  0.4384879061636298  0.27927577774578083  0.6857416611769054  1.0000
  C   C73       1.0  0.4251190693267474  0.32043252658977656  0.7854235483132612  1.0000
  C   C74       1.0  0.5030491650730936  0.4249975445311662  0.753762375742177  1.0000
  C   C75       1.0  0.5093364960963598  0.4053095751875235  0.706033890190497  1.0000
  C   C76       1.0  0.2684288617844857  0.7267142197154686  0.22389680848217353  1.0000
  C   C77       1.0  0.41442518975348713  0.3401511556628378  0.8342177492422564  1.0000
  C   C78       1.0  0.39574404207663594  0.8184927192431671  0.2498419234851426  1.0000
  C   C79       1.0  0.3315885465650865  0.23741962520580281  0.8634245753471533  1.0000
  C   C80       1.0  0.2918538023624606  0.0289952444546131  0.6480885310540216  1.0000
  C   C81       1.0  0.2865079442052831  0.0466870828990693  0.6974917379035475  1.0000
  C   C82       1.0  0.36010331660510525  0.17347129983958354  0.7165457272771789  1.0000
  C   C83       1.0  0.21263036360450357  0.9418100035309038  0.7291246235239157  1.0000
  C   C84       1.0  0.20774039140672326  0.9590222612906915  0.7775865724634414  1.0000
  C   C85       1.0  0.2746683045174835  0.08775742144825932  0.7971961881892824  1.0000
  C   C86       1.0  0.3537248753690817  0.1933828798628454  0.7662563597096579  1.0000
  C   C87       1.0  0.26272187252637735  0.11252633464108189  0.8451402778811286  1.0000
  C   C88       1.0  0.31043836119003027  0.6328529955434945  0.0977321453330759  1.0000
  C   C89       1.0  0.32451780069171576  0.6566926139199012  0.1404372477704072  1.0000
  C   C90       1.0  0.3707915377363591  0.1327493948402392  0.6183431654259763  1.0000
  C   C91       1.0  0.9607870694817322  0.24338523820220817  0.0546775121400245  1.0000
  C   C92       1.0  0.2868712345470498  0.5791635850577067  0.0504985456536033  1.0000
  C   C93       1.0  0.3135074066707233  0.25288199535616945  0.050322002064739  1.0000
  C   C94       1.0  0.9502944509169993  0.24119288390539143  0.916858919901216  1.0000
  C   C95       1.0  0.28514839793719904  0.5792244384565565  0.9161926161599752  1.0000
  C   C96       1.0  0.30598835604325814  0.26032959390733623  0.9131868190872083  1.0000
  N   N1        1.0  0.14151608396272045  0.6701728038858478  0.6110696143838227  1.0000
  N   N2        1.0  0.5341656790231254  0.6964892290235696  0.8694388992698165  1.0000
  N   N3        1.0  0.9232963933741799  0.9254839624229518  0.7884996138325563  1.0000
  N   N4        1.0  0.1339713517325052  0.8557898663392792  0.8078664571250229  1.0000
  O   O1        1.0  0.7132658384173141  0.19974002238537025  0.4478777098497559  1.0000
  O   O2        1.0  0.3680677042755178  0.5514188248668078  0.0344174726516542  1.0000
  O   O3        1.0  0.3934320965334095  0.3559667415541058  0.0276820332689169  1.0000
  O   O4        1.0  0.48994275135260074  0.1926823885075422  0.44184121929311  1.0000
  O   O5        1.0  0.20651633087899057  0.17363062060584167  0.9330986686002731  1.0000
  O   O6        1.0  0.9811495940331271  0.1639202342803685  0.9345533891631348  1.0000
  O   O7        1.0  0.9637746554625721  0.34236864213099244  0.9383223189121069  1.0000
  O   O8        1.0  0.17609424370667162  0.5454400396691454  0.9339215641657644  1.0000
  O   O9        1.0  0.3716111400164905  0.571823190543647  0.9407028217994479  1.0000
  O   O10       1.0  0.3847957032485425  0.3697725092432692  0.9322080642112524  1.0000
  O   O11       1.0  0.1746177662331547  0.3415110105414101  0.9844608241913804  1.0000
  O   O12       1.0  0.3068099076321006  0.7921558083181214  0.5394850100772786  1.0000
  O   O13       1.0  0.29620275601326534  0.015014278184452202  0.4534777292968712  1.0000
  O   O14       1.0  0.32290633179070494  0.8201752283778494  0.445299823637761  1.0000
  O   O15       1.0  0.5047874375893215  0.8126931072622128  0.45196816945275486  1.0000
  O   O16       1.0  0.71963385121024  0.014137019176665403  0.45484008652572777  1.0000
  O   O17       1.0  0.70032324634456  0.2021731908919406  0.5501281869417909  1.0000
  O   O18       1.0  0.47932013657733563  0.19739481675939174  0.5446111034517926  1.0000
  O   O19       1.0  0.30505739983642144  0.9993945891163991  0.5494418818968825  1.0000
  O   O20       1.0  0.4995575877506013  0.8122910034977623  0.5475161607793737  1.0000
  O   O21       1.0  0.7103441016197749  0.019149100437019204  0.5498026343835747  1.0000
  O   O22       1.0  0.5123479351831149  0.023520597761525205  0.4978302072277073  1.0000
  O   O23       1.0  0.20603041517393453  0.16836992673066223  0.0353418139602582  1.0000
  O   O24       1.0  0.9838652095697427  0.1610508610524235  0.0369960072169704  1.0000
  O   O25       1.0  0.9768649724379374  0.3468147319095465  0.0339578874276683  1.0000
  O   O26       1.0  0.18491877298829007  0.5569428722770129  0.029345624077052396  1.0000
  O   O27       1.0  0.6796794648247582  0.3762831513560343  0.4966871032657991  1.0000
  O   O28       1.0  0.010932018353273001  0.9888194044818662  0.9814109245920477  1.0000
