data_image0
_chemical_formula_structural       V8Cu6H8C8N12O24
_chemical_formula_sum              "V8 Cu6 H8 C8 N12 O24"
_cell_length_a       8.841944354468353
_cell_length_b       8.89825524678357
_cell_length_c       11.4236730731713
_cell_angle_alpha    111.90357144535722
_cell_angle_beta     89.99861239429245
_cell_angle_gamma    90.00764645494132

_space_group_name_H-M_alt    "P 1"
_space_group_IT_number       1

loop_
  _space_group_symop_operation_xyz
  'x, y, z'

loop_
  _atom_site_type_symbol
  _atom_site_label
  _atom_site_symmetry_multiplicity
  _atom_site_fract_x
  _atom_site_fract_y
  _atom_site_fract_z
  _atom_site_occupancy
  V   V1        1.0  0.6807139647692467  0.1978226160056593  0.018611102903648195  1.0000
  V   V2        1.0  0.18062146192660578  0.30215065979165706  0.48161195758005704  1.0000
  V   V3        1.0  0.3190287780982146  0.8018552750754822  0.9814707133161992  1.0000
  V   V4        1.0  0.8192706010057975  0.6980420334096351  0.5186640360157568  1.0000
  V   V5        1.0  0.8474676943094082  0.08507196058295818  0.7340717315339874  1.0000
  V   V6        1.0  0.3471887568952212  0.41475996717144886  0.7661812003482569  1.0000
  V   V7        1.0  0.1523949637220454  0.9150843568309242  0.2660168704725052  1.0000
  V   V8        1.0  0.6524714140875005  0.5848138085513099  0.23415574657403232  1.0000
  Cu  Cu1       1.0  5.20237792614e-05  6.79044700505e-05  0.00036549692782730006  1.0000
  Cu  Cu2       1.0  0.49999410479686895  0.5001483838529666  0.4999080065492337  1.0000
  Cu  Cu3       1.0  0.7087295486611609  0.8800199697281316  0.1148305277051875  1.0000
  Cu  Cu4       1.0  0.20934949180129786  0.6198971299746674  0.384970084174185  1.0000
  Cu  Cu5       1.0  0.2908231848003878  0.1195234251116375  0.8850476526601697  1.0000
  Cu  Cu6       1.0  0.7912336039263436  0.3802858024134609  0.6147139400103186  1.0000
  H   H1        1.0  0.6810473643880285  0.5103618833761344  0.8971857340784909  1.0000
  H   H2        1.0  0.18078000851593146  0.9892369143694565  0.6022881053653961  1.0000
  H   H3        1.0  0.3195967465119551  0.48883260843389553  0.10190304489732678  1.0000
  H   H4        1.0  0.8188632285850374  0.010664973182848297  0.39747623715644664  1.0000
  H   H5        1.0  0.035656950805382295  0.6821330903593362  0.7338414881096328  1.0000
  H   H6        1.0  0.5352830955524296  0.8183703436419734  0.7662743426665345  1.0000
  H   H7        1.0  0.9653175121056491  0.31902264755684945  0.26681927586049886  1.0000
  H   H8        1.0  0.4645806955048428  0.1817265445486242  0.2334153333221423  1.0000
  C   C1        1.0  0.7713674897900374  0.5838065985360784  0.8829597478190082  1.0000
  C   C2        1.0  0.27117354728915194  0.9161273791344228  0.6168127926786227  1.0000
  C   C3        1.0  0.2292325337360879  0.4158046362232781  0.11661861595688798  1.0000
  C   C4        1.0  0.7286088141779316  0.08401556352779241  0.3830504552107783  1.0000
  C   C5        1.0  0.9524806737950651  0.6705472908549763  0.7995063928083114  1.0000
  C   C6        1.0  0.4522352589041033  0.8298983709087864  0.7005469610565811  1.0000
  C   C7        1.0  0.04819518229432159  0.33007785203705703  0.2007796574444356  1.0000
  C   C8        1.0  0.5476161044276325  0.1704226127590189  0.299279588880367  1.0000
  N   N1        1.0  0.8142124925186492  0.7259965019366491  0.9673866251876647  1.0000
  N   N2        1.0  0.3144419687774942  0.7741241215645402  0.5324419245946075  1.0000
  N   N3        1.0  0.18581186607574546  0.2736910609077299  0.03250979200264227  1.0000
  N   N4        1.0  0.6857147645717204  0.22628406931197279  0.46728827633619835  1.0000
  N   N5        1.0  0.9288648362159293  0.7808264947851243  0.9145390202085296  1.0000
  N   N6        1.0  0.42903446747115476  0.7195625122948001  0.5854694420469003  1.0000
  N   N7        1.0  0.0712590768114012  0.21938923972527388  0.08579706184879402  1.0000
  N   N8        1.0  0.5711652488614618  0.28093046004028827  0.4142398654468523  1.0000
  N   N9        1.0  0.8547520542604446  0.5456591289033739  0.77598438678708  1.0000
  N   N10       1.0  0.3542263654456903  0.9544357817216491  0.7239619722325584  1.0000
  N   N11       1.0  0.14626646308398253  0.45451296432623417  0.2238479246480551  1.0000
  N   N12       1.0  0.6453286614064311  0.04559573713200389  0.27600459571132774  1.0000
  O   O1        1.0  0.7153279305889342  0.17670309232646994  0.859850750094033  1.0000
  O   O2        1.0  0.21496471957362218  0.32311959901799975  0.640456326026083  1.0000
  O   O3        1.0  0.2848615844167526  0.823579247359511  0.14041451450363235  1.0000
  O   O4        1.0  0.7847214742511069  0.6766031476104927  0.3598503607391735  1.0000
  O   O5        1.0  0.7292217729514477  0.3956600973494132  0.12420553422026609  1.0000
  O   O6        1.0  0.22919410815698874  0.104280173559367  0.376066526997576  1.0000
  O   O7        1.0  0.27050399936299396  0.6040069623838775  0.876221535309462  1.0000
  O   O8        1.0  0.7707612868578123  0.8958361830979128  0.6240297249578292  1.0000
  O   O9        1.0  0.7840044804901751  0.053013153424593895  0.0560418418693942  1.0000
  O   O10       1.0  0.28393256626767277  0.44703187566583574  0.4443208667187406  1.0000
  O   O11       1.0  0.21592035693448247  0.9467713244753072  0.9439903983691736  1.0000
  O   O12       1.0  0.7158848520036116  0.5531911251382978  0.5561188724646584  1.0000
  O   O13       1.0  0.5018359030419361  0.16748586809998764  0.032411850655762506  1.0000
  O   O14       1.0  0.0017671077247883  0.3322012845737206  0.4673498918565002  1.0000
  O   O15       1.0  0.49789210331807254  0.8315620941287705  0.9671123295504741  1.0000
  O   O16       1.0  0.9981634084165023  0.6679101870401496  0.5325576110866735  1.0000
  O   O17       1.0  0.8811631781631633  0.2082864328064105  0.65628073275645  1.0000
  O   O18       1.0  0.3813199792380715  0.2914558604207471  0.8438693500852423  1.0000
  O   O19       1.0  0.1183138064627727  0.7916493791767749  0.3435976350571294  1.0000
  O   O20       1.0  0.6184204848011134  0.7080149586936315  0.1564088028514448  1.0000
  O   O21       1.0  0.9937945287839295  0.9486152125346692  0.2047739111719196  1.0000
  O   O22       1.0  0.49376106437375705  0.5513124428004873  0.2952343554437747  1.0000
  O   O23       1.0  0.006171059674386499  0.0516791516014337  0.7951420721277034  1.0000
  O   O24       1.0  0.5056446526278789  0.44842598300886044  0.7048466646882829  1.0000
