data_image0
_chemical_formula_structural       Zr6H16C72O32F24
_chemical_formula_sum              "Zr6 H16 C72 O32 F24"
_cell_length_a       17.089035384394823
_cell_length_b       17.155955407058315
_cell_length_c       17.037560687392848
_cell_angle_alpha    59.969015340099354
_cell_angle_beta     60.35915973957964
_cell_angle_gamma    59.67159530428786

_space_group_name_H-M_alt    "P 1"
_space_group_IT_number       1

loop_
  _space_group_symop_operation_xyz
  'x, y, z'

loop_
  _atom_site_type_symbol
  _atom_site_label
  _atom_site_symmetry_multiplicity
  _atom_site_fract_x
  _atom_site_fract_y
  _atom_site_fract_z
  _atom_site_occupancy
  Zr  Zr1       1.0  0.8956940615937016  0.39568988781222453  0.6043084170357176  1.0000
  Zr  Zr2       1.0  0.10430088255321829  0.6043049590957565  0.39569563921031653  1.0000
  Zr  Zr3       1.0  0.10248491215375564  0.3975134286647873  0.6024898099338287  1.0000
  Zr  Zr4       1.0  0.8975087358137586  0.6024848090143636  0.3975142886091448  1.0000
  Zr  Zr5       1.0  0.8964656293279277  0.6035256254148821  0.6035313403702958  1.0000
  Zr  Zr6       1.0  0.10352563562130261  0.39646555273849776  0.39647506840586283  1.0000
  H   H1        1.0  0.9193000395608023  0.4184091305604554  0.7443935430237473  1.0000
  H   H2        1.0  0.91788845280081  0.7443887500898044  0.41841033716841736  1.0000
  H   H3        1.0  0.24438563220080303  0.4178939485665652  0.4193053920299974  1.0000
  H   H4        1.0  0.9184084259532809  0.419299008428084  0.41789781412347776  1.0000
  H   H5        1.0  0.6561509169210568  0.6393220612321926  0.8402224378663307  1.0000
  H   H6        1.0  0.3402194295743754  0.3643032424416717  0.15615419944110437  1.0000
  H   H7        1.0  0.13931998482047456  0.15615083831683313  0.36430260301878553  1.0000
  H   H8        1.0  0.8642944884191338  0.8402249716104464  0.6393188625073877  1.0000
  H   H9        1.0  0.6572617450083982  0.8397509188463064  0.36329365126484703  1.0000
  H   H10       1.0  0.33974510295454496  0.15725578174532034  0.6397065560291396  1.0000
  H   H11       1.0  0.8632987409121852  0.6396986638459552  0.1572566952880263  1.0000
  H   H12       1.0  0.13969987259106637  0.3632962976570155  0.8397479795221799  1.0000
  H   H13       1.0  0.13880932651202466  0.15633943865697836  0.8404358462604408  1.0000
  H   H14       1.0  0.8644098076912031  0.8404403718506547  0.15634765088800148  1.0000
  H   H15       1.0  0.6563440338677395  0.6388041626709227  0.36441507426626163  1.0000
  H   H16       1.0  0.34043751045311416  0.36441298162424124  0.6388014709214359  1.0000
  C   C1        1.0  0.7340714372186524  0.5063747444643243  0.7601834819811515  1.0000
  C   C2        1.0  0.9993596732390062  0.7601840449583007  0.5063745348281897  1.0000
  C   C3        1.0  0.2601811038116395  0.4993637356625058  0.23407602476642347  1.0000
  C   C4        1.0  0.006376583655196615  0.23407318680159514  0.49936335381287483  1.0000
  C   C5        1.0  0.005309997166982603  0.23464127517134858  0.7603325315307856  1.0000
  C   C6        1.0  0.7346421001201192  0.5053036303695182  0.49972151232359596  1.0000
  C   C7        1.0  0.9997097630224091  0.7603319699729809  0.23464750508750837  1.0000
  C   C8        1.0  0.2603306095504932  0.4997153749529844  0.5053071506410944  1.0000
  C   C9        1.0  0.00562505827929293  0.4987908447878338  0.7606302357018038  1.0000
  C   C10       1.0  0.2606209977571723  0.23495020310227235  0.505635961585348  1.0000
  C   C11       1.0  0.9987873217615898  0.5056284460758605  0.23495487015854624  1.0000
  C   C12       1.0  0.7349488667207213  0.7606207736255611  0.49879053975625  1.0000
  C   C13       1.0  0.5962851069957156  0.45124068680087975  0.9004393356861087  1.0000
  C   C14       1.0  0.6165972459644352  0.5899540426673583  0.8800289392607681  1.0000
  C   C15       1.0  0.5384848091765521  0.6020135267624767  0.959528784603215  1.0000
  C   C16       1.0  0.48329339947485284  0.5403712940439649  0.014396171705911226  1.0000
  C   C17       1.0  0.40043601109945115  0.5520353486955403  0.09628509790893246  1.0000
  C   C18       1.0  0.3800277249512193  0.41341676742771943  0.11660088929154715  1.0000
  C   C19       1.0  0.459522897188414  0.3999763246547731  0.0384849134783564  1.0000
  C   C20       1.0  0.5143918684567765  0.46193960177269133  0.9832963293924452  1.0000
  C   C21       1.0  0.6475020662433337  0.5138251043721241  0.8480300552279728  1.0000
  C   C22       1.0  0.34802670369758454  0.4906403841215764  0.14750791493523255  1.0000
  C   C23       1.0  0.9512348078785209  0.09628726680509928  0.5520316417168657  1.0000
  C   C24       1.0  0.08995273710255702  0.11659832929829153  0.41341714231940324  1.0000
  C   C25       1.0  0.10200929215630343  0.03848559479030915  0.3999729830919562  1.0000
  C   C26       1.0  0.04036406985917995  0.9832987954720808  0.4619381546401797  1.0000
  C   C27       1.0  0.052023368973188155  0.900442895291512  0.451236698738441  1.0000
  C   C28       1.0  0.9134113236570655  0.880031476954557  0.5899510023477175  1.0000
  C   C29       1.0  0.8999675088469415  0.9595276812546132  0.6020133013801965  1.0000
  C   C30       1.0  0.9619323789077258  0.014396504798440918  0.5403704736250035  1.0000
  C   C31       1.0  0.013820970269790676  0.1475040650256645  0.4906382952315695  1.0000
  C   C32       1.0  0.9906312017787611  0.8480323942020719  0.5138212926448561  1.0000
  C   C33       1.0  0.5968632386876817  0.9003785324205044  0.5521933382285553  1.0000
  C   C34       1.0  0.6171401059330182  0.8800581025450498  0.4124603533612401  1.0000
  C   C35       1.0  0.538458687655954  0.9597709760115907  0.3989517904057108  1.0000
  C   C36       1.0  0.4834191432497121  0.014580571037235835  0.46146972001769626  1.0000
  C   C37       1.0  0.40037705318399464  0.0968628009054131  0.4505708063606236  1.0000
  C   C38       1.0  0.3800522381068702  0.117134096791716  0.5903539143077268  1.0000
  C   C39       1.0  0.4597673443682453  0.038453775286839825  0.6028239788458195  1.0000
  C   C40       1.0  0.5145805150620505  0.9834166173118959  0.5405350901084843  1.0000
  C   C41       1.0  0.6480433115297259  0.8482752525185833  0.49016775790470757  1.0000
  C   C42       1.0  0.348272733244201  0.14804301343417586  0.5135198223898101  1.0000
  C   C43       1.0  0.05219216157474456  0.4505667027015221  0.09686292335416617  1.0000
  C   C44       1.0  0.9124627792057326  0.5903456544737865  0.11713925843463352  1.0000
  C   C45       1.0  0.8989530973449574  0.6028227359140745  0.03845788006549367  1.0000
  C   C46       1.0  0.9614652466284287  0.540531237049066  0.9834225525017287  1.0000
  C   C47       1.0  0.9505603536646915  0.5521845145232052  0.9003860231910822  1.0000
  C   C48       1.0  0.09034491177341397  0.41246074120294196  0.8800541363204105  1.0000
  C   C49       1.0  0.10282492959787967  0.3989539910216777  0.959766354943895  1.0000
  C   C50       1.0  0.04053477405635424  0.4614674820201117  0.014579768892311076  1.0000
  C   C51       1.0  0.9901684550271455  0.5135116878907909  0.14804537068908982  1.0000
  C   C52       1.0  0.01350713340234937  0.4901637706122484  0.8482801355207599  1.0000
  C   C53       1.0  0.9503909348944574  0.09684926125142844  0.9002093019043329  1.0000
  C   C54       1.0  0.08961276981271749  0.11662276344238623  0.8803611140723787  1.0000
  C   C55       1.0  0.10227808485174723  0.038157920053549704  0.9599999536493584  1.0000
  C   C56       1.0  0.04050547867728921  0.9832163161592079  0.014656563564685138  1.0000
  C   C57       1.0  0.05255041766093891  0.9002046586958768  0.096852837156213  1.0000
  C   C58       1.0  0.9134016564241634  0.8803592262177277  0.11662971420923889  1.0000
  C   C59       1.0  0.8995624636039993  0.9599981055091504  0.03816356770204957  1.0000
  C   C60       1.0  0.9616234053233371  0.014651561688275196  0.983222521008372  1.0000
  C   C61       1.0  0.013002173217380366  0.14785146184375006  0.8481600766262077  1.0000
  C   C62       1.0  0.9909841069472025  0.8481602436019108  0.14785536322872156  1.0000
  C   C63       1.0  0.5968476781274957  0.4503914804379719  0.5525512402690964  1.0000
  C   C64       1.0  0.6166254595214724  0.5896096116740497  0.41340430235092646  1.0000
  C   C65       1.0  0.5381663868778618  0.6022704784611506  0.39955739170968496  1.0000
  C   C66       1.0  0.4832230953487767  0.5405025805681377  0.46161696282561576  1.0000
  C   C67       1.0  0.40020368348353236  0.5525506321417595  0.450391266859313  1.0000
  C   C68       1.0  0.38035955103464403  0.41340410750280654  0.5896066929396611  1.0000
  C   C69       1.0  0.45999766927149477  0.399565053488189  0.6022712810889458  1.0000
  C   C70       1.0  0.5146529761188816  0.46162023999598745  0.5405009730376021  1.0000
  C   C71       1.0  0.6478485847080507  0.5129983507559858  0.49098877914955347  1.0000
  C   C72       1.0  0.3481584414069517  0.4909889360684334  0.512996134117074  1.0000
  O   O1        1.0  0.7663001116265775  0.43906239303989775  0.72834333838297  1.0000
  O   O2        1.0  0.0662878884792163  0.728340451367835  0.43906304409411223  1.0000
  O   O3        1.0  0.22833432579309923  0.5662919062443166  0.26630384444840166  1.0000
  O   O4        1.0  0.9390643394266149  0.26629761020259957  0.5662955572215225  1.0000
  O   O5        1.0  0.07033835758957009  0.27070691739554315  0.7244065657909644  1.0000
  O   O6        1.0  0.7707025036487065  0.5703392274038422  0.43455120625004173  1.0000
  O   O7        1.0  0.9345414150772979  0.7244081700004515  0.27070907096337044  1.0000
  O   O8        1.0  0.2244037640392664  0.43455028956909547  0.5703387410428036  1.0000
  O   O9        1.0  0.93765561809078  0.5660746192712695  0.7289950470096472  1.0000
  O   O10       1.0  0.22898712378903946  0.2672622063526833  0.43766923561489085  1.0000
  O   O11       1.0  0.06607580085566404  0.43765785060217877  0.26727312385889945  1.0000
  O   O12       1.0  0.767266618018141  0.7289820532988998  0.5660820324813471  1.0000
  O   O13       1.0  0.22440127072178476  0.27153319557964284  0.5708478520798155  1.0000
  O   O14       1.0  0.9332132762513581  0.5708376629689057  0.27153817097820365  1.0000
  O   O15       1.0  0.7715250024260952  0.7244035756753888  0.4332180102019548  1.0000
  O   O16       1.0  0.07083745337116189  0.4332176383880579  0.7244088573110689  1.0000
  O   O17       1.0  0.9374554375654612  0.267414148306422  0.7281507297403492  1.0000
  O   O18       1.0  0.22814934135113432  0.5669743638306031  0.43744898465835286  1.0000
  O   O19       1.0  0.06696824312813744  0.7281509987319409  0.26742565443758787  1.0000
  O   O20       1.0  0.7674176078581566  0.4374486074555223  0.5669792731309613  1.0000
  O   O21       1.0  0.07139287412531559  0.2705574103502428  0.43424432277717523  1.0000
  O   O22       1.0  0.7705556805192303  0.5713929578783167  0.7238004320228413  1.0000
  O   O23       1.0  0.934238645544504  0.7238013217167563  0.5713928968125684  1.0000
  O   O24       1.0  0.22380124476939048  0.4342412975629699  0.2705642788318555  1.0000
  O   O25       1.0  0.941709028309191  0.4412604194559223  0.4420902831286355  1.0000
  O   O26       1.0  0.17493172301561086  0.44208529974699223  0.4412680218809725  1.0000
  O   O27       1.0  0.9420802796670673  0.6749331485741551  0.4417134833661081  1.0000
  O   O28       1.0  0.9412642641979618  0.44170883209996253  0.6749371423381872  1.0000
  O   O29       1.0  0.042858046686603916  0.5437516896001282  0.5420052388504999  1.0000
  O   O30       1.0  0.8713828974947901  0.5420007670846521  0.5437526171829674  1.0000
  O   O31       1.0  0.043748279275625586  0.5428586179723071  0.3713855832980144  1.0000
  O   O32       1.0  0.04200523071667574  0.37138293146628587  0.542862985469192  1.0000
  F   F1        1.0  0.48583816055422346  0.3244004389617815  0.013588337270192563  1.0000
  F   F2        1.0  0.6235554405224947  0.37750282044635947  0.8732293125004631  1.0000
  F   F3        1.0  0.51359618315054  0.6761640042059582  0.98584877325969  1.0000
  F   F4        1.0  0.37321737158480073  0.6257164527273035  0.12355578048999397  1.0000
  F   F5        1.0  0.8243900148149946  0.985843923104305  0.6761681535459728  1.0000
  F   F6        1.0  0.8774981441844858  0.12355897525134216  0.6257121442075756  1.0000
  F   F7        1.0  0.1761597792138829  0.013593232779186332  0.32439375283928484  1.0000
  F   F8        1.0  0.12570247756939767  0.8732291128139595  0.3775002438192344  1.0000
  F   F9        1.0  0.4862925472867942  0.013034891467455663  0.6776394896066051  1.0000
  F   F10       1.0  0.6245638738620796  0.872689283167638  0.6264216911702007  1.0000
  F   F11       1.0  0.5130453175719649  0.9863016710552162  0.32302657269388385  1.0000
  F   F12       1.0  0.37269217516416836  0.12456429500842614  0.3763272583187743  1.0000
  F   F13       1.0  0.17763968328501537  0.323037310648715  0.986289422542832  1.0000
  F   F14       1.0  0.1264211936635462  0.3763221837766508  0.12456486331468845  1.0000
  F   F15       1.0  0.8230268532336711  0.6776314518422311  0.013044615586608065  1.0000
  F   F16       1.0  0.8763097223440257  0.6264121239630215  0.872704084190076  1.0000
  F   F17       1.0  0.8236297052589587  0.9866045185438072  0.012847718956102493  1.0000
  F   F18       1.0  0.8763556232863936  0.12453586553315442  0.8725402269461283  1.0000
  F   F19       1.0  0.17692096295169799  0.01284104737941044  0.9866057125450709  1.0000
  F   F20       1.0  0.12656808922369597  0.872530814402296  0.12453969587803472  1.0000
  F   F21       1.0  0.48660409839874325  0.32363015515301197  0.6769179143639833  1.0000
  F   F22       1.0  0.6245336707732108  0.3763580940787606  0.6265703992788758  1.0000
  F   F23       1.0  0.512855884017199  0.6769113290992267  0.3236186039072776  1.0000
  F   F24       1.0  0.3725328420246258  0.6265734356777912  0.37635822240044087  1.0000
