data_image0
_chemical_formula_structural       Cu12H84W4C108S12Br4N28O4
_chemical_formula_sum              "Cu12 H84 W4 C108 S12 Br4 N28 O4"
_cell_length_a       9.258545646189345
_cell_length_b       19.361844604306132
_cell_length_c       23.853321291631897
_cell_angle_alpha    85.73542570408641
_cell_angle_beta     78.79459895866637
_cell_angle_gamma    76.15650910035345

_space_group_name_H-M_alt    "P 1"
_space_group_IT_number       1

loop_
  _space_group_symop_operation_xyz
  'x, y, z'

loop_
  _atom_site_type_symbol
  _atom_site_label
  _atom_site_symmetry_multiplicity
  _atom_site_fract_x
  _atom_site_fract_y
  _atom_site_fract_z
  _atom_site_occupancy
  Cu  Cu1       1.0  0.1482389010254225  0.23887708487171722  0.45708896418975786  1.0000
  Cu  Cu2       1.0  0.34448985122249814  0.2609053314549356  0.042783509984964496  1.0000
  Cu  Cu3       1.0  0.8517581250935397  0.7611228324430214  0.5429134759085483  1.0000
  Cu  Cu4       1.0  0.6555172870446457  0.7390978523306302  0.9572148539720896  1.0000
  Cu  Cu5       1.0  0.13464820423876492  0.09625563759162498  0.3724691718540497  1.0000
  Cu  Cu6       1.0  0.10342063064170065  0.4036370756940214  0.12740324393628547  1.0000
  Cu  Cu7       1.0  0.8653448869557328  0.903743255717934  0.6275311089830493  1.0000
  Cu  Cu8       1.0  0.8965745305279073  0.5963618561569957  0.8725949392700156  1.0000
  Cu  Cu9       1.0  0.04550338952073949  0.26965932319633606  0.3184324975566283  1.0000
  Cu  Cu10      1.0  0.1334633634079908  0.2301452620159949  0.18145762880855182  1.0000
  Cu  Cu11      1.0  0.9544891384627973  0.7303368540926412  0.6815708331786537  1.0000
  Cu  Cu12      1.0  0.8665395240444628  0.7698505095322543  0.8185388229436794  1.0000
  H   H1        1.0  0.0022413727780733477  0.02817590823354981  0.8071004656759936  1.0000
  H   H2        1.0  0.33757135385393894  0.4721238939228056  0.6929077467352227  1.0000
  H   H3        1.0  0.9977647786896994  0.971825150271151  0.19289775853447816  1.0000
  H   H4        1.0  0.6624198013381388  0.5278807676064261  0.30709707253823376  1.0000
  H   H5        1.0  0.06693992087235777  0.1385291683637675  0.761659424586753  1.0000
  H   H6        1.0  0.46747710852134394  0.36185261332052926  0.7383659368044418  1.0000
  H   H7        1.0  0.9330525709527111  0.861473472773639  0.2383395543300891  1.0000
  H   H8        1.0  0.5325169136627182  0.6381520605044526  0.26163820793001236  1.0000
  H   H9        1.0  0.49990393497220276  0.016248750905944596  0.6791409999629321  1.0000
  H   H10       1.0  0.6956503152866423  0.4843240598921098  0.8206394817101877  1.0000
  H   H11       1.0  0.5000887906587725  0.9837511479651724  0.3208624519438884  1.0000
  H   H12       1.0  0.3043656791421442  0.5156770586247034  0.17935546030479088  1.0000
  H   H13       1.0  0.43098674162961736  0.9056731165863141  0.7219710476050023  1.0000
  H   H14       1.0  0.5588144979340731  0.5948291995792088  0.7777512197312999  1.0000
  H   H15       1.0  0.5690134066670254  0.09432471086817878  0.2780293196292475  1.0000
  H   H16       1.0  0.44120916523931425  0.4051745823729647  0.2222435103261943  1.0000
  H   H17       1.0  0.9363269827492716  0.9206533948817248  0.7810934588004627  1.0000
  H   H18       1.0  0.13808207135248585  0.5795987713329821  0.7189217313428455  1.0000
  H   H19       1.0  0.0636740746705087  0.07934333441792059  0.21890876343509544  1.0000
  H   H20       1.0  0.8619266063803938  0.42039960813217175  0.28107752739167313  1.0000
  H   H21       1.0  0.21411931741172938  0.7302052609747561  0.8342327081554257  1.0000
  H   H22       1.0  0.2780595176999657  0.7701088440476054  0.6655901676775711  1.0000
  H   H23       1.0  0.7858906350078172  0.26979101477399325  0.16576523451068675  1.0000
  H   H24       1.0  0.7219232494068565  0.22989640372768594  0.3344117252068485  1.0000
  H   H25       1.0  0.9018102934897739  0.15598564740543708  0.49406785715493107  1.0000
  H   H26       1.0  0.051905379996775074  0.3439853699873153  0.006002550933992303  1.0000
  H   H27       1.0  0.09818585447921192  0.8440154097264384  0.5059304657979522  1.0000
  H   H28       1.0  0.9480963387387651  0.6560076948090624  0.9939964489336075  1.0000
  H   H29       1.0  0.8140331152726149  0.09441833502324927  0.3404321278730435  1.0000
  H   H30       1.0  0.7484493863606406  0.40545935171753195  0.15962225754188347  1.0000
  H   H31       1.0  0.1859557487020567  0.9055778562156931  0.6595704543094597  1.0000
  H   H32       1.0  0.25154732041122724  0.5945385143722104  0.8403760203044467  1.0000
  H   H33       1.0  0.5536500692979162  0.1065922797158834  0.42281923094009227  1.0000
  H   H34       1.0  0.5829095934126229  0.39330360007816967  0.07716238558620599  1.0000
  H   H35       1.0  0.4463382825769392  0.8934102843386139  0.5771839432383385  1.0000
  H   H36       1.0  0.4170965300522128  0.606686841197117  0.9228346298656686  1.0000
  H   H37       1.0  0.48010384715335186  0.06431091137705638  0.5105739273581376  1.0000
  H   H38       1.0  0.5551555111603439  0.4358848760019282  0.9894420249622439  1.0000
  H   H39       1.0  0.519894109468524  0.9356885478931286  0.4894244964264516  1.0000
  H   H40       1.0  0.4448574469225337  0.5641044747330067  0.010556417721915129  1.0000
  H   H41       1.0  0.696814184711265  0.21907596838418897  0.5591341807838501  1.0000
  H   H42       1.0  0.9749864036779959  0.2808719454713611  0.9408132174228993  1.0000
  H   H43       1.0  0.30317533588050366  0.7809293024221801  0.44086644527921226  1.0000
  H   H44       1.0  0.0250198053280215  0.7191232892952044  0.059183487290979976  1.0000
  H   H45       1.0  0.5353558024663415  0.2236088762355236  0.6549882855152445  1.0000
  H   H46       1.0  0.914076432391994  0.27657708932409264  0.8449343005844053  1.0000
  H   H47       1.0  0.46463885006031846  0.7763920914239004  0.34501489899535887  1.0000
  H   H48       1.0  0.08592722551225768  0.7234245213788668  0.1550628316120992  1.0000
  H   H49       1.0  0.31061935277904973  0.0734888148346258  0.604436837538884  1.0000
  H   H50       1.0  0.488965167244388  0.4270008962784786  0.8954990502151217  1.0000
  H   H51       1.0  0.6893789197330524  0.9265170326676964  0.39556133918932074  1.0000
  H   H52       1.0  0.5110466405311201  0.5729969633820031  0.1044995401720712  1.0000
  H   H53       1.0  0.10426119826046715  0.4831381439614049  0.9415125866160633  1.0000
  H   H54       1.0  0.02873196631904326  0.0169599003128056  0.5585992479460626  1.0000
  H   H55       1.0  0.8957348393306858  0.5168618165760464  0.05848750908148049  1.0000
  H   H56       1.0  0.9712587107166046  0.983040600127154  0.44140043027651626  1.0000
  H   H57       1.0  0.9759706286200046  0.4633756166791512  0.7844240353777251  1.0000
  H   H58       1.0  0.7237733845985732  0.0367359774109772  0.7157825917179818  1.0000
  H   H59       1.0  0.02402683633062724  0.5366206114470272  0.21557652318776369  1.0000
  H   H60       1.0  0.2762340123111287  0.9632607672114518  0.2842187832223857  1.0000
  H   H61       1.0  0.2600402174520232  0.35214582400558914  0.8980668482786737  1.0000
  H   H62       1.0  0.009996499976047388  0.14796477893259657  0.6020135657029825  1.0000
  H   H63       1.0  0.7399574124444545  0.6478562525440095  0.10193388894825967  1.0000
  H   H64       1.0  0.989995753635029  0.8520346974083848  0.3979839450155111  1.0000
  H   H65       1.0  0.12262175517124549  0.3886061653631855  0.7162658786085598  1.0000
  H   H66       1.0  0.7273413913976015  0.11178914255611966  0.7839657160152951  1.0000
  H   H67       1.0  0.8773821038373275  0.6113948299147721  0.28373578406784355  1.0000
  H   H68       1.0  0.27267627992648624  0.8882086413942787  0.21603697089108204  1.0000
  H   H69       1.0  0.26145250326941816  0.25868345924754976  0.8607023879445205  1.0000
  H   H70       1.0  0.880365069665679  0.24136033964239084  0.6392205537688227  1.0000
  H   H71       1.0  0.7385461382630757  0.7413170456860667  0.1392970270223302  1.0000
  H   H72       1.0  0.1196138746229496  0.758642812218575  0.36077961176390966  1.0000
  H   H73       1.0  0.34653499816687383  0.15440570319786667  0.8005094179117904  1.0000
  H   H74       1.0  0.8013835466929539  0.3457860843042225  0.6992200485073139  1.0000
  H   H75       1.0  0.6534680559598632  0.8455937482702323  0.19948941715608726  1.0000
  H   H76       1.0  0.1986003734008863  0.6542187301118075  0.3007764872282549  1.0000
  H   H77       1.0  0.2019061819215084  0.28231346874973434  0.6567415197128879  1.0000
  H   H78       1.0  0.6410936217659896  0.21821076195892172  0.843323580581085  1.0000
  H   H79       1.0  0.7980949593110157  0.7176902225447603  0.3432581871304946  1.0000
  H   H80       1.0  0.3589291859010688  0.7817886259072466  0.15667865998120328  1.0000
  H   H81       1.0  0.3854952117069178  0.8303982968810074  0.8055771437681114  1.0000
  H   H82       1.0  0.5212553735728496  0.670027924913782  0.6941739648616191  1.0000
  H   H83       1.0  0.6145086394366999  0.16960112834137675  0.19442311439154739  1.0000
  H   H84       1.0  0.47873906701431684  0.3299826636822018  0.3058267555550457  1.0000
  W   W1        1.0  0.2941094484432228  0.19718099734996028  0.3539917798542119  1.0000
  W   W2        1.0  0.3451476105672882  0.30262211346779105  0.14587561058376505  1.0000
  W   W3        1.0  0.7058807042195814  0.8028183987872807  0.6460100906391799  1.0000
  W   W4        1.0  0.654854311952214  0.6973784114698629  0.8541227103179236  1.0000
  C   C1        1.0  0.287827766646352  0.0853633176668041  0.7172669679064752  1.0000
  C   C2        1.0  0.5908537451119502  0.41511157312987007  0.7826178844924951  1.0000
  C   C3        1.0  0.7121753764784344  0.9146365902854328  0.28273596573176707  1.0000
  C   C4        1.0  0.40915618860746134  0.5848921380748636  0.21738072004284692  1.0000
  C   C5        1.0  0.11045980351453732  0.0255725598199206  0.778438523966386  1.0000
  C   C6        1.0  0.41460083437341666  0.47479623379104646  0.7215059231315165  1.0000
  C   C7        1.0  0.8895362960229393  0.97442748404211  0.22155704744294263  1.0000
  C   C8        1.0  0.5854066463490359  0.5252074728262385  0.27849293641667566  1.0000
  C   C9        1.0  0.14744741046236248  0.08764176923587289  0.7533356193769049  1.0000
  C   C10       1.0  0.48867971614600986  0.41277096358599846  0.7466405848558749  1.0000
  C   C11       1.0  0.8525524111088671  0.9123586754980407  0.2466670612996892  1.0000
  C   C12       1.0  0.5113158516403119  0.5872326444777158  0.25336365451860127  1.0000
  C   C13       1.0  0.39097657967374044  0.019289269551698896  0.7074064166548978  1.0000
  C   C14       1.0  0.618158633998924  0.48120436964538976  0.7923579560669438  1.0000
  C   C15       1.0  0.6090207810355751  0.9807096005391928  0.2925951145178017  1.0000
  C   C16       1.0  0.38186053717556223  0.5187994108401668  0.20763686449009094  1.0000
  C   C17       1.0  0.21265298674958927  0.9600136930537456  0.7670148253836188  1.0000
  C   C18       1.0  0.43977624640970764  0.5403762486986776  0.7328663588643207  1.0000
  C   C19       1.0  0.7873475834070195  0.039985712164607896  0.23298652684120913  1.0000
  C   C20       1.0  0.5602356530434989  0.45963014301221955  0.2671311206474413  1.0000
  C   C21       1.0  0.35342539659345135  0.9570344738165417  0.7317913804757834  1.0000
  C   C22       1.0  0.542487097586566  0.543433258457597  0.7679850585870083  1.0000
  C   C23       1.0  0.6465787581673654  0.04296386251970568  0.2682102309023762  1.0000
  C   C24       1.0  0.457519706090217  0.45657097255181617  0.23201421429565264  1.0000
  C   C25       1.0  0.03191079618156331  0.8824512379422701  0.7933906832068728  1.0000
  C   C26       1.0  0.20765615227541925  0.6178385353736144  0.7065737192048471  1.0000
  C   C27       1.0  0.9680922596736115  0.11754604502225867  0.2066103565151778  1.0000
  C   C28       1.0  0.7923481922678803  0.38216195248920565  0.29342660882810623  1.0000
  C   C29       1.0  0.1802791578964648  0.7848037666662363  0.8193915732021676  1.0000
  C   C30       1.0  0.28414526318472644  0.7155105686955135  0.6804570672012245  1.0000
  C   C31       1.0  0.8197230215371648  0.21519248761185142  0.18060755402865414  1.0000
  C   C32       1.0  0.715842026894173  0.2844947222086843  0.31954247303954725  1.0000
  C   C33       1.0  0.8447832242040506  0.14071037741866377  0.4629328449437151  1.0000
  C   C34       1.0  0.9483558039429028  0.35927121903214504  0.037102751727879  1.0000
  C   C35       1.0  0.15521500333342464  0.8592901198066651  0.5370669895492952  1.0000
  C   C36       1.0  0.05164898116050451  0.6407234111385447  0.962897899426437  1.0000
  C   C37       1.0  0.7941596095464618  0.10879582744654204  0.384769159573615  1.0000
  C   C38       1.0  0.787460376404198  0.3911647825700441  0.11527132128568238  1.0000
  C   C39       1.0  0.20583389737149846  0.8912009050677341  0.6152329063915116  1.0000
  C   C40       1.0  0.21254240680694667  0.6088336309429109  0.8847261030737669  1.0000
  C   C41       1.0  0.6653619611412368  0.11305690311243669  0.4251737022624907  1.0000
  C   C42       1.0  0.7034341964614798  0.3869029054902596  0.07484756587427198  1.0000
  C   C43       1.0  0.3346254366358397  0.8869414088199147  0.5748292746794376  1.0000
  C   C44       1.0  0.29657726445064764  0.6130885242757955  0.9251535337134127  1.0000
  C   C45       1.0  0.6005235511869674  0.14037652637083647  0.5289620151153966  1.0000
  C   C46       1.0  0.7699989518505104  0.35974167651777816  0.9710180441024929  1.0000
  C   C47       1.0  0.39947079772250094  0.8596255301747247  0.47103981617670576  1.0000
  C   C48       1.0  0.23001208720163657  0.6402481754844229  0.028982070494613807  1.0000
  C   C49       1.0  0.4914332877373654  0.09972030723352526  0.5419955957123931  1.0000
  C   C50       1.0  0.6334204373047999  0.40053889190490816  0.957971078924572  1.0000
  C   C51       1.0  0.5085663327295511  0.90028075292539  0.45800255448430244  1.0000
  C   C52       1.0  0.3665909830407728  0.5994530946468614  0.042028673636302485  1.0000
  C   C53       1.0  0.6139846687278095  0.18619022877058458  0.5693354203456947  1.0000
  C   C54       1.0  0.8695883027899928  0.31390528014075864  0.9306212314920825  1.0000
  C   C55       1.0  0.3860057204205492  0.8138145006666517  0.43066571369186574  1.0000
  C   C56       1.0  0.130414553689299  0.686090449745201  0.06937748240425629  1.0000
  C   C57       1.0  0.5217389643157729  0.18933738381619483  0.6230806051273348  1.0000
  C   C58       1.0  0.8343974820057841  0.3109145281874034  0.8768376495909248  1.0000
  C   C59       1.0  0.47824787120155327  0.8106684561654304  0.3769180076127795  1.0000
  C   C60       1.0  0.16560734020730913  0.6890838822047199  0.12315993928183386  1.0000
  C   C61       1.0  0.396496335378508  0.1046604383130116  0.5948976416571411  1.0000
  C   C62       1.0  0.5963650095037213  0.39569387605088474  0.9050476740804708  1.0000
  C   C63       1.0  0.6035091407720331  0.8953389760802534  0.405103200541994  1.0000
  C   C64       1.0  0.40364422703204655  0.6043013123721435  0.09495153954748757  1.0000
  C   C65       1.0  0.412733294044145  0.14832150358241583  0.6366075145967185  1.0000
  C   C66       1.0  0.6980182705202866  0.35205858478780516  0.8632995186545498  1.0000
  C   C67       1.0  0.5872631248404334  0.8516805915046035  0.3633922190645861  1.0000
  C   C68       1.0  0.3019874996540609  0.6479403391673272  0.13669906759215417  1.0000
  C   C69       1.0  0.27959033764102537  0.21091250237100914  0.7245671354938421  1.0000
  C   C70       1.0  0.7153121117861829  0.28948716897706817  0.7753656870514403  1.0000
  C   C71       1.0  0.7204056672485281  0.7890895850077226  0.27543301769362927  1.0000
  C   C72       1.0  0.28469819881857483  0.7105127697145334  0.2246355602392924  1.0000
  C   C73       1.0  0.10022236500373106  0.45948520589764985  0.9022267945257948  1.0000
  C   C74       1.0  0.9617962959784236  0.04060876575805849  0.5979090373860245  1.0000
  C   C75       1.0  0.8997741271489872  0.5405142055623742  0.09777422867240657  1.0000
  C   C76       1.0  0.03820547732513588  0.9593890508673082  0.40209191388768756  1.0000
  C   C77       1.0  0.032194311604527785  0.4521897922959325  0.8209922454470514  1.0000
  C   C78       1.0  0.8054007530178141  0.04791882044648329  0.6792093808945763  1.0000
  C   C79       1.0  0.9678016544469089  0.5478106833649433  0.17900876536778296  1.0000
  C   C80       1.0  0.19459698111997906  0.9520806141384096  0.32079038372514646  1.0000
  C   C81       1.0  0.1793463603524758  0.39477023697819646  0.8808771731266771  1.0000
  C   C82       1.0  0.9548328225542452  0.10532626598852346  0.6192354580282282  1.0000
  C   C83       1.0  0.820650394850894  0.6052286423813982  0.11912385626320794  1.0000
  C   C84       1.0  0.04516445875040661  0.894671549170219  0.38076558374502395  1.0000
  C   C85       1.0  0.1849774631699577  0.3309920789539902  0.7928681700779375  1.0000
  C   C86       1.0  0.8085864567510017  0.16920987604930807  0.7072315166210642  1.0000
  C   C87       1.0  0.8150229948803868  0.6690083981735027  0.20713275023736333  1.0000
  C   C88       1.0  0.19140380456119738  0.8307927851859346  0.29276637647349446  1.0000
  C   C89       1.0  0.17061390025485001  0.3372937771774146  0.7351682925523162  1.0000
  C   C90       1.0  0.7430520561887879  0.16304025496420138  0.7649722924911797  1.0000
  C   C91       1.0  0.8293896551365312  0.6627083069866798  0.26483201690558633  1.0000
  C   C92       1.0  0.2569381989868873  0.8369586677119044  0.23502640074081427  1.0000
  C   C93       1.0  0.24857741453806928  0.2647872904528937  0.8159951035222189  1.0000
  C   C94       1.0  0.8288776874495907  0.2353898850679101  0.6839472416503509  1.0000
  C   C95       1.0  0.7514143941048209  0.7352121365175035  0.18400508886654168  1.0000
  C   C96       1.0  0.17111880470312715  0.7646095263921139  0.3160537815478505  1.0000
  C   C97       1.0  0.2969468042058457  0.20567550297391074  0.7819591234243146  1.0000
  C   C98       1.0  0.7843223323202297  0.29459539310134625  0.7178822918293333  1.0000
  C   C99       1.0  0.7030490418743799  0.7943244745405308  0.21804005096425527  1.0000
  C   C100      1.0  0.21568360452839377  0.7054072107736289  0.2821186777330098  1.0000
  C   C101      1.0  0.21639260467102167  0.27753432974551356  0.7012963989647857  1.0000
  C   C102      1.0  0.6954733178000085  0.2229008505637751  0.7987579276316266  1.0000
  C   C103      1.0  0.7836025722284888  0.7224677422166365  0.2987045932750049  1.0000
  C   C104      1.0  0.30452921809040134  0.7771012351607351  0.20124229956962128  1.0000
  C   C105      1.0  0.26723088750306134  0.8338894083295684  0.8052985589493243  1.0000
  C   C106      1.0  0.4062192713604847  0.6664665662030628  0.6944985812719435  1.0000
  C   C107      1.0  0.7327740158431338  0.16610788849111907  0.19470172397706878  1.0000
  C   C108      1.0  0.5937692048936613  0.3335424030605694  0.3055034245411291  1.0000
  S   S1        1.0  0.2661385153482245  0.12602530611677304  0.43463558277586845  1.0000
  S   S2        1.0  0.32693775859481644  0.37378162042636376  0.06522302194851899  1.0000
  S   S3        1.0  0.733854695817492  0.8739740853392063  0.5653665344874951  1.0000
  S   S4        1.0  0.6730568516368579  0.6262220725223459  0.9347766108810799  1.0000
  S   S5        1.0  0.17904751928878698  0.16032423274405969  0.28919311665717357  1.0000
  S   S6        1.0  0.12835065058360584  0.33951094836142914  0.2106891369363949  1.0000
  S   S7        1.0  0.8209460264672828  0.8396741114880724  0.710808091680583  1.0000
  S   S8        1.0  0.8716481994315121  0.6604842726427763  0.7893083328160271  1.0000
  S   S9        1.0  0.16698628466342327  0.3102820534487733  0.3782412662336227  1.0000
  S   S10       1.0  0.3554388871729941  0.18952209415586194  0.12162144831656715  1.0000
  S   S11       1.0  0.8330075629814078  0.6897173704007925  0.6217590906684476  1.0000
  S   S12       1.0  0.6445636718256229  0.8104784631753786  0.8783751122238356  1.0000
  Br  Br1       1.0  0.029580146500542612  0.2774366785441273  0.5468322158379663  1.0000
  Br  Br2       1.0  0.35512432784336345  0.22243589182474463  0.9529260052013623  1.0000
  Br  Br3       1.0  0.970430396181698  0.7225626863847623  0.4531712997885576  1.0000
  Br  Br4       1.0  0.6449094597512399  0.7775786337165369  0.04706304843999481  1.0000
  N   N1        1.0  0.9051993799299821  0.12587833228202067  0.40871949792150264  1.0000
  N   N2        1.0  0.9396011763920241  0.37406091927261537  0.0913239480056305  1.0000
  N   N3        1.0  0.09479374396612168  0.8741184341862576  0.591280725425676  1.0000
  N   N4        1.0  0.060398931338064094  0.6259374649675918  0.908675072201795  1.0000
  N   N5        1.0  0.6982769642552074  0.13346919013373787  0.4748957868148905  1.0000
  N   N6        1.0  0.8066167003198147  0.3664999895937838  0.025124999604813108  1.0000
  N   N7        1.0  0.3017168585529716  0.8665339306126753  0.5251060320938521  1.0000
  N   N8        1.0  0.19339105774533086  0.6334898424043727  0.9748762090574626  1.0000
  N   N9        1.0  0.32306999416612586  0.14896364739206544  0.6917297513557369  1.0000
  N   N10       1.0  0.6643665660499001  0.3515105001855402  0.8081344965534996  1.0000
  N   N11       1.0  0.6769212478089202  0.8510374005649056  0.3082690816228392  1.0000
  N   N12       1.0  0.33563898777687495  0.6484921376434372  0.1918646303909027  1.0000
  N   N13       1.0  0.008912874117200738  0.49494790356531115  0.864599008836144  1.0000
  N   N14       1.0  0.8684094261566317  0.005144202379661098  0.635593990677563  1.0000
  N   N15       1.0  0.9910832040404994  0.5050515001864185  0.13540243388821688  1.0000
  N   N16       1.0  0.13159045908935946  0.9948541571752615  0.36440637036499607  1.0000
  N   N17       1.0  0.1356318160130602  0.39049455401267597  0.8289454132037262  1.0000
  N   N18       1.0  0.8549844363118243  0.10962512389346558  0.6712094556327128  1.0000
  N   N19       1.0  0.8643644130890211  0.6095053895477702  0.17105560380279167  1.0000
  N   N20       1.0  0.14501420522067593  0.8903753810401581  0.32878995933414495  1.0000
  N   N21       1.0  0.034095047491228034  0.8155570659567385  0.8114641187077607  1.0000
  N   N22       1.0  0.16084841103471378  0.6847078636998702  0.6884840787383764  1.0000
  N   N23       1.0  0.9659076968818  0.1844397358383603  0.18853416327905137  1.0000
  N   N24       1.0  0.8391448311041643  0.315291569418406  0.3115157763808866  1.0000
  N   N25       1.0  0.17182856378372727  0.8957611530385633  0.7890422378971064  1.0000
  N   N26       1.0  0.3565642752338721  0.6045899220983985  0.7108519904143973  1.0000
  N   N27       1.0  0.8281730664404068  0.10423769383365307  0.21096054361119335  1.0000
  N   N28       1.0  0.6434417410194231  0.39541373670871843  0.28914946854740003  1.0000
  O   O1        1.0  0.4849640989179211  0.19210656710691854  0.3258263324566285  1.0000
  O   O2        1.0  0.5027570575168384  0.30767989292731107  0.1740153219467828  1.0000
  O   O3        1.0  0.5150283557974691  0.8078922938090611  0.6741757087417637  1.0000
  O   O4        1.0  0.4972402687624469  0.6923232725084316  0.825984062061657  1.0000
