data_image0
_chemical_formula_structural       U4Cu4H32C56N8O40
_chemical_formula_sum              "U4 Cu4 H32 C56 N8 O40"
_cell_length_a       8.309194955592464
_cell_length_b       11.920859775702446
_cell_length_c       17.384300748044218
_cell_angle_alpha    89.99976564889937
_cell_angle_beta     89.99996360904345
_cell_angle_gamma    107.06930325009415

_space_group_name_H-M_alt    "P 1"
_space_group_IT_number       1

loop_
  _space_group_symop_operation_xyz
  'x, y, z'

loop_
  _atom_site_type_symbol
  _atom_site_label
  _atom_site_symmetry_multiplicity
  _atom_site_fract_x
  _atom_site_fract_y
  _atom_site_fract_z
  _atom_site_occupancy
  U   U1        1.0  0.44940706149655085  0.5762464002443721  0.8294699315213663  1.0000
  U   U2        1.0  0.05059568850515473  0.9237583496033397  0.3294700964918178  1.0000
  U   U3        1.0  0.5505905936076161  0.42376008271546783  0.1705307722082381  1.0000
  U   U4        1.0  0.9494119455272523  0.0762489388575602  0.6705300320035548  1.0000
  Cu  Cu1       1.0  0.34077336598237207  0.7850260663244129  0.5345012172597308  1.0000
  Cu  Cu2       1.0  0.15922480271471068  0.7149728120189421  0.0345036647554409  1.0000
  Cu  Cu3       1.0  0.6592272324583206  0.2149733518615662  0.46549891124774945  1.0000
  Cu  Cu4       1.0  0.8407737783109895  0.28502750163273305  0.9654970389827187  1.0000
  H   H1        1.0  0.1273469067251654  0.8369824488333036  0.6639702881432613  1.0000
  H   H2        1.0  0.372650383490324  0.6630120293588176  0.16397166964862464  1.0000
  H   H3        1.0  0.872652492083894  0.163016978353447  0.33602868990108453  1.0000
  H   H4        1.0  0.6273455245595655  0.3369821419830786  0.836026733171984  1.0000
  H   H5        1.0  0.9388659404177986  0.7088644518890064  0.7635912689288703  1.0000
  H   H6        1.0  0.5611314903771001  0.7911301557312809  0.263594105506904  1.0000
  H   H7        1.0  0.06113422210125918  0.29113673024758663  0.23640713388123663  1.0000
  H   H8        1.0  0.4388596731988272  0.20886141016564605  0.7364083239396138  1.0000
  H   H9        1.0  0.8678624378946651  0.49193333359347946  0.750534976908817  1.0000
  H   H10       1.0  0.632132451628962  0.008061112814630202  0.2505374401195795  1.0000
  H   H11       1.0  0.13213614313348643  0.5080669800621039  0.24946457636605152  1.0000
  H   H12       1.0  0.3678586578687088  0.9919330944892337  0.749468440713116  1.0000
  H   H13       1.0  0.9866107353653464  0.4073371089286582  0.639412979227103  1.0000
  H   H14       1.0  0.51338582645338  0.09265808486177458  0.1394152385074534  1.0000
  H   H15       1.0  0.013386264174336292  0.5926623362498377  0.3605865740492149  1.0000
  H   H16       1.0  0.48661084529426557  0.9073378414103888  0.8605883413954132  1.0000
  H   H17       1.0  0.1132068976224687  0.350803546697172  0.5452598444338719  1.0000
  H   H18       1.0  0.38678704702250144  0.1491941398630843  0.0452595350846252  1.0000
  H   H19       1.0  0.8867892841350693  0.6491967849482094  0.4547408593046143  1.0000
  H   H20       1.0  0.6132071713897388  0.8508044458273502  0.9547423191199016  1.0000
  H   H21       1.0  0.27189191172929833  0.30758299431186487  0.4351697482362979  1.0000
  H   H22       1.0  0.2280999925722753  0.1924111607655874  0.9351675944321585  1.0000
  H   H23       1.0  0.7281039422423278  0.692413818436968  0.5648321059704955  1.0000
  H   H24       1.0  0.771893080282929  0.8075847925128059  0.0648313836179994  1.0000
  H   H25       1.0  0.46637498186596815  0.4761539992661027  0.3606804352291847  1.0000
  H   H26       1.0  0.0336205103907758  0.023837116947866797  0.8606811138496084  1.0000
  H   H27       1.0  0.5336201083981108  0.5238410585368029  0.6393208437485427  1.0000
  H   H28       1.0  0.9663810139739014  0.9761561319338624  0.1393178642031287  1.0000
  H   H29       1.0  0.4944618295549148  0.6820434732015171  0.4046163344606839  1.0000
  H   H30       1.0  0.005535636693267142  0.817949357968331  0.9046207942630816  1.0000
  H   H31       1.0  0.505536423690991  0.3179533215634009  0.5953826435875342  1.0000
  H   H32       1.0  0.9944679050802916  0.18204299543791078  0.095380484717225  1.0000
  C   C1        1.0  0.544160049295641  0.7722961374941945  0.6919892772261349  1.0000
  C   C2        1.0  0.9558422683153225  0.7277094871932093  0.191991027510845  1.0000
  C   C3        1.0  0.45583853173616967  0.2277041761672649  0.3080085503537759  1.0000
  C   C4        1.0  0.044172563525229726  0.27229774729244133  0.8080073752886108  1.0000
  C   C5        1.0  0.6694565148356588  0.8276837609467267  0.7574551446000726  1.0000
  C   C6        1.0  0.8305499409946576  0.6723205046676028  0.2574576625721718  1.0000
  C   C7        1.0  0.33054119435043827  0.172320080612046  0.24254038204839648  1.0000
  C   C8        1.0  0.16946690825844257  0.32768583434843623  0.7425413154599028  1.0000
  C   C9        1.0  0.5489230027985528  0.5636984179629182  0.0098511185325805  1.0000
  C   C10       1.0  0.9510744732337314  0.9363093689616235  0.509849363171007  1.0000
  C   C11       1.0  0.45108534087048463  0.43631326686259797  0.9901495851881491  1.0000
  C   C12       1.0  0.0489299978241959  0.0636961825490161  0.49014961486396663  1.0000
  C   C13       1.0  0.4395657905630229  0.021477831766283397  0.5254452564580065  1.0000
  C   C14       1.0  0.06043145541104166  0.4785190852011212  0.0254452642426415  1.0000
  C   C15       1.0  0.560436879359912  0.9785180495294411  0.4745560225174543  1.0000
  C   C16       1.0  0.9395623811468211  0.5214786230153693  0.9745565899631784  1.0000
  C   C17       1.0  0.09445711541202681  0.7414580579622196  0.6618380437874835  1.0000
  C   C18       1.0  0.4055401298039171  0.7585390761651213  0.1618385713173538  1.0000
  C   C19       1.0  0.9055422293248937  0.258544010641252  0.3381615094847987  1.0000
  C   C20       1.0  0.5944561060269888  0.24145861406548624  0.8381609819615435  1.0000
  C   C21       1.0  0.9896461107504279  0.6700869694483413  0.7162117861297901  1.0000
  C   C22       1.0  0.5103503219418002  0.8299079696708701  0.2162139529381335  1.0000
  C   C23       1.0  0.010351652498023636  0.3299142306780425  0.2837877671439415  1.0000
  C   C24       1.0  0.48964160534290363  0.17008535117394524  0.7837884765057981  1.0000
  C   C25       1.0  0.9507196757701734  0.5485771635918012  0.7087126679716533  1.0000
  C   C26       1.0  0.5492744436245046  0.9514152031501408  0.20871390583153734  1.0000
  C   C27       1.0  0.049277323769509065  0.45142228158670156  0.2912868853046646  1.0000
  C   C28       1.0  0.4507155203161161  0.04857637174168159  0.7912890988467893  1.0000
  C   C29       1.0  0.0170575201359711  0.5017644827359149  0.6472418896421459  1.0000
  C   C30       1.0  0.4829401690185548  0.9982336282160489  0.14724286969688194  1.0000
  C   C31       1.0  0.9829414427465579  0.49823670839361267  0.3527576636314294  1.0000
  C   C32       1.0  0.5170548671709341  0.0017640709996697994  0.8527601349720797  1.0000
  C   C33       1.0  0.12594360568782995  0.5776289854230398  0.5961042485079275  1.0000
  C   C34       1.0  0.374055554686592  0.9223668231931512  0.0961054739618845  1.0000
  C   C35       1.0  0.874054211631538  0.42236957328466207  0.4038953047695273  1.0000
  C   C36       1.0  0.6259438981884955  0.0776299625670802  0.9038958050127732  1.0000
  C   C37       1.0  0.21392397622698667  0.5395338991276333  0.5322259651686849  1.0000
  C   C38       1.0  0.2860726747319547  0.9604614848094715  0.0322276840383751  1.0000
  C   C39       1.0  0.786072641457089  0.4604646685749643  0.46777416334057886  1.0000
  C   C40       1.0  0.7139256325799791  0.0395326685289277  0.9677735949401624  1.0000
  C   C41       1.0  0.194869716697859  0.4228648548607765  0.5124306855594369  1.0000
  C   C42       1.0  0.3051275305608812  0.07713479210849529  0.0124317534469327  1.0000
  C   C43       1.0  0.8051257013521319  0.5771337218386775  0.4875694429499831  1.0000
  C   C44       1.0  0.6948710504635971  0.9228655215412191  0.9875695255228791  1.0000
  C   C45       1.0  0.2858768393276705  0.3987277060057011  0.45040002617295016  1.0000
  C   C46       1.0  0.2141138005531786  0.10126635439331011  0.9503998589746202  1.0000
  C   C47       1.0  0.7141190146464068  0.6012691067470539  0.5496006775705453  1.0000
  C   C48       1.0  0.7858800900792671  0.8987287124103672  0.0496002695399724  1.0000
  C   C49       1.0  0.3932149582588592  0.4913821401111561  0.4093478981219221  1.0000
  C   C50       1.0  0.10677236547492437  0.008606943867277997  0.9093491736562882  1.0000
  C   C51       1.0  0.6067781145938937  0.5086138131633148  0.5906522303915339  1.0000
  C   C52       1.0  0.8932204336689582  0.9913828491017541  0.0906492291709355  1.0000
  C   C53       1.0  0.4089080542482222  0.6058781765612127  0.43268890917021  1.0000
  C   C54       1.0  0.09109005630173786  0.894116218474629  0.9326931294989507  1.0000
  C   C55       1.0  0.5910886175092144  0.3941177497266111  0.5673100688794577  1.0000
  C   C56       1.0  0.9089138132565039  0.10587965382619301  0.06730757424470821  1.0000
  N   N1        1.0  0.160966134160148  0.6955692479828741  0.6038012519497684  1.0000
  N   N2        1.0  0.33903021235402514  0.8044256487643366  0.10380166947054903  1.0000
  N   N3        1.0  0.839031683156783  0.3044293107209128  0.3961994517909773  1.0000
  N   N4        1.0  0.6609668412577958  0.1955711549974382  0.8961973085778325  1.0000
  N   N5        1.0  0.3211495775944187  0.6286026770258175  0.4923921828205735  1.0000
  N   N6        1.0  0.17885024234872313  0.8713930575762989  0.9923964417132325  1.0000
  N   N7        1.0  0.6788490575070937  0.371394995214999  0.507606219994706  1.0000
  N   N8        1.0  0.8211524275717679  0.12860282371551082  0.0076059877255332  1.0000
  O   O1        1.0  0.2775744071680109  0.6315886064030779  0.8580882282902921  1.0000
  O   O2        1.0  0.22242980258951664  0.8684168171182022  0.3580902250357028  1.0000
  O   O3        1.0  0.7224277186938933  0.36841432168454696  0.14191017451707924  1.0000
  O   O4        1.0  0.7775872122245033  0.13160096503085578  0.6419133548334202  1.0000
  O   O5        1.0  0.6253111449466999  0.5251573843813304  0.8004742762064083  1.0000
  O   O6        1.0  0.8746903834381854  0.9748439829866131  0.3004753536005041  1.0000
  O   O7        1.0  0.3746925624036733  0.4748464121833819  0.1995241265995062  1.0000
  O   O8        1.0  0.1253118505680106  0.025153662267555894  0.6995218987509944  1.0000
  O   O9        1.0  0.4522465528602737  0.6675887284358099  0.7084491165290601  1.0000
  O   O10       1.0  0.047761182661680814  0.8324132902920524  0.20844838927167336  1.0000
  O   O11       1.0  0.5477571544876554  0.33241506812498756  0.2915504367401525  1.0000
  O   O12       1.0  0.9522601373418239  0.1675894938400262  0.7915517392280549  1.0000
  O   O13       1.0  0.5400000488008913  0.8291735866089026  0.6327133018702681  1.0000
  O   O14       1.0  0.9599937957295593  0.6708289856550919  0.1327106093838779  1.0000
  O   O15       1.0  0.4599933518414474  0.1708258855679858  0.3672839504799371  1.0000
  O   O16       1.0  0.040013402387323496  0.3291800667662129  0.8672849172558801  1.0000
  O   O17       1.0  0.6451979126188547  0.7711787703036707  0.8204379163069079  1.0000
  O   O18       1.0  0.8548094749505494  0.7288250576129229  0.320438542308743  1.0000
  O   O19       1.0  0.3548109751283377  0.2288258677573509  0.1795576103388257  1.0000
  O   O20       1.0  0.14520415725714733  0.27118218587153814  0.6795592852592236  1.0000
  O   O21       1.0  0.7837376065402566  0.9224366868739865  0.7466026741993943  1.0000
  O   O22       1.0  0.7162613157955278  0.5775668291223185  0.24660376666955838  1.0000
  O   O23       1.0  0.2162515970703396  0.07757250050796928  0.2533905515161763  1.0000
  O   O24       1.0  0.2837507349249222  0.4224395458870163  0.7533934856682124  1.0000
  O   O25       1.0  0.5639318027347499  0.6384958381189136  0.9567588123530371  1.0000
  O   O26       1.0  0.9360660634849651  0.8615141716583069  0.456759040850649  1.0000
  O   O27       1.0  0.43607375981419233  0.36151498723028663  0.0432407409060005  1.0000
  O   O28       1.0  0.0639447875928454  0.1384922123341781  0.5432422381088315  1.0000
  O   O29       1.0  0.6061215660976415  0.582402476016007  0.077680099095268  1.0000
  O   O30       1.0  0.8938671699137328  0.9176075536127255  0.5776778378118833  1.0000
  O   O31       1.0  0.39388721349792627  0.4176074448667251  0.922320029396225  1.0000
  O   O32       1.0  0.1061325026054263  0.0823980338814181  0.42232229068704197  1.0000
  O   O33       1.0  0.31702986384541987  0.9441851328942973  0.5554348266455094  1.0000
  O   O34       1.0  0.18296385319555952  0.5558118749966923  0.0554388662357468  1.0000
  O   O35       1.0  0.6829704068142559  0.05581076640297059  0.4445641514036752  1.0000
  O   O36       1.0  0.8170275840904679  0.44418585120763504  0.9445647136653506  1.0000
  O   O37       1.0  0.4697350640316812  0.13113089753206708  0.5335541381423781  1.0000
  O   O38       1.0  0.030264546720950053  0.36886594624941427  0.0335533132293691  1.0000
  O   O39       1.0  0.5302676058912537  0.8688649837636574  0.4664471408330827  1.0000
  O   O40       1.0  0.969730871326597  0.6311326304461248  0.9664479657433489  1.0000
