data_image0
_chemical_formula_structural       Cd2H28C36N8
_chemical_formula_sum              "Cd2 H28 C36 N8"
_cell_length_a       10.543887508491071
_cell_length_b       10.543865973882834
_cell_length_c       10.51022387775729
_cell_angle_alpha    120.10619530493194
_cell_angle_beta     120.1060936504196
_cell_angle_gamma    89.99984385596848

_space_group_name_H-M_alt    "P 1"
_space_group_IT_number       1

loop_
  _space_group_symop_operation_xyz
  'x, y, z'

loop_
  _atom_site_type_symbol
  _atom_site_label
  _atom_site_symmetry_multiplicity
  _atom_site_fract_x
  _atom_site_fract_y
  _atom_site_fract_z
  _atom_site_occupancy
  Cd  Cd1       1.0  7.819842907000001e-07  2.3358968377e-06  2.5076137290999995e-06  1.0000
  Cd  Cd2       1.0  0.7499998823715047  0.25000034984891784  0.49999960428630896  1.0000
  H   H1        1.0  0.37500524254954837  0.6446363877342094  0.25000590158249025  1.0000
  H   H2        1.0  0.8750018729053862  0.6053703971583247  0.2500067157563278  1.0000
  H   H3        1.0  0.35536131754844297  0.1249972129355967  0.749992842923433  1.0000
  H   H4        1.0  0.394631890882053  0.62499420112497  0.7499920304409572  1.0000
  H   H5        1.0  0.5382604024912324  0.4897262965873422  0.17969704612501397  1.0000
  H   H6        1.0  0.6414388235473325  0.6899690520243383  0.1796971049761496  1.0000
  H   H7        1.0  0.1085622727803397  0.7602710549531577  0.3203058496485695  1.0000
  H   H8        1.0  0.21174491725717812  0.5600368169589132  0.3203077833908879  1.0000
  H   H9        1.0  0.43996386158243445  0.8914376726594496  0.6796916906285517  1.0000
  H   H10       1.0  0.2397283059399484  0.7882540809815312  0.6796907681927494  1.0000
  H   H11       1.0  0.3100327827745275  0.4617387425585165  0.8203013079855593  1.0000
  H   H12       1.0  0.5102686308861094  0.35856177636964054  0.820300074148669  1.0000
  H   H13       1.0  0.5358556016696384  0.2537170267247717  0.17593017495368474  1.0000
  H   H14       1.0  0.6400730885217955  0.9222086715520773  0.17592709147984933  1.0000
  H   H15       1.0  0.10991677258549261  0.9962814761172749  0.32407145911043483  1.0000
  H   H16       1.0  0.21415392381481982  0.3277913753933746  0.32407417053227056  1.0000
  H   H17       1.0  0.672209061133195  0.8900793667173231  0.6759281058422602  1.0000
  H   H18       1.0  0.003720381168285876  0.7858463181986935  0.675930766041489  1.0000
  H   H19       1.0  0.07779260554454483  0.4641460137517015  0.8240733267648253  1.0000
  H   H20       1.0  0.746279383087426  0.3599241946367826  0.8240697365247556  1.0000
  H   H21       1.0  0.2137180664859812  0.8095559035320291  0.15054069130917466  1.0000
  H   H22       1.0  0.9368244445414362  0.34098828341910087  0.1505434029497651  1.0000
  H   H23       1.0  0.8131781051601479  0.4404515614080893  0.3494544838998551  1.0000
  H   H24       1.0  0.536275212645812  0.9089990145059161  0.3494519103260956  1.0000
  H   H25       1.0  0.09099710240570151  0.18682327749871064  0.6505507624389182  1.0000
  H   H26       1.0  0.5595503455273702  0.46372556435194673  0.65054782327924  1.0000
  H   H27       1.0  0.6590144128886877  0.7862857666877971  0.849460621776025  1.0000
  H   H28       1.0  0.1904417974259474  0.0631798789051885  0.8494596841147342  1.0000
  C   C1        1.0  0.3750044688537812  0.5411441209857556  0.25000707444998926  1.0000
  C   C2        1.0  0.8750026387763157  0.7088626560816778  0.25000458359129163  1.0000
  C   C3        1.0  0.4588574514249117  0.12500032788256724  0.749995691730291  1.0000
  C   C4        1.0  0.2911395800113893  0.6249992545628513  0.7499970694817576  1.0000
  C   C5        1.0  0.4670883024746075  0.4549826837923661  0.21183774555712628  1.0000
  C   C6        1.0  0.744751063969005  0.7568519782751792  0.21183738460252494  1.0000
  C   C7        1.0  0.005248668467139383  0.7950188431569318  0.28817239973255954  1.0000
  C   C8        1.0  0.28292510181834984  0.4931533002506541  0.2881739611301129  1.0000
  C   C9        1.0  0.5068421220812667  0.9947495663328636  0.7118247210919718  1.0000
  C   C10       1.0  0.2049819559984485  0.717073298794638  0.711826709761439  1.0000
  C   C11       1.0  0.2431499503572284  0.53291177878463  0.7881633459343506  1.0000
  C   C12       1.0  0.5450094822402178  0.2552471254327457  0.7881587958694567  1.0000
  C   C13       1.0  0.4668749332475812  0.3223452577624712  0.21104874069728657  1.0000
  C   C14       1.0  0.7441735084042307  0.888703170229057  0.2110475964089317  1.0000
  C   C15       1.0  0.005824980805478307  0.9276562318387535  0.2889569900133538  1.0000
  C   C16       1.0  0.2831308692886338  0.36130204717544956  0.28895608835514963  1.0000
  C   C17       1.0  0.6386970093648401  0.9941753902389646  0.7110393790610415  1.0000
  C   C18       1.0  0.0723431812322488  0.7168659193738591  0.7110391061008557  1.0000
  C   C19       1.0  0.11129582798746185  0.533125915201957  0.7889501572349928  1.0000
  C   C20       1.0  0.6776516395794091  0.2558238143500162  0.7889459178857409  1.0000
  C   C21       1.0  0.37500235674467325  0.2737136364729693  0.24999617198085394  1.0000
  C   C22       1.0  0.8749954154148158  0.9762849263164385  0.25000196959059223  1.0000
  C   C23       1.0  0.726279805440626  0.1250016631844915  0.7499963662818631  1.0000
  C   C24       1.0  0.023716751157920175  0.6249898191024953  0.7499968726030629  1.0000
  C   C25       1.0  0.37500158190849214  0.1344060879232458  0.24999950358058237  1.0000
  C   C26       1.0  0.8749980455858121  0.1155935761094398  0.25000001770177954  1.0000
  C   C27       1.0  0.865592434809038  0.1250035092879713  0.7500017758657835  1.0000
  C   C28       1.0  0.8844085962800818  0.6249982618590051  0.750001507333181  1.0000
  C   C29       1.0  0.29510038789572945  0.9140670288367898  0.2025294231999623  1.0000
  C   C30       1.0  0.9074287216141955  0.28846168884328444  0.20252793394216442  1.0000
  C   C31       1.0  0.8425736845977524  0.3359377711570132  0.2974729598381103  1.0000
  C   C32       1.0  0.4548975997492094  0.9615353141610186  0.2974716725302997  1.0000
  C   C33       1.0  0.0384606259214451  0.15742446550138567  0.7025202626157281  1.0000
  C   C34       1.0  0.6640655472691748  0.5451052628675511  0.7025306138751901  1.0000
  C   C35       1.0  0.7115426531063705  0.7049031490065262  0.7974747783989927  1.0000
  C   C36       1.0  0.0859359691659733  0.09256873419028007  0.7974759601389962  1.0000
  N   N1        1.0  0.24539396613536718  0.023614671526772196  0.17362071957342812  1.0000
  N   N2        1.0  0.9282267419379977  0.15000649983747394  0.17362129484751432  1.0000
  N   N3        1.0  0.821768159133711  0.2263926246823971  0.32638026710916523  1.0000
  N   N4        1.0  0.5046115646703767  0.09998903977653836  0.3263810021039787  1.0000
  N   N5        1.0  0.9000077971889127  0.17822945870099724  0.6736190983617976  1.0000
  N   N6        1.0  0.7736098520210888  0.495390306394107  0.6736217457661979  1.0000
  N   N7        1.0  0.8499963954454728  0.7546079121247472  0.826381498253106  1.0000
  N   N8        1.0  0.9763843292240324  0.0717746797624059  0.8263808401234628  1.0000
