data_image0
_chemical_formula_structural       Cd4H96C144N24Cl8
_chemical_formula_sum              "Cd4 H96 C144 N24 Cl8"
_cell_length_a       12.470417975019
_cell_length_b       19.155604359713518
_cell_length_c       20.78273958646923
_cell_angle_alpha    104.45625629321853
_cell_angle_beta     90.00016375990539
_cell_angle_gamma    89.9998550151487

_space_group_name_H-M_alt    "P 1"
_space_group_IT_number       1

loop_
  _space_group_symop_operation_xyz
  'x, y, z'

loop_
  _atom_site_type_symbol
  _atom_site_label
  _atom_site_symmetry_multiplicity
  _atom_site_fract_x
  _atom_site_fract_y
  _atom_site_fract_z
  _atom_site_occupancy
  Cd  Cd1       1.0  0.49837517837863743  0.9212158645335933  0.2975220753841725  1.0000
  Cd  Cd2       1.0  0.0016165175613736002  0.42121621643229906  0.29751918079870165  1.0000
  Cd  Cd3       1.0  0.998376053170631  0.578785081906311  0.7024792253550913  1.0000
  Cd  Cd4       1.0  0.5016214018573564  0.07878328204992609  0.7024811300358776  1.0000
  H   H1        1.0  0.9409364981450777  0.7491550524039853  0.6606423261760241  1.0000
  H   H2        1.0  0.8510676935496235  0.6879921519977401  0.5571478756847127  1.0000
  H   H3        1.0  0.892868483401479  0.8784930609269775  0.4829121265631  1.0000
  H   H4        1.0  0.979989187625634  0.9408012191260936  0.5887089601127043  1.0000
  H   H5        1.0  0.09671820776342341  0.9149087615443393  0.9699978444695814  1.0000
  H   H6        1.0  0.1349192493424596  0.9743205039140221  0.08797084067991523  1.0000
  H   H7        1.0  0.22594727464965567  0.16860657894817163  0.03292508790475068  1.0000
  H   H8        1.0  0.18969163545627774  0.10876004406295445  0.91393909790861  1.0000
  H   H9        1.0  0.6684362062035943  0.7944157872313085  0.266168199618221  1.0000
  H   H10       1.0  0.7893514201078345  0.7212642171146726  0.3184939411880591  1.0000
  H   H11       1.0  0.6845299505585986  0.8514125676134867  0.5094896510247082  1.0000
  H   H12       1.0  0.5600791682666468  0.9142251845847364  0.44818483856396785  1.0000
  H   H13       1.0  0.7753498848949222  0.5116464410136602  0.31947577411067124  1.0000
  H   H14       1.0  0.700358712361229  0.632786110908178  0.37484509075861167  1.0000
  H   H15       1.0  0.015324019993023802  0.6908355612291004  0.45868153710750886  1.0000
  H   H16       1.0  0.07287553538256471  0.563969478569696  0.40503816186171787  1.0000
  H   H17       1.0  0.9531836125410466  0.28818077626083033  0.16842685909698218  1.0000
  H   H18       1.0  0.020598284576280407  0.1655391143688618  0.10828680915177098  1.0000
  H   H19       1.0  0.3014295010661954  0.2080728787862256  0.23420475755953155  1.0000
  H   H20       1.0  0.21932068964547113  0.3271390564756587  0.2902234005033648  1.0000
  H   H21       1.0  0.4787034347634532  0.9514234069306864  0.15478964721672367  1.0000
  H   H22       1.0  0.37164448681105705  0.019652952417651203  0.08791526898357918  1.0000
  H   H23       1.0  0.18003207462852802  0.10313379292490767  0.26381658969314253  1.0000
  H   H24       1.0  0.28935186447976957  0.026433138900827706  0.3206576184517189  1.0000
  H   H25       1.0  0.5590721418166282  0.24916503687620659  0.6606446288081642  1.0000
  H   H26       1.0  0.6489318759580341  0.18799662927406763  0.5571485911899358  1.0000
  H   H27       1.0  0.6071388358259073  0.378495972974882  0.4829104851635789  1.0000
  H   H28       1.0  0.5200207932547016  0.44080424416971203  0.588708154435416  1.0000
  H   H29       1.0  0.40328466569008736  0.41489674579600694  0.9700038830018798  1.0000
  H   H30       1.0  0.3650744753425387  0.47431230983295336  0.08797624546780007  1.0000
  H   H31       1.0  0.274059385591741  0.6686005834771578  0.03292388930154287  1.0000
  H   H32       1.0  0.3103305856670532  0.6087523862877048  0.9139395061557207  1.0000
  H   H33       1.0  0.8315599981246111  0.2944146353445518  0.2661645754273749  1.0000
  H   H34       1.0  0.7106412970788584  0.2212659194050985  0.3184941281889166  1.0000
  H   H35       1.0  0.8154824070207384  0.35141629139744174  0.5094904852840186  1.0000
  H   H36       1.0  0.9399270511817549  0.414228206509506  0.4481828427038862  1.0000
  H   H37       1.0  0.7246524556459734  0.0116465083725501  0.3194760917654946  1.0000
  H   H38       1.0  0.7996402175537937  0.13278554007276  0.37484250630289034  1.0000
  H   H39       1.0  0.48467892684336533  0.1908369124760299  0.4586840480540245  1.0000
  H   H40       1.0  0.42712924812340697  0.06397036564081299  0.40504142790396697  1.0000
  H   H41       1.0  0.546805744756206  0.788181001808276  0.168424764984934  1.0000
  H   H42       1.0  0.47939911582890465  0.6655377052751703  0.10828557864747518  1.0000
  H   H43       1.0  0.1985619091740247  0.7080675174690612  0.23420116640856745  1.0000
  H   H44       1.0  0.2806617076017943  0.8271379014925627  0.2902199556634669  1.0000
  H   H45       1.0  0.021291490391035905  0.45142481257523287  0.15478799113370195  1.0000
  H   H46       1.0  0.1283525720466443  0.5196557702491376  0.08791583696372376  1.0000
  H   H47       1.0  0.3199614768809056  0.6031320525099843  0.2638178910465924  1.0000
  H   H48       1.0  0.21064064013141603  0.5264293810673734  0.3206563409470816  1.0000
  H   H49       1.0  0.4409276459920335  0.7508351815357415  0.3393516049521493  1.0000
  H   H50       1.0  0.35107031754051843  0.8120052060382646  0.4428475323057198  1.0000
  H   H51       1.0  0.39286816906548705  0.621508561713533  0.517090588066054  1.0000
  H   H52       1.0  0.4799830040546454  0.5591970575686317  0.41129410185741466  1.0000
  H   H53       1.0  0.5967199335373864  0.5850953940653268  0.02999963982298935  1.0000
  H   H54       1.0  0.634925312495156  0.5256814469334117  0.9120271670871603  1.0000
  H   H55       1.0  0.7259404022324959  0.3313931681787707  0.9670737480571177  1.0000
  H   H56       1.0  0.689677221142766  0.3912386715201919  0.08605943794095337  1.0000
  H   H57       1.0  0.16843658209943163  0.7055850460895386  0.733833940995744  1.0000
  H   H58       1.0  0.28934726416674295  0.7787386161469313  0.6815079075600109  1.0000
  H   H59       1.0  0.18452940924892403  0.6485909371307487  0.49050928121693715  1.0000
  H   H60       1.0  0.06008316128937001  0.5857747057386008  0.5518120843318286  1.0000
  H   H61       1.0  0.27534492647061637  0.9883553286463637  0.6805219567920913  1.0000
  H   H62       1.0  0.2003587683470727  0.8672162926864218  0.6251507295922778  1.0000
  H   H63       1.0  0.51532487046412  0.8091649279457158  0.5413178506390961  1.0000
  H   H64       1.0  0.5728737472863658  0.9360330929609972  0.5949618043212367  1.0000
  H   H65       1.0  0.4531876278784069  0.21182083776844252  0.8315761711678817  1.0000
  H   H66       1.0  0.5206006719857471  0.3344630548012617  0.8917136663776404  1.0000
  H   H67       1.0  0.8014346710555956  0.2919305479148306  0.765798422813674  1.0000
  H   H68       1.0  0.7193300612384023  0.17286070215195787  0.7097787946892069  1.0000
  H   H69       1.0  0.9786994765406833  0.5485791808848859  0.8452105520858166  1.0000
  H   H70       1.0  0.8716408005775591  0.4803487623187054  0.9120828299241946  1.0000
  H   H71       1.0  0.680035103347592  0.3968660124480293  0.7361812169092941  1.0000
  H   H72       1.0  0.7893535344019753  0.4735676043960454  0.6793410758746745  1.0000
  H   H73       1.0  0.05906970486929449  0.2508376235844949  0.3393579514521576  1.0000
  H   H74       1.0  0.148930490482563  0.3120048372959232  0.442853872537185  1.0000
  H   H75       1.0  0.1071272949379178  0.12150770426247699  0.5170928936553877  1.0000
  H   H76       1.0  0.0200146096892553  0.05919684838249852  0.4112930354465831  1.0000
  H   H77       1.0  0.903279174334166  0.0850963045938826  0.0299946896252408  1.0000
  H   H78       1.0  0.8650749251756767  0.025680251481460897  0.9120231104111696  1.0000
  H   H79       1.0  0.7740557207605291  0.8313990373683282  0.9670800827861326  1.0000
  H   H80       1.0  0.8103185770279638  0.8912455701195512  0.08606366645572894  1.0000
  H   H81       1.0  0.3315651854184267  0.20558120163442334  0.7338330673396597  1.0000
  H   H82       1.0  0.21064596203000008  0.2787343916366681  0.681510584365  1.0000
  H   H83       1.0  0.315472242960098  0.14858765718495445  0.4905138017327244  1.0000
  H   H84       1.0  0.43991981765988447  0.0857701852512562  0.5518141323267756  1.0000
  H   H85       1.0  0.22464749724252903  0.4883516282025441  0.6805281465093813  1.0000
  H   H86       1.0  0.2996402735705814  0.3672119578811247  0.6251583485962512  1.0000
  H   H87       1.0  0.9846741640202127  0.3091678935429769  0.5413173637169706  1.0000
  H   H88       1.0  0.9271242524265374  0.4360345157364875  0.5949613438969336  1.0000
  H   H89       1.0  0.04680895819878119  0.7118189068793156  0.8315735823886496  1.0000
  H   H90       1.0  0.9793958899608838  0.8344600300868593  0.891713989934736  1.0000
  H   H91       1.0  0.6985638715643462  0.7919311168016989  0.7657961919935302  1.0000
  H   H92       1.0  0.7806702772925503  0.6728627818249892  0.7097760918486243  1.0000
  H   H93       1.0  0.5212923435687814  0.0485735798093145  0.8452092134052761  1.0000
  H   H94       1.0  0.6283544991087736  0.9803440330426695  0.9120821478416801  1.0000
  H   H95       1.0  0.8199693169767955  0.8968696622709729  0.7361827924000224  1.0000
  H   H96       1.0  0.7106447157424755  0.9735703175757636  0.6793432074370216  1.0000
  C   C1        1.0  0.0143114026271505  0.8842129084581954  0.6936131252413914  1.0000
  C   C2        1.0  0.0503054577888946  0.9133839094050203  0.7488320165922033  1.0000
  C   C3        1.0  0.08468690617185361  0.9454054490730356  0.8104884409771668  1.0000
  C   C4        1.0  0.11286727359995301  0.9746928086603506  0.8674551574017355  1.0000
  C   C5        1.0  0.9666338565528675  0.8495377353576925  0.6325200103743922  1.0000
  C   C6        1.0  0.929676105636702  0.7777698170145585  0.6220365683746323  1.0000
  C   C7        1.0  0.8787467069530522  0.7434192493269833  0.5634026709388634  1.0000
  C   C8        1.0  0.8654863394789771  0.7795473962151361  0.5129110367702764  1.0000
  C   C9        1.0  0.9026156952599819  0.8506206444089272  0.5222901127882265  1.0000
  C   C10       1.0  0.9518723354989478  0.8855085373644799  0.5814668452546811  1.0000
  C   C11       1.0  0.13942972512180063  0.008000890292770197  0.9338437639859761  1.0000
  C   C12       1.0  0.1262255655635727  0.9701995870594973  0.9836708351531056  1.0000
  C   C13       1.0  0.1472870731336897  0.0033624961976741  0.0496885045559452  1.0000
  C   C14       1.0  0.18288482318116192  0.07508158354106338  0.0677266401206751  1.0000
  C   C15       1.0  0.19701407475293561  0.11315252343379004  0.018741665480426703  1.0000
  C   C16       1.0  0.17587347777964624  0.08017271265791949  0.9524635539798254  1.0000
  C   C17       1.0  0.671751360317586  0.8032038880981175  0.3200521688020998  1.0000
  C   C18       1.0  0.7402864969837993  0.7634215351610294  0.34950566865138905  1.0000
  C   C19       1.0  0.7466633193810708  0.7796240823223429  0.41918868747207216  1.0000
  C   C20       1.0  0.6814674071363811  0.8356814917434788  0.4554724127688273  1.0000
  C   C21       1.0  0.6137101082466218  0.8716626922108472  0.42161374306529337  1.0000
  C   C22       1.0  0.8248430110578229  0.5527966123805896  0.35205324158412304  1.0000
  C   C23       1.0  0.7840929146089266  0.6206423961438219  0.3821606827340673  1.0000
  C   C24       1.0  0.8528091274609436  0.6725198321310799  0.42094479980362814  1.0000
  C   C25       1.0  0.9592226182332837  0.6524862937120731  0.42894926839232267  1.0000
  C   C26       1.0  0.991725199671052  0.5827927233663956  0.3987283087642267  1.0000
  C   C27       1.0  0.029990888621853198  0.2673936465305289  0.18108512473828137  1.0000
  C   C28       1.0  0.06810513816162  0.20007249376121192  0.14752919874012346  1.0000
  C   C29       1.0  0.16672662192975451  0.1761739573803851  0.16668398133182893  1.0000
  C   C30       1.0  0.22366379753025  0.22325419640385744  0.21813966535300008  1.0000
  C   C31       1.0  0.17904855881375434  0.28951332027752835  0.24902928187088236  1.0000
  C   C32       1.0  0.4100425305180125  0.9847885525891228  0.17603336891913546  1.0000
  C   C33       1.0  0.3518465468339614  0.023530013449942506  0.139715145442743  1.0000
  C   C34       1.0  0.26810194808538773  0.06822742589057641  0.171071338074519  1.0000
  C   C35       1.0  0.24574438800898687  0.07067478717153358  0.23778956288105488  1.0000
  C   C36       1.0  0.30666952475856857  0.028797338070106097  0.26966968159352683  1.0000
  C   C37       1.0  0.48569430885779497  0.384213716735374  0.6936126263990801  1.0000
  C   C38       1.0  0.4497140322768232  0.4133966214293352  0.7488308171689652  1.0000
  C   C39       1.0  0.4153391645906694  0.4454138963091409  0.810490533577294  1.0000
  C   C40       1.0  0.3871605550301211  0.4746921319973366  0.8674604005808461  1.0000
  C   C41       1.0  0.5333742702288974  0.3495439782924095  0.6325204474019585  1.0000
  C   C42       1.0  0.5703322454593902  0.277774393344167  0.6220347631324756  1.0000
  C   C43       1.0  0.6212510769291059  0.24342160324182774  0.5633999638886136  1.0000
  C   C44       1.0  0.6345150810256754  0.2795491939490304  0.5129082253577408  1.0000
  C   C45       1.0  0.5973871022190878  0.3506224895106413  0.5222867660650505  1.0000
  C   C46       1.0  0.5481362182966124  0.38551044671959284  0.5814643893707083  1.0000
  C   C47       1.0  0.36059617991529075  0.507996408007692  0.9338512438592871  1.0000
  C   C48       1.0  0.3737827744380909  0.47019246170014367  0.9836784250048395  1.0000
  C   C49       1.0  0.35271468097401737  0.5033526316721577  0.04969329250899785  1.0000
  C   C50       1.0  0.3171207514829035  0.5750744561237652  0.06772718193028021  1.0000
  C   C51       1.0  0.3029967399561571  0.6131459537360655  0.018742791660393703  1.0000
  C   C52       1.0  0.32414822983201225  0.5801677351972218  0.9524674882716012  1.0000
  C   C53       1.0  0.8282506750047814  0.3032059776858631  0.32005216938802755  1.0000
  C   C54       1.0  0.759711015675386  0.2634210191303268  0.3495068762068384  1.0000
  C   C55       1.0  0.753344079174134  0.2796257309308884  0.41919038041925205  1.0000
  C   C56       1.0  0.818537541461353  0.33568359298453737  0.4554714366815346  1.0000
  C   C57       1.0  0.8862889322829588  0.3716690195355029  0.4216143362004131  1.0000
  C   C58       1.0  0.6751569189988943  0.05279728213420749  0.3520531295955606  1.0000
  C   C59       1.0  0.7159085013220619  0.120643551272785  0.3821593099297828  1.0000
  C   C60       1.0  0.6471938755756881  0.17252269474490592  0.42094562304293237  1.0000
  C   C61       1.0  0.540782102173111  0.15248713899729438  0.42895184840317296  1.0000
  C   C62       1.0  0.5082780413636598  0.0827952295226453  0.3987331375288078  1.0000
  C   C63       1.0  0.46999764252443305  0.7673944068219499  0.18108533775502167  1.0000
  C   C64       1.0  0.43188670042235344  0.7000722244684637  0.14752862768071398  1.0000
  C   C65       1.0  0.333270208294465  0.6761689617733992  0.16668070992424325  1.0000
  C   C66       1.0  0.27632908383487387  0.723250891419312  0.2181366820650439  1.0000
  C   C67       1.0  0.3209386010335962  0.7895104965493331  0.24902600592075425  1.0000
  C   C68       1.0  0.0899515647568947  0.4847898702766714  0.17603229404430454  1.0000
  C   C69       1.0  0.14815073871281473  0.52353064893353  0.13971476630786836  1.0000
  C   C70       1.0  0.23189531347962603  0.5682252571762804  0.17106949997183557  1.0000
  C   C71       1.0  0.2542523733285691  0.570673130916525  0.23779028731999563  1.0000
  C   C72       1.0  0.1933259407849732  0.5287936029526819  0.2696688601499061  1.0000
  C   C73       1.0  0.5143151017401877  0.6157859685232907  0.30639022143060396  1.0000
  C   C74       1.0  0.5502993877967981  0.5866035982514431  0.25116686040033886  1.0000
  C   C75       1.0  0.5846846801555543  0.5545922573997331  0.1895128357299781  1.0000
  C   C76       1.0  0.612848855581966  0.5253021647238469  0.13254409818048168  1.0000
  C   C77       1.0  0.46663273466391786  0.6504562418183681  0.36747771142903213  1.0000
  C   C78       1.0  0.42967155183794864  0.7222242068856488  0.37796013709808557  1.0000
  C   C79       1.0  0.37874871087770157  0.7565791538535152  0.43659591227198996  1.0000
  C   C80       1.0  0.36548871627059754  0.7204526422140134  0.4870888606717968  1.0000
  C   C81       1.0  0.40261910077267515  0.6493809656821412  0.4777126160316242  1.0000
  C   C82       1.0  0.45187158849471126  0.6144908524609535  0.4185349793268854  1.0000
  C   C83       1.0  0.6394188439798327  0.491996270104458  0.06615144010709872  1.0000
  C   C84       1.0  0.6262242304829827  0.5298002176947776  0.016325702754791387  1.0000
  C   C85       1.0  0.6472899182500882  0.4966395069115634  0.9503087865167997  1.0000
  C   C86       1.0  0.6828854515310782  0.42491768032957106  0.9322724907648875  1.0000
  C   C87       1.0  0.6970094630481826  0.3868499547786826  0.9812558216358909  1.0000
  C   C88       1.0  0.6758683978529872  0.41982494078455085  0.047532789364161915  1.0000
  C   C89       1.0  0.1717483109095568  0.6967974783633081  0.6799481752361061  1.0000
  C   C90       1.0  0.24028556454944558  0.7365813595535895  0.6504941836149597  1.0000
  C   C91       1.0  0.2466581143315523  0.7203782646513587  0.580810569140226  1.0000
  C   C92       1.0  0.18146545393423003  0.6643203996161021  0.5445261440140213  1.0000
  C   C93       1.0  0.11371486500777192  0.6283360508572926  0.5783830105626677  1.0000
  C   C94       1.0  0.32484046311881803  0.9472045553105776  0.6479454002283872  1.0000
  C   C95       1.0  0.2840912864858893  0.879358824427982  0.6178383810298483  1.0000
  C   C96       1.0  0.3528099217243578  0.8274813004104331  0.5790548452513561  1.0000
  C   C97       1.0  0.4592224970310212  0.8475163191776147  0.5710509025568412  1.0000
  C   C98       1.0  0.4917241521498425  0.9172071508611382  0.6012698473625163  1.0000
  C   C99       1.0  0.5299965320090722  0.2326090513596668  0.8189174131974042  1.0000
  C   C100      1.0  0.568109077901383  0.2999301529383586  0.8524709883414303  1.0000
  C   C101      1.0  0.6667263719269484  0.32383017927381264  0.8333162390331523  1.0000
  C   C102      1.0  0.7236666944903335  0.27675040776897225  0.7818626866238032  1.0000
  C   C103      1.0  0.6790515640096473  0.2104891853147564  0.7509729917640583  1.0000
  C   C104      1.0  0.9100369964838393  0.5152141240367314  0.8239672117061828  1.0000
  C   C105      1.0  0.851841832016241  0.4764728058421568  0.8602841345125254  1.0000
  C   C106      1.0  0.7681004648463202  0.4317755029027381  0.8289297450503524  1.0000
  C   C107      1.0  0.7457426031059742  0.4293270921830866  0.7622112403667527  1.0000
  C   C108      1.0  0.8066698375435737  0.4712060793336619  0.7303306188053467  1.0000
  C   C109      1.0  0.9856891870870685  0.11578569475477002  0.3063851438513438  1.0000
  C   C110      1.0  0.949707160419294  0.0866049953696617  0.2511702829722394  1.0000
  C   C111      1.0  0.9153217025160599  0.05459423150156792  0.1895091129219892  1.0000
  C   C112      1.0  0.8871461464825502  0.025302559888743296  0.1325423697004311  1.0000
  C   C113      1.0  0.0333667331691743  0.15045925265681598  0.36748029405018195  1.0000
  C   C114      1.0  0.07032608788902191  0.22222609533559984  0.37796637631596036  1.0000
  C   C115      1.0  0.1212506751854932  0.2565772021355457  0.43660039741487816  1.0000
  C   C116      1.0  0.1345118445524989  0.22045175036735287  0.487092168650939  1.0000
  C   C117      1.0  0.09738088497527292  0.14937904128386492  0.47771321629847546  1.0000
  C   C118      1.0  0.048129858018249615  0.11449114747295398  0.41853552130339006  1.0000
  C   C119      1.0  0.8605788835605354  0.992000406332032  0.06615271711405761  1.0000
  C   C120      1.0  0.8737702127526744  0.029801708721826994  0.016324683404874894  1.0000
  C   C121      1.0  0.8527062994871173  0.99664041691301  0.9503073850002294  1.0000
  C   C122      1.0  0.8171157665334764  0.9249191773865917  0.9322735674377397  1.0000
  C   C123      1.0  0.8029881187520117  0.8868520112577228  0.9812594077457035  1.0000
  C   C124      1.0  0.8241327252121168  0.9198307425348631  0.04753582811684957  1.0000
  C   C125      1.0  0.32824922940336176  0.19679471767007334  0.6799489878887854  1.0000
  C   C126      1.0  0.2597124889424336  0.23657814967847204  0.6504966979043444  1.0000
  C   C127      1.0  0.25333807224171784  0.22037398561366933  0.580813789351822  1.0000
  C   C128      1.0  0.3185315787913225  0.164317114877484  0.5445297064536092  1.0000
  C   C129      1.0  0.38628647199004723  0.12833267890430017  0.5783866716227735  1.0000
  C   C130      1.0  0.1751551729736249  0.4472009160223467  0.6479486303044268  1.0000
  C   C131      1.0  0.21590607132250028  0.37935513311034447  0.6178421516877818  1.0000
  C   C132      1.0  0.14718985846416643  0.32747985228255067  0.5790570854857506  1.0000
  C   C133      1.0  0.0407763676840105  0.3475150059000214  0.5710505815652097  1.0000
  C   C134      1.0  0.00827378623881  0.41721073097929917  0.6012701107944735  1.0000
  C   C135      1.0  0.9700016821157292  0.7326060357578824  0.8189143542146338  1.0000
  C   C136      1.0  0.9318914420650444  0.7999277280597565  0.8524708851487189  1.0000
  C   C137      1.0  0.8332699582958226  0.8238278821942656  0.8333169548233171  1.0000
  C   C138      1.0  0.7763287732062382  0.776747103638236  0.781860665866226  1.0000
  C   C139      1.0  0.8209424081227679  0.7104879780621118  0.750969124281738  1.0000
  C   C140      1.0  0.5899564554037369  0.015211130546902  0.8239670725711717  1.0000
  C   C141      1.0  0.6481532409817846  0.9764691288728146  0.8602832473160545  1.0000
  C   C142      1.0  0.7318986416314602  0.9317717177092745  0.8289284984839396  1.0000
  C   C143      1.0  0.7542553998056932  0.9293275910844443  0.762211015676719  1.0000
  C   C144      1.0  0.6933262535659354  0.9712061184070035  0.7303311442946379  1.0000
  N   N1        1.0  0.8175015074413851  0.7428983209111237  0.45160291105654676  1.0000
  N   N2        1.0  0.6087390182654673  0.8561786104969469  0.3549531954817623  1.0000
  N   N3        1.0  0.9267466274629966  0.5336962004830141  0.36018755224927895  1.0000
  N   N4        1.0  0.20689935058710063  0.10776666990168589  0.1355094570465809  1.0000
  N   N5        1.0  0.0831711769866246  0.311419104485445  0.2316249847230764  1.0000
  N   N6        1.0  0.38815968759089975  0.9870350193670703  0.23987864488820776  1.0000
  N   N7        1.0  0.6825061819887637  0.24289844039667938  0.45160076102779806  1.0000
  N   N8        1.0  0.8912573648013192  0.3561784599837026  0.3549499055192484  1.0000
  N   N9        1.0  0.5732574227033352  0.03369646272549429  0.3601876495330742  1.0000
  N   N10       1.0  0.29310320800573214  0.6077638849954567  0.13550950943270826  1.0000
  N   N11       1.0  0.41681581835696596  0.8114177763709591  0.23162414439680384  1.0000
  N   N12       1.0  0.1118354986288992  0.4870336150424707  0.23987890859889657  1.0000
  N   N13       1.0  0.3175008229040728  0.7571033978936512  0.5483987313358653  1.0000
  N   N14       1.0  0.108741621109246  0.6438228370731663  0.6450470568401342  1.0000
  N   N15       1.0  0.42674236511544456  0.9663053776988304  0.6398142491571335  1.0000
  N   N16       1.0  0.7068981836081178  0.39223579771314826  0.8644904507929922  1.0000
  N   N17       1.0  0.5831759504817599  0.188581905492093  0.7683748532891668  1.0000
  N   N18       1.0  0.888157072099773  0.5129693001980796  0.7601193872884834  1.0000
  N   N19       1.0  0.1824958746916039  0.25710136478114987  0.5484004180307379  1.0000
  N   N20       1.0  0.3912575619708464  0.143817839262617  0.6450479478059632  1.0000
  N   N21       1.0  0.0732531603538931  0.46630456044515967  0.6398126553085531  1.0000
  N   N22       1.0  0.7931020410234172  0.8922346297088528  0.8644903929127067  1.0000
  N   N23       1.0  0.9168221956438601  0.6885816547433806  0.7683732977646469  1.0000
  N   N24       1.0  0.611837694532774  0.012965741562652499  0.7601215626678693  1.0000
  Cl  Cl1       1.0  0.6495118680631721  0.9074271388555887  0.20683847100202962  1.0000
  Cl  Cl2       1.0  0.35111246782511785  0.9324440250184266  0.3908969966304453  1.0000
  Cl  Cl3       1.0  0.8504820257498481  0.407430815019353  0.20683646862187288  1.0000
  Cl  Cl4       1.0  0.148881224417579  0.43244149606501747  0.39089851073156007  1.0000
  Cl  Cl5       1.0  0.14951455447234  0.5925694050981322  0.7931616902015363  1.0000
  Cl  Cl6       1.0  0.8511129501228966  0.5675544133092103  0.6091010650886942  1.0000
  Cl  Cl7       1.0  0.3504839102717483  0.09257362463038991  0.793164624151032  1.0000
  Cl  Cl8       1.0  0.6488889238010102  0.06755242601564501  0.6091055904598548  1.0000
