data_image0
_chemical_formula_structural       Zr6H20C52S20O64
_chemical_formula_sum              "Zr6 H20 C52 S20 O64"
_cell_length_a       16.526627053923832
_cell_length_b       16.494195021658776
_cell_length_c       16.543357838483413
_cell_angle_alpha    60.79870435366319
_cell_angle_beta     59.83633678497911
_cell_angle_gamma    60.12956512252957

_space_group_name_H-M_alt    "P 1"
_space_group_IT_number       1

loop_
  _space_group_symop_operation_xyz
  'x, y, z'

loop_
  _atom_site_type_symbol
  _atom_site_label
  _atom_site_symmetry_multiplicity
  _atom_site_fract_x
  _atom_site_fract_y
  _atom_site_fract_z
  _atom_site_occupancy
  Zr  Zr1       1.0  0.8914337040318047  0.8960449454695403  0.5968209595344902  1.0000
  Zr  Zr2       1.0  0.11570976106438748  0.10009941023419346  0.39269329646403867  1.0000
  Zr  Zr3       1.0  0.10637166737589605  0.8880192278479127  0.6044127026912633  1.0000
  Zr  Zr4       1.0  0.9012473558728614  0.10771683207260455  0.38470027187548794  1.0000
  Zr  Zr5       1.0  0.11050311315104011  0.8911306329406301  0.387867547635274  1.0000
  Zr  Zr6       1.0  0.8969204019100516  0.10471994242856657  0.6014444491709058  1.0000
  H   H1        1.0  0.08011598504730016  0.7476418481105607  0.5790243174003608  1.0000
  H   H2        1.0  0.09322276402835429  0.08229525549541707  0.2443522359192017  1.0000
  H   H3        1.0  0.08741090511033181  0.07697348810237516  0.5848508474459351  1.0000
  H   H4        1.0  0.7507526764939952  0.08818231387078866  0.5736552142793627  1.0000
  H   H5        1.0  0.08726942898383087  0.6504969781322528  0.8801431304402175  1.0000
  H   H6        1.0  0.8250214312323297  0.6689495315639531  0.8672298147277787  1.0000
  H   H7        1.0  0.8816197105918347  0.38394224814134487  0.1478763343046906  1.0000
  H   H8        1.0  0.139402983618517  0.370034724956703  0.16522200026486192  1.0000
  H   H9        1.0  0.8852787757888265  0.24922906824187382  0.6933333376228462  1.0000
  H   H10       1.0  0.19164524135818103  0.6721183030929652  0.37901461213368043  1.0000
  H   H11       1.0  0.2564911584243038  0.8827883983789133  0.16823777748272295  1.0000
  H   H12       1.0  0.6719272720549866  0.19664794297042942  0.746392245073615  1.0000
  H   H13       1.0  0.1880778347107538  0.869015965152485  0.753553003477748  1.0000
  H   H14       1.0  0.8815250775894583  0.298090495795357  0.02337879920666102  1.0000
  H   H15       1.0  0.29740893675003843  0.5270323037371865  0.7951093309881401  1.0000
  H   H16       1.0  0.6896895949917974  0.2568866913522569  0.3658309055803882  1.0000
  H   H17       1.0  0.3097017829383618  0.30219147151749587  0.3557923977056916  1.0000
  H   H18       1.0  0.5318900192303603  0.8602621284622599  0.7984924896530714  1.0000
  H   H19       1.0  0.14241390515296362  0.6015047235823588  0.9862412344435969  1.0000
  H   H20       1.0  0.7693705463241115  0.49018462293200565  0.09883182855235614  1.0000
  C   C1        1.0  0.0035782036756230647  0.731362625170753  0.48021033518248407  1.0000
  C   C2        1.0  0.2848354897298794  0.9832500640890345  0.2281123911684092  1.0000
  C   C3        1.0  0.9947022693996955  0.27068379399678844  0.5050266306235186  1.0000
  C   C4        1.0  0.7295306685031521  0.008301481512923125  0.767403471270228  1.0000
  C   C5        1.0  0.9777546929897483  0.7412332607026925  0.7687207138611641  1.0000
  C   C6        1.0  0.7318770592193785  0.0002447683045118404  0.4905844444195466  1.0000
  C   C7        1.0  0.012302217832832725  0.2720394806788633  0.23795797269895763  1.0000
  C   C8        1.0  0.2772510166902938  0.9942850437806994  0.4967105002629424  1.0000
  C   C9        1.0  0.27503101104220945  0.7269646257933857  0.49668015297422136  1.0000
  C   C10       1.0  0.0014054655180051024  0.9881707126300793  0.7758057344959256  1.0000
  C   C11       1.0  0.7345129855656011  0.2790168325219824  0.48511082276086626  1.0000
  C   C12       1.0  0.0014544865884507968  0.9999686823387884  0.22361717319316196  1.0000
  C   C13       1.0  0.9241245188135707  0.42116410476970834  0.5633096404013286  1.0000
  C   C14       1.0  0.06768096453651426  0.5849454765622822  0.4184296156417275  1.0000
  C   C15       1.0  0.9896145407780637  0.36385626942173827  0.5007335923858205  1.0000
  C   C16       1.0  0.0018663828129989034  0.6431107194650281  0.48036237566598333  1.0000
  C   C17       1.0  0.037359089646784686  0.5057693099564559  0.44725337863280146  1.0000
  C   C18       1.0  0.95110305074288  0.5035418683475823  0.5320388580334593  1.0000
  C   C19       1.0  0.42882386120765414  0.9214671973996642  0.08166354881385723  1.0000
  C   C20       1.0  0.5915307276616346  0.0661347795253847  0.9182068839007516  1.0000
  C   C21       1.0  0.374666496467114  0.9832987574979767  0.13990944996086804  1.0000
  C   C22       1.0  0.6457967070224907  0.0038054040592782586  0.8606662896226711  1.0000
  C   C23       1.0  0.5134562578495192  0.034804753702083246  0.0005377712148372294  1.0000
  C   C24       1.0  0.5096310399622013  0.9501729818318552  0.002582407315976775  1.0000
  C   C25       1.0  0.06353975868322002  0.9192714579569594  0.9211347310993435  1.0000
  C   C26       1.0  0.9336854929220948  0.06695840371969543  0.08290428737046794  1.0000
  C   C27       1.0  0.00040241870518543715  0.9862428088528217  0.8662434378072988  1.0000
  C   C28       1.0  0.9972044133269476  0.9992407046290025  0.1371872221732318  1.0000
  C   C29       1.0  0.9575294778401117  0.037426132564860416  0.003941024611336328  1.0000
  C   C30       1.0  0.03873507935136918  0.9486259339510851  0.0002580215889267103  1.0000
  C   C31       1.0  0.41647041862271567  0.5862750586199111  0.5637733581617753  1.0000
  C   C32       1.0  0.5957676849136319  0.4241803705499477  0.41641591182751386  1.0000
  C   C33       1.0  0.36637695822572175  0.6404553697816127  0.4960559611027694  1.0000
  C   C34       1.0  0.6468312205292435  0.36928796064739067  0.4833731434521482  1.0000
  C   C35       1.0  0.5121771141879493  0.5033689898020909  0.44569687458677265  1.0000
  C   C36       1.0  0.501004065403869  0.5071751646614686  0.5343893878897461  1.0000
  C   C37       1.0  0.02657551494915845  0.622387221055014  0.9139897757181645  1.0000
  C   C38       1.0  0.8778911077550832  0.6331622510338376  0.9052816578857802  1.0000
  C   C39       1.0  0.8652272457577226  0.5564651601413358  0.992813262003665  1.0000
  C   C40       1.0  0.9375840645496398  0.5058512071365583  0.04059479884217833  1.0000
  C   C41       1.0  0.9368681228589537  0.417559622468822  0.11942793482094062  1.0000
  C   C42       1.0  0.08410805645822714  0.40823918863398484  0.12960241335226635  1.0000
  C   C43       1.0  0.08603981466823303  0.49568317630789227  0.05277442266521596  1.0000
  C   C44       1.0  0.016259126537399297  0.5436853375447439  0.0024025844330211005  1.0000
  C   C45       1.0  0.9601720440410871  0.6639900693531473  0.8652578530787239  1.0000
  C   C46       1.0  0.010628755156354064  0.3685869883673973  0.16077986727458443  1.0000
  C   C47       1.0  0.41831157375553824  0.06387370737601114  0.4271355800450393  1.0000
  C   C48       1.0  0.5906471239990767  0.9309571090239145  0.5601470119274339  1.0000
  C   C49       1.0  0.3669574275218468  0.9968091969850051  0.49309118329738777  1.0000
  C   C50       1.0  0.6433112958123606  0.9967156843353137  0.49293157052674264  1.0000
  C   C51       1.0  0.5087681540743676  0.9553105910395983  0.5355564594794515  1.0000
  C   C52       1.0  0.5004995112071454  0.0392478181818703  0.45142087296281375  1.0000
  S   S1        1.0  0.08368361480852826  0.4093835979804226  0.40496282965738584  1.0000
  S   S2        1.0  0.9054163133101769  0.5998060605375741  0.5744174280379468  1.0000
  S   S3        1.0  0.42056213673539833  0.07713545315389328  0.09681407447882145  1.0000
  S   S4        1.0  0.6019061303024029  0.9081027871896055  0.9060255100495453  1.0000
  S   S5        1.0  0.9112212319681132  0.08362392657320349  0.9118407625453173  1.0000
  S   S6        1.0  0.08516194903239009  0.9015021638549428  0.09241021110602785  1.0000
  S   S7        1.0  0.42076218757431855  0.5955114454300342  0.3985033740995264  1.0000
  S   S8        1.0  0.5931958114398909  0.41504060192048076  0.5806274149111702  1.0000
  S   S9        1.0  0.417936139830715  0.9055842573873322  0.583398917928143  1.0000
  S   S10       1.0  0.5934294936050577  0.0868678802280982  0.40152641700461794  1.0000
  S   S11       1.0  0.8193701522805483  0.40126113984252504  0.6706276996264435  1.0000
  S   S12       1.0  0.17968409686719156  0.5952217574533377  0.3178188510528628  1.0000
  S   S13       1.0  0.40670501793119507  0.821241539371698  0.09179096676871272  1.0000
  S   S14       1.0  0.6090712542189536  0.1732226935346261  0.8985622949599236  1.0000
  S   S15       1.0  0.16420129553620227  0.8091606952731423  0.9049583811614499  1.0000
  S   S16       1.0  0.8311991307686668  0.1753596063752738  0.10204918112628988  1.0000
  S   S17       1.0  0.39157592254743184  0.6057162857546529  0.671928624154539  1.0000
  S   S18       1.0  0.6214397687201441  0.4081506923306577  0.306214038045816  1.0000
  S   S19       1.0  0.39831788566239373  0.16741619428462678  0.3217421412550294  1.0000
  S   S20       1.0  0.6121824636156319  0.825848308785822  0.6639373850584533  1.0000
  O   O1        1.0  0.931741936502107  0.7719143550899971  0.5439534914467075  1.0000
  O   O2        1.0  0.2524518105783642  0.047015624205485614  0.2686172286372255  1.0000
  O   O3        1.0  0.06362463293867655  0.2350904361382078  0.4366768863998091  1.0000
  O   O4        1.0  0.7645100660919514  0.9400675630324427  0.7316755185788182  1.0000
  O   O5        1.0  0.050484546209482124  0.7710006954910893  0.7346706118561884  1.0000
  O   O6        1.0  0.7676975799567316  0.06790805745630012  0.4214416066417996  1.0000
  O   O7        1.0  0.943809106433079  0.2380411266372279  0.26774935307956566  1.0000
  O   O8        1.0  0.2430215493976606  0.925084097951412  0.5643838147181626  1.0000
  O   O9        1.0  0.24335860143144578  0.761135092590763  0.42578138851288844  1.0000
  O   O10       1.0  0.9326073436240776  0.05572315308354806  0.7417011580861514  1.0000
  O   O11       1.0  0.7699234355844098  0.24493510319285158  0.5526124628456445  1.0000
  O   O12       1.0  0.06982191015828242  0.9290396450837476  0.2578366419722756  1.0000
  O   O13       1.0  0.0739666481131423  0.9221222453669495  0.7352538091266396  1.0000
  O   O14       1.0  0.7686521141130099  0.23856517010310083  0.41895155239985366  1.0000
  O   O15       1.0  0.9375583098994156  0.07146831572209308  0.25751695948336123  1.0000
  O   O16       1.0  0.23354124265563317  0.7609485847096523  0.5681237358424981  1.0000
  O   O17       1.0  0.9181681971664094  0.7735552926959739  0.7229565043809103  1.0000
  O   O18       1.0  0.2393013745258158  0.06402393723043794  0.4312260162967903  1.0000
  O   O19       1.0  0.0854285669625483  0.226156840859538  0.270172239495338  1.0000
  O   O20       1.0  0.7654316202511355  0.9348106027517884  0.560417158860581  1.0000
  O   O21       1.0  0.7611592102917156  0.08198639209659579  0.7267551508160041  1.0000
  O   O22       1.0  0.07884271320388377  0.7610248836247491  0.416396323046115  1.0000
  O   O23       1.0  0.24360534560450736  0.9195724999465895  0.2576992449635044  1.0000
  O   O24       1.0  0.9301416589474626  0.22992198216892473  0.5787254029626753  1.0000
  O   O25       1.0  0.8227143318204639  0.0635551115967061  0.5509480614703364  1.0000
  O   O26       1.0  0.06280750689990812  0.05424847519455511  0.5602197374373291  1.0000
  O   O27       1.0  0.0694446033715792  0.05578440163694153  0.31570214712857597  1.0000
  O   O28       1.0  0.05906889762439252  0.8189886785747263  0.5524969597108864  1.0000
  O   O29       1.0  0.13766149839345632  0.9496537365252988  0.45316642798514556  1.0000
  O   O30       1.0  0.9595168683482175  0.9564657987426342  0.44636449121006916  1.0000
  O   O31       1.0  0.9620851257488992  0.1303564899854878  0.4523952872018596  1.0000
  O   O32       1.0  0.9551754752494688  0.9556823666572993  0.627046549693333  1.0000
  O   O33       1.0  0.8652283922741689  0.29084431847839187  0.7326641060411205  1.0000
  O   O34       1.0  0.7470931082121339  0.4076724633514957  0.6418868288114652  1.0000
  O   O35       1.0  0.7956849613709523  0.46240634505224426  0.7234195503374822  1.0000
  O   O36       1.0  0.23558928676023794  0.609364603935468  0.36213473261729945  1.0000
  O   O37       1.0  0.15614416359784428  0.6810468032905276  0.237481465154282  1.0000
  O   O38       1.0  0.23558672727579485  0.4992168388649815  0.30541370661123324  1.0000
  O   O39       1.0  0.29241486914195786  0.8662351783954063  0.10531984405726978  1.0000
  O   O40       1.0  0.424043146169602  0.7408947223839064  0.1778785568077055  1.0000
  O   O41       1.0  0.4594431288507582  0.8086877954934905  0.9958465335278889  1.0000
  O   O42       1.0  0.6111018820845188  0.23567631521750326  0.7883236858981777  1.0000
  O   O43       1.0  0.703909429743291  0.14427374164707615  0.9045932271571291  1.0000
  O   O44       1.0  0.5190800485803708  0.22580663948004795  0.9600946230509282  1.0000
  O   O45       1.0  0.23038109377495888  0.8435944396980872  0.7935100577900228  1.0000
  O   O46       1.0  0.12537901025357454  0.739549715586399  0.9197141584106278  1.0000
  O   O47       1.0  0.21979333030193285  0.7832150770707853  0.9631822074342157  1.0000
  O   O48       1.0  0.8820118277606211  0.2462374567393937  0.0870490678684844  1.0000
  O   O49       1.0  0.7659013087893384  0.1541617348598479  0.2019631351760865  1.0000
  O   O50       1.0  0.7971880304233422  0.21840682452573637  0.02029729537411377  1.0000
  O   O51       1.0  0.2850395639744718  0.5904846948320281  0.7430120005203665  1.0000
  O   O52       1.0  0.3779614311425376  0.7057199131505242  0.6506042183861355  1.0000
  O   O53       1.0  0.4644884888329488  0.524175474866176  0.7148364234215946  1.0000
  O   O54       1.0  0.6328980506967596  0.29659496896028503  0.3403131044067321  1.0000
  O   O55       1.0  0.7148614228904864  0.42347973128364186  0.236540034335519  1.0000
  O   O56       1.0  0.5334327553236237  0.4660786045084037  0.2804842177297359  1.0000
  O   O57       1.0  0.2958358123771134  0.2440152633122068  0.3703825977466124  1.0000
  O   O58       1.0  0.3809694220785644  0.14305345981966155  0.2612472691932695  1.0000
  O   O59       1.0  0.47639092535683136  0.2066048713867517  0.28217940981644307  1.0000
  O   O60       1.0  0.589218850931353  0.8749879008532985  0.7402319924463827  1.0000
  O   O61       1.0  0.7143403417107238  0.7651627508470112  0.6399057665683188  1.0000
  O   O62       1.0  0.5343851208927147  0.7864041272721917  0.703157879137308  1.0000
  O   O63       1.0  0.15835502595560086  0.530819862846492  0.024190037090974666  1.0000
  O   O64       1.0  0.7860251480306457  0.5283039469412429  0.02818759014449046  1.0000
