data_image0
_chemical_formula_structural       Zn2H40C44N4O8
_chemical_formula_sum              "Zn2 H40 C44 N4 O8"
_cell_length_a       8.97671933188811
_cell_length_b       9.894526561954219
_cell_length_c       12.245471216457828
_cell_angle_alpha    83.08720031811283
_cell_angle_beta     71.67640217060652
_cell_angle_gamma    76.80026608173816

_space_group_name_H-M_alt    "P 1"
_space_group_IT_number       1

loop_
  _space_group_symop_operation_xyz
  'x, y, z'

loop_
  _atom_site_type_symbol
  _atom_site_label
  _atom_site_symmetry_multiplicity
  _atom_site_fract_x
  _atom_site_fract_y
  _atom_site_fract_z
  _atom_site_occupancy
  Zn  Zn1       1.0  0.3286573384600472  0.10902618278021947  0.6950326470985925  1.0000
  Zn  Zn2       1.0  0.671344544064489  0.890973445492811  0.30496617265720966  1.0000
  H   H1        1.0  0.573846184733199  0.7154962161227445  0.9405027078006893  1.0000
  H   H2        1.0  0.42615477555740705  0.28450236570693466  0.059498876047484765  1.0000
  H   H3        1.0  0.6927201609869796  0.45905966598861164  0.9521516157097591  1.0000
  H   H4        1.0  0.3072796216846568  0.5409389166233607  0.04784779049148822  1.0000
  H   H5        1.0  0.725454195324751  0.3133358165938774  0.7918235952114754  1.0000
  H   H6        1.0  0.27454509596558546  0.6866648450524763  0.20817572406969012  1.0000
  H   H7        1.0  0.5263696885259179  0.6733899889453738  0.6095330028428944  1.0000
  H   H8        1.0  0.47362818753344993  0.32661170657675587  0.39046817723068716  1.0000
  H   H9        1.0  0.7445405785557423  0.3084733660727395  0.5827833285164629  1.0000
  H   H10       1.0  0.25545939250933714  0.6915293789646808  0.4172148159720378  1.0000
  H   H11       1.0  0.6407911705268388  0.45403417378074096  0.5150043266552515  1.0000
  H   H12       1.0  0.3592062125354971  0.5459696020605164  0.4849959501183675  1.0000
  H   H13       1.0  0.3271781127203182  0.9453372467216066  0.5127531268963921  1.0000
  H   H14       1.0  0.6728237698042248  0.05466238155143089  0.4872456928594031  1.0000
  H   H15       1.0  0.21371419366755626  0.9700771850111279  0.350467664912756  1.0000
  H   H16       1.0  0.7862855906198121  0.0299213963161051  0.6495325576683653  1.0000
  H   H17       1.0  0.9782065358777741  0.38870211806207067  0.4500493895732517  1.0000
  H   H18       1.0  0.02179114694097001  0.6112954188888365  0.5499506030734549  1.0000
  H   H19       1.0  0.10687048848058112  0.3471829734420948  0.6079973669653569  1.0000
  H   H20       1.0  0.8931269470317814  0.6528156043107528  0.39200176584143503  1.0000
  H   H21       1.0  0.0967348911755934  0.14514237079990974  0.21681439909255565  1.0000
  H   H22       1.0  0.903263471417894  0.854857249542064  0.783184418761486  1.0000
  H   H23       1.0  0.9125994642092365  0.1287130465769621  0.3187259734936986  1.0000
  H   H24       1.0  0.08739772561246893  0.8712865706930726  0.6812731158530454  1.0000
  H   H25       1.0  0.0160779653473142  0.40701333020060554  0.23182044295106144  1.0000
  H   H26       1.0  0.9839229933275604  0.5929852529138201  0.7681803245172386  1.0000
  H   H27       1.0  0.8326818820382156  0.38839261995789087  0.3335339795356305  1.0000
  H   H28       1.0  0.16731623971180906  0.6116080360470519  0.6664672439979923  1.0000
  H   H29       1.0  0.7522744147106193  0.27855336265524494  0.1992020099583413  1.0000
  H   H30       1.0  0.2477243851984169  0.7214493780254969  0.8007972224027423  1.0000
  H   H31       1.0  0.7827303226250065  0.4471478465923937  0.1519534427753371  1.0000
  H   H32       1.0  0.2172722429057359  0.5528538625022177  0.8480458349475481  1.0000
  H   H33       1.0  0.7921785699602848  0.17557823302800557  0.01916793937797926  1.0000
  H   H34       1.0  0.20782306687360824  0.8244224347622192  0.980830836917775  1.0000
  H   H35       1.0  0.9829450939829768  0.09375590042396449  0.8314407707908698  1.0000
  H   H36       1.0  0.017055370079134564  0.9062447642943208  0.1685582769975937  1.0000
  H   H37       1.0  0.3312845744630549  0.28163212822421707  0.8675720606159555  1.0000
  H   H38       1.0  0.6687170623708311  0.7183685395660075  0.1324267156797987  1.0000
  H   H39       1.0  0.1523159247722035  0.3780560966809715  0.053696532110230094  1.0000
  H   H40       1.0  0.8476845409056393  0.6219445667525747  0.9463033320581002  1.0000
  C   C1        1.0  0.466983218326078  0.860316884804696  0.7725053647110653  1.0000
  C   C2        1.0  0.5330163251178277  0.1396827321855056  0.22749726354963679  1.0000
  C   C3        1.0  0.5451772929860752  0.7088113332228261  0.774186925030264  1.0000
  C   C4        1.0  0.4548215690673628  0.2911862016610555  0.22581606164322907  1.0000
  C   C5        1.0  0.5921974378868953  0.6487879170491196  0.8707946125843332  1.0000
  C   C6        1.0  0.4078035240194425  0.35121066349582714  0.12920778764370763  1.0000
  C   C7        1.0  0.6583225140047447  0.5070209046451096  0.8763537090859186  1.0000
  C   C8        1.0  0.34167751758900516  0.4929766358801828  0.12364737333512464  1.0000
  C   C9        1.0  0.6766616119605614  0.42481340525618083  0.786227629815279  1.0000
  C   C10       1.0  0.32333934671431297  0.5751851778582449  0.21377313765301403  1.0000
  C   C11       1.0  0.6292492273043421  0.4832788306576248  0.6891022842809205  1.0000
  C   C12       1.0  0.3707510515957892  0.5167176690657413  0.3108996579800375  1.0000
  C   C13       1.0  0.564474749693332  0.6257264235705406  0.6838887532888193  1.0000
  C   C14       1.0  0.4355264546721926  0.37427112002669105  0.3161120576395148  1.0000
  C   C15       1.0  0.6378784124635573  0.3922011092103047  0.5963371189172761  1.0000
  C   C16       1.0  0.36212205159855426  0.607799555507988  0.4036619288711874  1.0000
  C   C17       1.0  0.49005872991273236  0.32629496141614556  0.6317738857134285  1.0000
  C   C18       1.0  0.5099403205341416  0.6737067358931836  0.36822783924731783  1.0000
  C   C19       1.0  0.24691864897404503  0.041109064875996595  0.4970803333202482  1.0000
  C   C20       1.0  0.7530797136194421  0.9588905554659704  0.5029184845337935  1.0000
  C   C21       1.0  0.18107709118622486  0.0559936081625665  0.40697674618851204  1.0000
  C   C22       1.0  0.8189215203293685  0.9440049700927347  0.5930237478853184  1.0000
  C   C23       1.0  0.07952197395704266  0.18086349319332126  0.3878498521557318  1.0000
  C   C24       1.0  0.920478981486376  0.8191350924905831  0.6121492825528134  1.0000
  C   C25       1.0  0.0526396293978664  0.2877236362502984  0.4615495422334062  1.0000
  C   C26       1.0  0.9473613260455521  0.7122749494336061  0.538449592475139  1.0000
  C   C27       1.0  0.12264304743475658  0.2658233348681236  0.5502862649873279  1.0000
  C   C28       1.0  0.8773553167744622  0.7341762841891109  0.4497133692465878  1.0000
  C   C29       1.0  0.004369556257479708  0.19380959912099624  0.2922752698761285  1.0000
  C   C30       1.0  0.995629980723507  0.8061900230081701  0.7077240928650779  1.0000
  C   C31       1.0  0.9266214957845162  0.34022522072700667  0.2592647119694859  1.0000
  C   C32       1.0  0.07337779712155172  0.6597754396346074  0.7407354236915535  1.0000
  C   C33       1.0  0.8457793546633994  0.3401503020757984  0.1662308536202771  1.0000
  C   C34       1.0  0.1542211093987191  0.6598503626424942  0.8337681941681864  1.0000
  C   C35       1.0  0.9553449814505726  0.2866792653013803  0.05275575762117768  1.0000
  C   C36       1.0  0.04465548422727039  0.7133213981321731  0.9472441065471597  1.0000
  C   C37       1.0  0.9092844045015053  0.20469996658519554  0.9880257162580646  1.0000
  C   C38       1.0  0.09071605956060586  0.7953006981330899  0.011973331530398897  1.0000
  C   C39       1.0  0.0154786559731832  0.1575881022053167  0.8836300913105999  1.0000
  C   C40       1.0  0.9845220537795781  0.8424115229957819  0.1163689999379044  1.0000
  C   C41       1.0  0.20952673853062723  0.2634817943451181  0.9033641011575636  1.0000
  C   C42       1.0  0.7904737255314841  0.7365188703731747  0.09663494663089985  1.0000
  C   C43       1.0  0.1091056507331274  0.316285428800839  0.006963535708209205  1.0000
  C   C44       1.0  0.8908948149447152  0.6837152346327144  0.9930363284601282  1.0000
  N   N1        1.0  0.21716576737318863  0.14388366346402384  0.5689201024541076  1.0000
  N   N2        1.0  0.7828325968360234  0.8561159555932033  0.43107953177980807  1.0000
  N   N3        1.0  0.1636679322388446  0.18547339405240848  0.8417562201416044  1.0000
  N   N4        1.0  0.8363313606672234  0.8145272663092057  0.158243915519435  1.0000
  O   O1        1.0  0.45787633714191855  0.9344537787663683  0.8508940660574493  1.0000
  O   O2        1.0  0.5421253045391622  0.06554688516963127  0.14910715937793376  1.0000
  O   O3        1.0  0.4071638209173756  0.9051877763178026  0.6870750550764483  1.0000
  O   O4        1.0  0.5928340599891867  0.09481391535011596  0.3129285741367553  1.0000
  O   O5        1.0  0.354095938861306  0.3987782978289829  0.6383424239621717  1.0000
  O   O6        1.0  0.6459047757386428  0.6012213235178904  0.36165911642595455  1.0000
  O   O7        1.0  0.5186313202707492  0.1931565818329517  0.6556977162536198  1.0000
  O   O8        1.0  0.48137149256637474  0.806844086459726  0.34430242130918026  1.0000
