data_image0
_chemical_formula_structural       Al4H28C52O24
_chemical_formula_sum              "Al4 H28 C52 O24"
_cell_length_a       6.686034999047091
_cell_length_b       19.97907083047102
_cell_length_c       23.30039910374832
_cell_angle_alpha    93.08111625672475
_cell_angle_beta     89.99984373846354
_cell_angle_gamma    90.00049307219308

_space_group_name_H-M_alt    "P 1"
_space_group_IT_number       1

loop_
  _space_group_symop_operation_xyz
  'x, y, z'

loop_
  _atom_site_type_symbol
  _atom_site_label
  _atom_site_symmetry_multiplicity
  _atom_site_fract_x
  _atom_site_fract_y
  _atom_site_fract_z
  _atom_site_occupancy
  Al  Al1       1.0  0.7527148656991898  0.7489937103485647  0.25082334209194107  1.0000
  Al  Al2       1.0  0.2471266394376954  0.250682993610056  0.7495689996165781  1.0000
  Al  Al3       1.0  0.2528835306229951  0.7506874734199513  0.2495717048191892  1.0000
  Al  Al4       1.0  0.7472870186089936  0.24899316079127234  0.7508275153305632  1.0000
  H   H1        1.0  0.6865700092833009  0.987288754164972  0.4542770866245505  1.0000
  H   H2        1.0  0.30698751334095675  0.0552752433471468  0.5139097329356089  1.0000
  H   H3        1.0  0.1929828417522828  0.5552766712675421  0.013905628759822299  1.0000
  H   H4        1.0  0.8134073985815249  0.4872847568289415  0.9542798927161512  1.0000
  H   H5        1.0  0.6908299111011617  0.9022749761708724  0.3724978344155474  1.0000
  H   H6        1.0  0.3075300793951854  0.13576912180374023  0.5988605460720463  1.0000
  H   H7        1.0  0.19245302343286136  0.6357755273919495  0.09885601536375789  1.0000
  H   H8        1.0  0.8091615118360665  0.402271236427872  0.8725049433720925  1.0000
  H   H9        1.0  0.3175617584921184  0.8692226872192564  0.3990511018916933  1.0000
  H   H10       1.0  0.6880582999998239  0.09332069802864851  0.6290469589660148  1.0000
  H   H11       1.0  0.8119105943363466  0.5933124660753892  0.1290444321957764  1.0000
  H   H12       1.0  0.1824247488555741  0.3692161999839031  0.8990424529569482  1.0000
  H   H13       1.0  0.3130669693305704  0.9502914827643353  0.48366785016718694  1.0000
  H   H14       1.0  0.6886389009129559  0.008869218477912008  0.5469319152967245  1.0000
  H   H15       1.0  0.8113260802054327  0.5088616456674445  0.046931968250611106  1.0000
  H   H16       1.0  0.186893418645468  0.45028761397357214  0.983660916607974  1.0000
  H   H17       1.0  0.33725398656821426  0.04361620246599783  0.9744539642811815  1.0000
  H   H18       1.0  0.662105925086138  0.9565093837767056  0.0259046624439137  1.0000
  H   H19       1.0  0.8379065639322362  0.4565061714984822  0.5259031429853849  1.0000
  H   H20       1.0  0.16275606290722777  0.5436136759319723  0.4744597777956798  1.0000
  H   H21       1.0  0.298955915506312  0.9299610032911263  0.08655357899635871  1.0000
  H   H22       1.0  0.6999029646282864  0.07103485978900181  0.9144652277818962  1.0000
  H   H23       1.0  0.8001149402405545  0.5710426795932193  0.4144717485603948  1.0000
  H   H24       1.0  0.2010681873232727  0.42995034243296004  0.5865496340843138  1.0000
  H   H25       1.0  0.5066870763326037  0.8359629807839185  0.23874790026601292  1.0000
  H   H26       1.0  0.4930227956221671  0.16188433533918814  0.7544480238239615  1.0000
  H   H27       1.0  0.006978492138003401  0.6618877826474049  0.25445058116829233  1.0000
  H   H28       1.0  0.9933221634293686  0.335958346569207  0.7387423334636622  1.0000
  C   C1        1.0  0.5034252213209597  0.6725041770378086  0.3265363342453966  1.0000
  C   C2        1.0  0.5041742502073774  0.3274890619664036  0.6738187793896699  1.0000
  C   C3        1.0  0.9958349693475553  0.8274919057172526  0.1738190557188091  1.0000
  C   C4        1.0  0.9965858500755188  0.1724983620145863  0.8265277545795371  1.0000
  C   C5        1.0  0.4993677326008168  0.6673520792845551  0.17035084869942807  1.0000
  C   C6        1.0  0.4929850287193389  0.33227609338965186  0.8298884683958575  1.0000
  C   C7        1.0  0.0070125166916029  0.8322807760597614  0.3298867285099902  1.0000
  C   C8        1.0  0.0006310708798622  0.16735189076428722  0.6703531565463762  1.0000
  C   C9        1.0  0.8248533494602839  0.9606243845988234  0.4433063958950071  1.0000
  C   C10       1.0  0.17190900828435926  0.061977064445365215  0.5397885239369415  1.0000
  C   C11       1.0  0.3280734279219645  0.5619748721765279  0.039785981806034  1.0000
  C   C12       1.0  0.675136697336498  0.46061936286239563  0.9433054922279496  1.0000
  C   C13       1.0  0.8264634996894316  0.9137275907207681  0.3970363394672916  1.0000
  C   C14       1.0  0.1727831201800711  0.10771238421749985  0.586862090340908  1.0000
  C   C15       1.0  0.3272080933840229  0.6077127461294155  0.08686041013024239  1.0000
  C   C16       1.0  0.6735356768537599  0.41372544125220406  0.8970414561459705  1.0000
  C   C17       1.0  0.0045663179072193  0.8810872352267086  0.3805050649823158  1.0000
  C   C18       1.0  0.9984056021372255  0.11911119964231179  0.6193490314613327  1.0000
  C   C19       1.0  0.5015940800285534  0.6191088103445709  0.1193464344875039  1.0000
  C   C20       1.0  0.49543560358537053  0.3810824776882243  0.8805055126630634  1.0000
  C   C21       1.0  0.18014289454286106  0.8953432667519795  0.41175482429952137  1.0000
  C   C22       1.0  0.8232534240544993  0.08408908272512151  0.603698901252109  1.0000
  C   C23       1.0  0.6767347137492336  0.5840829691327302  0.1036948117576841  1.0000
  C   C24       1.0  0.3198563755307616  0.3953351396654767  0.9117473059851876  1.0000
  C   C25       1.0  0.1769787438505546  0.941376846992739  0.45862569276790316  1.0000
  C   C26       1.0  0.8240768651029811  0.037486558491693196  0.5572020749864277  1.0000
  C   C27       1.0  0.6759039606770613  0.5374824719940678  0.05719841729985119  1.0000
  C   C28       1.0  0.3230113662316896  0.44137397150164764  0.9586220416638226  1.0000
  C   C29       1.0  0.9999079513424575  0.9754876036809537  0.4751143370792832  1.0000
  C   C30       1.0  0.9984207191884521  0.025306178087838308  0.5243062803397792  1.0000
  C   C31       1.0  0.501562831741964  0.5253012860409642  0.0243036820672771  1.0000
  C   C32       1.0  0.5000689920112649  0.4754830901063728  0.9751114858573119  1.0000
  C   C33       1.0  0.172370610483803  0.9804110926654629  0.0293893982938513  1.0000
  C   C34       1.0  0.8268083312378706  0.020006142560134815  0.971192870817255  1.0000
  C   C35       1.0  0.6732091914500629  0.5200068483157454  0.4711939464124341  1.0000
  C   C36       1.0  0.3276463791242037  0.4804028538948657  0.5293878879623364  1.0000
  C   C37       1.0  0.9808508340379377  0.9551436189038042  0.0438253321948849  1.0000
  C   C38       1.0  0.0184836536828854  0.045130118736409514  0.9566382403690314  1.0000
  C   C39       1.0  0.481529506133235  0.5451315646308359  0.4566406813148589  1.0000
  C   C40       1.0  0.5191675229022437  0.4551321369701712  0.5438224553676747  1.0000
  C   C41       1.0  0.8088942950279262  0.9752159657636454  0.014440532203970203  1.0000
  C   C42       1.0  0.19042673065093396  0.024979276266769518  0.9859598205072332  1.0000
  C   C43       1.0  0.30958266915175164  0.5249763112237178  0.4859615970665772  1.0000
  C   C44       1.0  0.6911218370171851  0.4752093420627547  0.5144374604194581  1.0000
  C   C45       1.0  0.9736798485607281  0.9101778197611314  0.0883516776645834  1.0000
  C   C46       1.0  0.0250488992352871  0.09010854745460513  0.9120895531508424  1.0000
  C   C47       1.0  0.4749688856280656  0.59011264785525  0.4121027476491718  1.0000
  C   C48       1.0  0.5263368751718147  0.41016669330291233  0.5883462140831669  1.0000
  C   C49       1.0  0.0060472987235514  0.12812624664026376  0.873091297311845  1.0000
  C   C50       1.0  0.9908298283634737  0.8721644019650442  0.127451365932032  1.0000
  C   C51       1.0  0.5091825176752494  0.37215537558651596  0.6274480720874179  1.0000
  C   C52       1.0  0.4939688811808196  0.6281413924823128  0.3730963099304816  1.0000
  O   O1        1.0  0.329425802023998  0.6905410772550981  0.1863989082744411  1.0000
  O   O2        1.0  0.661210077786663  0.316308849062196  0.8072040663768619  1.0000
  O   O3        1.0  0.83880274309206  0.8163110771405614  0.3071997951418481  1.0000
  O   O4        1.0  0.17057369075772033  0.19053997055448244  0.6863967225746848  1.0000
  O   O5        1.0  0.6763038195963063  0.6924926325245764  0.31196251875167036  1.0000
  O   O6        1.0  0.3332027122804391  0.314481328934626  0.6948611059831648  1.0000
  O   O7        1.0  0.1668157244186688  0.8144840237118488  0.19486218997648308  1.0000
  O   O8        1.0  0.8237034704418276  0.19249131332555441  0.8119597272551573  1.0000
  O   O9        1.0  0.6665851002259158  0.6810996985904866  0.1946481525527304  1.0000
  O   O10       1.0  0.3226670322027232  0.31093752928467927  0.8124649849773106  1.0000
  O   O11       1.0  0.1773463415403072  0.8109438293895367  0.31246734813301197  1.0000
  O   O12       1.0  0.833417793244287  0.18110048691198702  0.6946548062654757  1.0000
  O   O13       1.0  0.8268794413871489  0.8056872393563952  0.1897367023190455  1.0000
  O   O14       1.0  0.1632117907006361  0.18702125196745104  0.8038802734197859  1.0000
  O   O15       1.0  0.33678862301581364  0.6870258031719986  0.3038893290352007  1.0000
  O   O16       1.0  0.6731275128081506  0.3056866439285032  0.6897426798626043  1.0000
  O   O17       1.0  0.5037264130395869  0.790433892472926  0.25103453439082557  1.0000
  O   O18       1.0  0.49642170678257  0.20952226865990303  0.7488839030282222  1.0000
  O   O19       1.0  0.0035841394287743004  0.709525602454903  0.2488847450769924  1.0000
  O   O20       1.0  0.996285788617719  0.29043108556565767  0.7510341225651587  1.0000
  O   O21       1.0  0.3396936312506894  0.9614626041323436  0.0577837134479537  1.0000
  O   O22       1.0  0.6593985657635526  0.03917711939363501  0.9429723063915033  1.0000
  O   O23       1.0  0.8406107156425049  0.5391854430663942  0.4429774915603204  1.0000
  O   O24       1.0  0.1603196409997381  0.4614509117326123  0.5577806743610552  1.0000
