data_image0
_chemical_formula_structural       Cd2H32C28S4N8
_chemical_formula_sum              "Cd2 H32 C28 S4 N8"
_cell_length_a       8.930875714595201
_cell_length_b       10.266403108089861
_cell_length_c       11.025817127550692
_cell_angle_alpha    114.22933106420359
_cell_angle_beta     109.23968874657459
_cell_angle_gamma    98.73422496047246

_space_group_name_H-M_alt    "P 1"
_space_group_IT_number       1

loop_
  _space_group_symop_operation_xyz
  'x, y, z'

loop_
  _atom_site_type_symbol
  _atom_site_label
  _atom_site_symmetry_multiplicity
  _atom_site_fract_x
  _atom_site_fract_y
  _atom_site_fract_z
  _atom_site_occupancy
  Cd  Cd1       1.0  0.12683416984094006  0.25099936000821527  0.957595327082231  1.0000
  Cd  Cd2       1.0  0.8731615056640437  0.7489838683614636  0.042400400216969475  1.0000
  H   H1        1.0  0.9381958791296158  0.23004208167932913  0.6280528509602235  1.0000
  H   H2        1.0  0.061803231213460125  0.7699603814958988  0.37195018525864754  1.0000
  H   H3        1.0  0.989093619746157  0.17772038045931984  0.40383124540122856  1.0000
  H   H4        1.0  0.010906454799254577  0.822294512784282  0.5961740430271405  1.0000
  H   H5        1.0  0.26007231139165293  0.1389250848416097  0.4068956026296391  1.0000
  H   H6        1.0  0.7399229154428681  0.8610829820545476  0.5931021703664784  1.0000
  H   H7        1.0  0.47178429946927025  0.15604271509894113  0.6357352988397054  1.0000
  H   H8        1.0  0.5282148585164917  0.8439631045459632  0.3642599536203476  1.0000
  H   H9        1.0  0.5516018386668691  0.19388011502083902  0.883948194550996  1.0000
  H   H10       1.0  0.44840445088931347  0.8061257554173692  0.1160508009741151  1.0000
  H   H11       1.0  0.6359167786661785  0.22503892004963424  0.10716552985051916  1.0000
  H   H12       1.0  0.36408306189152745  0.7749590188860722  0.8928341718828748  1.0000
  H   H13       1.0  0.40638736495535704  0.02527443247160479  0.07832303660933349  1.0000
  H   H14       1.0  0.5936109215262491  0.9747257753256233  0.9216816443821968  1.0000
  H   H15       1.0  0.34084281120502874  0.16582867427949563  0.18400398537283988  1.0000
  H   H16       1.0  0.659156711198136  0.834174911320673  0.815996866046767  1.0000
  H   H17       1.0  0.5208605967032937  0.08098825100803708  0.3413451166613584  1.0000
  H   H18       1.0  0.4791373717100099  0.9190175999442686  0.6586598057411095  1.0000
  H   H19       1.0  0.6852732629723162  0.12537557571616983  0.294515306694798  1.0000
  H   H20       1.0  0.3147254823496795  0.8746291460694451  0.7054884884915255  1.0000
  H   H21       1.0  0.7418058367685275  0.3345339031281397  0.5406645952180256  1.0000
  H   H22       1.0  0.25819533309883264  0.6654742037561758  0.4593356914821242  1.0000
  H   H23       1.0  0.5437810891131392  0.35262239144926605  0.4654945889562114  1.0000
  H   H24       1.0  0.4562212692055568  0.6473857297495655  0.5345078353802606  1.0000
  H   H25       1.0  0.8337653765953589  0.41198098731591404  0.3826376725674194  1.0000
  H   H26       1.0  0.16623332263626614  0.5880203148312261  0.6173575574225509  1.0000
  H   H27       1.0  0.7646171776735072  0.5496740665071725  0.4875879097311255  1.0000
  H   H28       1.0  0.2353835339571546  0.4503295018231127  0.5124069048472252  1.0000
  H   H29       1.0  0.4858527605257876  0.447011962938376  0.2709991320822739  1.0000
  H   H30       1.0  0.5141471273296502  0.5529893465045175  0.7289964189934466  1.0000
  H   H31       1.0  0.6494832523686113  0.4924942724627427  0.22288414106772336  1.0000
  H   H32       1.0  0.35051540016895905  0.5075036346115667  0.7771088816529146  1.0000
  C   C1        1.0  0.31267235098118823  0.20012950545783775  0.7483401690092323  1.0000
  C   C2        1.0  0.6873291369544743  0.7998729582714004  0.2516598762799872  1.0000
  C   C3        1.0  0.05473249500789729  0.21325489866359248  0.6242383120973259  1.0000
  C   C4        1.0  0.9452670273952676  0.7867486869365761  0.37576253932228093  1.0000
  C   C5        1.0  0.08354934374549569  0.18408926221183458  0.5002379037845799  1.0000
  C   C6        1.0  0.9164538380897014  0.8159211284025144  0.49976650888038415  1.0000
  C   C7        1.0  0.23436369545775185  0.16207255614991567  0.5023726649720075  1.0000
  C   C8        1.0  0.7656327196556205  0.8379355320795057  0.4976290622110112  1.0000
  C   C9        1.0  0.3512792344415275  0.1708490237811873  0.6284507847002133  1.0000
  C   C10       1.0  0.6487190997690178  0.8291545369763326  0.37154520425720966  1.0000
  C   C11       1.0  0.43308158161273264  0.21115921148151529  0.8838897031817866  1.0000
  C   C12       1.0  0.5669143743152957  0.7888443767970299  0.11611654290759078  1.0000
  C   C13       1.0  0.5283991195867371  0.25232623333980086  0.12809103170059188  1.0000
  C   C14       1.0  0.47160072105720025  0.7476717020865279  0.8719077617575124  1.0000
  C   C15       1.0  0.45201633790657075  0.14203307630948805  0.16976355371251373  1.0000
  C   C16       1.0  0.5479827725227437  0.8579693833563624  0.8302385742310747  1.0000
  C   C17       1.0  0.5797087027734165  0.15940606665758847  0.3128440205430323  1.0000
  C   C18       1.0  0.42028921894583254  0.8405963892218863  0.6871586945900887  1.0000
  C   C19       1.0  0.6472683583352037  0.32276611963484203  0.4393971378524029  1.0000
  C   C20       1.0  0.3527319878431783  0.6772397248527113  0.5606029770698343  1.0000
  C   C21       1.0  0.7215579348354665  0.4328449318436043  0.3973022290122544  1.0000
  C   C22       1.0  0.27844195293372564  0.5671563811086743  0.6026942303387558  1.0000
  C   C23       1.0  0.5936627780654078  0.41634156285294205  0.2549027272187772  1.0000
  C   C24       1.0  0.40633710970379144  0.5836597500993361  0.745093732132233  1.0000
  C   C25       1.0  0.9996545308182903  0.1357032918859247  0.15831965902064135  1.0000
  C   C26       1.0  0.0003432032623464616  0.8642856187959962  0.8416833097879888  1.0000
  C   C27       1.0  0.7903567393877464  0.3657071067708981  0.8777218711244003  1.0000
  C   C28       1.0  0.20965155196635266  0.6342716948824714  0.12228009047380785  1.0000
  S   S1        1.0  0.7930312312828889  0.19365372877597756  0.7918975691683059  1.0000
  S   S2        1.0  0.20696398546795078  0.8063249820959297  0.20809813566081192  1.0000
  S   S3        1.0  0.07192098267342571  0.31048198036107527  0.19571154929731455  1.0000
  S   S4        1.0  0.9280652303625985  0.6895045917341347  0.8042856331358051  1.0000
  N   N1        1.0  0.16566912847908807  0.22011070424719748  0.744599200424439  1.0000
  N   N2        1.0  0.8343299352561642  0.7798883603458292  0.2554007202498098  1.0000
  N   N3        1.0  0.40234677048674417  0.2393093895049957  0.9959253889176978  1.0000
  N   N4        1.0  0.5976538011479916  0.7606839900974122  0.004061895577343931  1.0000
  N   N5        1.0  0.7824798197679286  0.487644174606089  0.9399950608693575  1.0000
  N   N6        1.0  0.2175349195497773  0.5123426006623146  0.060017093824022455  1.0000
  N   N7        1.0  0.9485011027856772  0.011341210102798998  0.13665833965987423  1.0000
  N   N8        1.0  0.05150056192876202  0.9886454743841422  0.8633475582644153  1.0000
