data_image0
_chemical_formula_structural       Cd2H16C24N4Cl4
_chemical_formula_sum              "Cd2 H16 C24 N4 Cl4"
_cell_length_a       7.301785258481055
_cell_length_b       9.714830144157798
_cell_length_c       9.714926697028586
_cell_angle_alpha    65.41869384429731
_cell_angle_beta     73.9062956944851
_cell_angle_gamma    73.90637148518398

_space_group_name_H-M_alt    "P 1"
_space_group_IT_number       1

loop_
  _space_group_symop_operation_xyz
  'x, y, z'

loop_
  _atom_site_type_symbol
  _atom_site_label
  _atom_site_symmetry_multiplicity
  _atom_site_fract_x
  _atom_site_fract_y
  _atom_site_fract_z
  _atom_site_occupancy
  Cd  Cd1       1.0  0.7500007655999994  0.06777792281989287  0.9322206871306663  1.0000
  Cd  Cd2       1.0  0.2500003507747479  0.9322204940455735  0.0677780527285777  1.0000
  H   H1        1.0  0.10540161630019904  0.3713002352115921  0.237028330464554  1.0000
  H   H2        1.0  0.3946023998014709  0.7629743319448606  0.6286956149730898  1.0000
  H   H3        1.0  0.8945986648032617  0.6287016535725128  0.7629701236849797  1.0000
  H   H4        1.0  0.6053975957609197  0.23702300789516062  0.37130897360491133  1.0000
  H   H5        1.0  0.24173257957093605  0.097942163722486  0.3828254823836447  1.0000
  H   H6        1.0  0.2582753044390176  0.6171782555997323  0.9020517761471752  1.0000
  H   H7        1.0  0.7582691337641666  0.9020597674718897  0.6171747079660863  1.0000
  H   H8        1.0  0.741722386507199  0.38281669596104706  0.09795021138378963  1.0000
  H   H9        1.0  0.10308856429172418  0.9799446848048984  0.6672899530316345  1.0000
  H   H10       1.0  0.3969155574789696  0.3327144084275843  0.020048771477490793  1.0000
  H   H11       1.0  0.8969119967352909  0.0200560522498563  0.33270893679457475  1.0000
  H   H12       1.0  0.6030861232422784  0.6672817217097913  0.9799518610554333  1.0000
  H   H13       1.0  0.8807253049025763  0.619169010830113  0.24009333210032216  1.0000
  H   H14       1.0  0.6192764781424601  0.7599091836270373  0.38082669794086144  1.0000
  H   H15       1.0  0.11927356196680716  0.38083290246610335  0.759907471130319  1.0000
  H   H16       1.0  0.3807226641510936  0.24009156120924047  0.6191735196461253  1.0000
  C   C1        1.0  0.8279806218821265  0.323268131473057  0.5945089561642688  1.0000
  C   C2        1.0  0.672024547526519  0.4054879242330429  0.6767314693899492  1.0000
  C   C3        1.0  0.1720196592213341  0.6767337573110481  0.4054894979852649  1.0000
  C   C4        1.0  0.327976293424051  0.594511661092369  0.3232678561129418  1.0000
  C   C5        1.0  0.9000929040893411  0.4013158810393661  0.43607429410831616  1.0000
  C   C6        1.0  0.599910940198143  0.563925015636933  0.5986826695394143  1.0000
  C   C7        1.0  0.09990452604900926  0.5986859731159837  0.5639237516017988  1.0000
  C   C8        1.0  0.40008706328548993  0.4360745852515108  0.4013193114850325  1.0000
  C   C9        1.0  0.04927501907263833  0.31589083036549664  0.3593540811332546  1.0000
  C   C10       1.0  0.4507296972722514  0.6406518955450123  0.6841067682814029  1.0000
  C   C11       1.0  0.9507264188383008  0.6841122692888246  0.6406466948601237  1.0000
  C   C12       1.0  0.5492680262878268  0.35934885707277425  0.31589477706636165  1.0000
  C   C13       1.0  0.12444669718033909  0.1645892201300541  0.4400355773615345  1.0000
  C   C14       1.0  0.37556017966472416  0.5599694727367178  0.835406944751931  1.0000
  C   C15       1.0  0.8755547407305999  0.8354138795242674  0.5599651986318365  1.0000
  C   C16       1.0  0.6244366715108213  0.44002893401209753  0.16459373574899425  1.0000
  C   C17       1.0  0.047465204112477004  0.09826327926968048  0.5974933089612692  1.0000
  C   C18       1.0  0.45253993041088597  0.4025129512594318  0.901730589640522  1.0000
  C   C19       1.0  0.9525367846467887  0.9017374834647568  0.4025062957448142  1.0000
  C   C20       1.0  0.5474597582316038  0.5974854399263589  0.0982674353388476  1.0000
  C   C21       1.0  0.8221828883514704  0.5603611093793504  0.3612581406427184  1.0000
  C   C22       1.0  0.6778227117008983  0.6387404541658906  0.4396357131909172  1.0000
  C   C23       1.0  0.1778176726755518  0.43963962767541176  0.6387407491834907  1.0000
  C   C24       1.0  0.3221738640504839  0.3612591210428703  0.5603655529536553  1.0000
  N   N1        1.0  0.902058494930806  0.17424127744580883  0.6711053625440329  1.0000
  N   N2        1.0  0.5979482028736957  0.3288957486710443  0.8257575029177532  1.0000
  N   N3        1.0  0.09794320940552129  0.8257606202873758  0.32889278516504566  1.0000
  N   N4        1.0  0.4020543457326937  0.6711027106046926  0.17424297314168774  1.0000
  Cl  Cl1       1.0  0.007967523118267655  0.8197657907804156  0.9810414236617008  1.0000
  Cl  Cl2       1.0  0.49203454323162543  0.018958998248677996  0.1802317647893119  1.0000
  Cl  Cl3       1.0  0.9920350209887304  0.18023265176472586  0.018958031077410502  1.0000
  Cl  Cl4       1.0  0.5079663022183425  0.9810406038073296  0.8197685820339019  1.0000
