data_image0
_chemical_formula_structural       Cu2H16C8N16Cl4
_chemical_formula_sum              "Cu2 H16 C8 N16 Cl4"
_cell_length_a       6.697847291798767
_cell_length_b       7.134312635841536
_cell_length_c       10.884569769029692
_cell_angle_alpha    103.61947709677537
_cell_angle_beta     89.99830336620592
_cell_angle_gamma    89.99969371994322

_space_group_name_H-M_alt    "P 1"
_space_group_IT_number       1

loop_
  _space_group_symop_operation_xyz
  'x, y, z'

loop_
  _atom_site_type_symbol
  _atom_site_label
  _atom_site_symmetry_multiplicity
  _atom_site_fract_x
  _atom_site_fract_y
  _atom_site_fract_z
  _atom_site_occupancy
  Cu  Cu1       1.0  7.747458140000408e-08  0.9999976174106069  0.49999790819091317  1.0000
  Cu  Cu2       1.0  0.5000074407496841  0.49999270318431854  0.5000013830780644  1.0000
  H   H1        1.0  0.46019109803412306  0.0764963893905204  0.6055008938059102  1.0000
  H   H2        1.0  0.9602029813539232  0.42349871975434183  0.39450758953168463  1.0000
  H   H3        1.0  0.5398118395525203  0.9234862147060383  0.3944931599137006  1.0000
  H   H4        1.0  0.0398074210503196  0.5764996938114707  0.6054944803539539  1.0000
  H   H5        1.0  0.5803985100129835  0.2145049314728737  0.9443322521061146  1.0000
  H   H6        1.0  0.08044256999051672  0.2854661451513821  0.055676552807156596  1.0000
  H   H7        1.0  0.4195954692654881  0.7854992965726878  0.05566614501214663  1.0000
  H   H8        1.0  0.9195603674416901  0.7145424459403528  0.9443188602014843  1.0000
  H   H9        1.0  0.6197359065108329  0.9591815309318507  0.8873265140338517  1.0000
  H   H10       1.0  0.1197630818292268  0.5408037379703571  0.11265314469581969  1.0000
  H   H11       1.0  0.3802550866206715  0.040825545051085  0.11267600913755868  1.0000
  H   H12       1.0  0.8802264182116701  0.45921199123095136  0.8873507488923309  1.0000
  H   H13       1.0  0.6966623359238183  0.11990744858014322  0.7935108265626809  1.0000
  H   H14       1.0  0.19670569368726382  0.3801016264812843  0.20649361998695778  1.0000
  H   H15       1.0  0.3033331362782831  0.8800895046095433  0.20649284967995377  1.0000
  H   H16       1.0  0.8033017226732395  0.6199083611930973  0.7935066079074244  1.0000
  C   C1        1.0  0.34991071896403275  0.0659808828223944  0.6764260903740078  1.0000
  C   C2        1.0  0.8499304074568172  0.4340066256008441  0.32357491936600263  1.0000
  C   C3        1.0  0.6500877393260042  0.934004514498575  0.3235775932482311  1.0000
  C   C4        1.0  0.15007850193524766  0.5659860009238216  0.6764280715444002  1.0000
  C   C5        1.0  0.5844367195659643  0.09416346298221609  0.8605993373784955  1.0000
  C   C6        1.0  0.0844890476844569  0.40583945243227504  0.13939973654451165  1.0000
  C   C7        1.0  0.4155542736489508  0.9058364111108047  0.13940112648528918  1.0000
  C   C8        1.0  0.9155153825806863  0.5941777462650748  0.8606016333808171  1.0000
  N   N1        1.0  0.39123892373324753  0.0763732227832108  0.798078684870724  1.0000
  N   N2        1.0  0.8912690619725652  0.423619672482161  0.20192426626876872  1.0000
  N   N3        1.0  0.6087520695897551  0.9236295904332934  0.20191673195886747  1.0000
  N   N4        1.0  0.10873686158936378  0.5763802745045582  0.7980688590027468  1.0000
  N   N5        1.0  0.2179698692997221  0.0634521192379367  0.8603703473973993  1.0000
  N   N6        1.0  0.7180043871792421  0.4365394710566833  0.13963002521301598  1.0000
  N   N7        1.0  0.7820270959760052  0.9365564354003838  0.13962873489280977  1.0000
  N   N8        1.0  0.2819895919985669  0.5634661627111511  0.8603722695288951  1.0000
  N   N9        1.0  0.0748169936851397  0.04610254297535479  0.7777671634733636  1.0000
  N   N10       1.0  0.5748458678901898  0.4538946336665789  0.22223668868559796  1.0000
  N   N11       1.0  0.9251814646640709  0.9539045876942751  0.22222985579026744  1.0000
  N   N12       1.0  0.4251525902870554  0.5461066369959511  0.7777685900347961  1.0000
  N   N13       1.0  0.15304340960857127  0.046902903194578  0.6626507025361689  1.0000
  N   N14       1.0  0.6530622544404778  0.45308782542677756  0.3373497918620529  1.0000
  N   N15       1.0  0.8469610208748861  0.9530912293912194  0.33734609567757445  1.0000
  N   N16       1.0  0.3469436689985415  0.5469004927449743  0.6626506792647716  1.0000
  Cl  Cl1       1.0  0.2139059562446093  0.7515168177553376  0.41445857227269994  1.0000
  Cl  Cl2       1.0  0.713908761361317  0.7484717667839859  0.5855382798469577  1.0000
  Cl  Cl3       1.0  0.7860969812095604  0.24847875703900252  0.5855384543559694  1.0000
  Cl  Cl4       1.0  0.2860971620286534  0.251522320195626  0.4144631048813138  1.0000
