data_image0
_chemical_formula_structural       Zn2H36C64N8O8
_chemical_formula_sum              "Zn2 H36 C64 N8 O8"
_cell_length_a       8.668289245907943
_cell_length_b       8.668213053511659
_cell_length_c       17.999475938173603
_cell_angle_alpha    78.63500332158631
_cell_angle_beta     78.6351147502188
_cell_angle_gamma    71.30804915281983

_space_group_name_H-M_alt    "P 1"
_space_group_IT_number       1

loop_
  _space_group_symop_operation_xyz
  'x, y, z'

loop_
  _atom_site_type_symbol
  _atom_site_label
  _atom_site_symmetry_multiplicity
  _atom_site_fract_x
  _atom_site_fract_y
  _atom_site_fract_z
  _atom_site_occupancy
  Zn  Zn1       1.0  0.9668480980244212  0.033156138271657185  0.7499958333133352  1.0000
  Zn  Zn2       1.0  0.03314872649246323  0.9668419550973514  0.2500000842955004  1.0000
  H   H1        1.0  0.7375090946325004  0.3508230507789635  0.9292509527467208  1.0000
  H   H2        1.0  0.649168012374041  0.2624961878604353  0.5707495909602543  1.0000
  H   H3        1.0  0.26248557851404547  0.6491663657505385  0.07075041557479267  1.0000
  H   H4        1.0  0.350831778548418  0.7375154595231381  0.42924923632684653  1.0000
  H   H5        1.0  0.4862481976768934  0.9684292225019037  0.8708551071057046  1.0000
  H   H6        1.0  0.03156605233790796  0.5137590943533681  0.6291398142357496  1.0000
  H   H7        1.0  0.5137531881006583  0.03156150607951961  0.1291405154072365  1.0000
  H   H8        1.0  0.9684368312266683  0.48625011490099723  0.37085784108028014  1.0000
  H   H9        1.0  0.20266655010742338  0.9437057589839314  0.904559098538904  1.0000
  H   H10       1.0  0.05628454368196848  0.7973460614758853  0.5954346662228788  1.0000
  H   H11       1.0  0.7973363858208772  0.056283754362795  0.09543538169748442  1.0000
  H   H12       1.0  0.943715983464607  0.2026631244934549  0.40456432135630394  1.0000
  H   H13       1.0  0.9871422434960024  0.1375964754445604  0.9820501825482428  1.0000
  H   H14       1.0  0.8623885971961087  0.012868749520428895  0.5179459660422128  1.0000
  H   H15       1.0  0.012858564040129646  0.8623843840421374  0.017946410654730002  1.0000
  H   H16       1.0  0.13761155034932676  0.9871416556662923  0.48205461026397967  1.0000
  H   H17       1.0  0.05732621341856972  0.3536746746282518  0.031103550704187903  1.0000
  H   H18       1.0  0.6463046062034367  0.942686120439376  0.46889958681062893  1.0000
  H   H19       1.0  0.9426710556608741  0.6463061461009971  0.9688955971845418  1.0000
  H   H20       1.0  0.35368934073898123  0.057329145686118514  0.531105558601773  1.0000
  H   H21       1.0  0.7942376636311794  0.7486787829894156  0.8097432214058955  1.0000
  H   H22       1.0  0.25132244160142386  0.20576688718869462  0.690255317675721  1.0000
  H   H23       1.0  0.20576926150667416  0.251316880826849  0.19025642809862126  1.0000
  H   H24       1.0  0.7486647292176729  0.7942397436152364  0.3097451482823317  1.0000
  H   H25       1.0  0.8985125143464288  0.43766177281378293  0.8341301954723833  1.0000
  H   H26       1.0  0.5623382476534645  0.10148573383358443  0.6658768402819961  1.0000
  H   H27       1.0  0.10148656701636583  0.562336244262525  0.1658788534396862  1.0000
  H   H28       1.0  0.43765048974376  0.8985233280508282  0.3341299211950215  1.0000
  H   H29       1.0  0.2000412752958312  0.3011971597467564  0.8137115417259084  1.0000
  H   H30       1.0  0.6988003585586567  0.799953955209837  0.6862932004557792  1.0000
  H   H31       1.0  0.7999613406939478  0.6988008922570828  0.18629550879142434  1.0000
  H   H32       1.0  0.301195890077416  0.20005764958638392  0.31370873780809927  1.0000
  H   H33       1.0  0.4896566204700647  0.3299272200440697  0.7710593367347871  1.0000
  H   H34       1.0  0.6700667624012909  0.5103366882125114  0.728940925568395  1.0000
  H   H35       1.0  0.5103472667500099  0.6700745665157017  0.22894335962617873  1.0000
  H   H36       1.0  0.32993524102322885  0.4896675787582795  0.27105782630394515  1.0000
  C   C1        1.0  0.48707198056353457  0.4304067276658686  0.9862521524523589  1.0000
  C   C2        1.0  0.5695872656941887  0.5129317507268567  0.5137476907899697  1.0000
  C   C3        1.0  0.5129196344081562  0.5695851614620511  0.013745381221092094  1.0000
  C   C4        1.0  0.4304101496617961  0.48707985422213085  0.4862552502153648  1.0000
  C   C5        1.0  0.6184704658954275  0.3274200374834564  0.9417588844650667  1.0000
  C   C6        1.0  0.6725722777958937  0.3815305613166302  0.5582397110993895  1.0000
  C   C7        1.0  0.38152348634577754  0.6725718557799283  0.058240098400297265  1.0000
  C   C8        1.0  0.327427067311987  0.6184786091802866  0.4417604989023972  1.0000
  C   C9        1.0  0.5931626970014037  0.2036538605446054  0.9123640035906038  1.0000
  C   C10       1.0  0.7963437333925967  0.40684302407331785  0.5876336704001659  1.0000
  C   C11       1.0  0.40683470833458546  0.7963343562226302  0.08763500003176013  1.0000
  C   C12       1.0  0.20366384768917814  0.5931662164314419  0.4123635455535961  1.0000
  C   C13       1.0  0.4347632548791367  0.17647707824400533  0.9308447673413982  1.0000
  C   C14       1.0  0.8235113394219624  0.5652412342187249  0.5691516447263538  1.0000
  C   C15       1.0  0.5652345338876972  0.8235099231357593  0.0691520912629429  1.0000
  C   C16       1.0  0.17648838911676282  0.43476672089072826  0.43084642025741005  1.0000
  C   C17       1.0  0.3925381033761113  0.05160432066733021  0.906022442283437  1.0000
  C   C18       1.0  0.9483920926088918  0.6074677473182888  0.5939747713163686  1.0000
  C   C19       1.0  0.6074643829079279  0.9483827119628288  0.0939739769586438  1.0000
  C   C20       1.0  0.0516169456023476  0.3925365550383546  0.40602499038563183  1.0000
  C   C21       1.0  0.23442458816244033  0.038502560493952794  0.9249195222043202  1.0000
  C   C22       1.0  0.961481753612553  0.7655869976802664  0.5750743862741174  1.0000
  C   C23       1.0  0.7655773937529914  0.9614783068053401  0.07507696115808214  1.0000
  C   C24       1.0  0.038520409046675794  0.23442468830798197  0.4249208835857702  1.0000
  C   C25       1.0  0.11178316968700132  0.14773794803564042  0.9698197530016017  1.0000
  C   C26       1.0  0.8522495441301955  0.888225731602198  0.530178542484073  1.0000
  C   C27       1.0  0.8882157157566227  0.8522453535629568  0.03017845862289899  1.0000
  C   C28       1.0  0.147752952173839  0.11178468920972053  0.46982181414098545  1.0000
  C   C29       1.0  0.14948201283248616  0.2677662606739944  0.9964266677022452  1.0000
  C   C30       1.0  0.7322124718852477  0.8505300906429343  0.5035699176397942  1.0000
  C   C31       1.0  0.8505203333653102  0.7322133720882745  0.0035704520972146066  1.0000
  C   C32       1.0  0.2677826215200056  0.14948152549024482  0.4964293490095742  1.0000
  C   C33       1.0  0.3103611565087263  0.2856980938496889  0.9777388900715495  1.0000
  C   C34       1.0  0.714290074468174  0.6896448798174929  0.5222618341780034  1.0000
  C   C35       1.0  0.6896338376849372  0.714286415018222  0.02225957092860403  1.0000
  C   C36       1.0  0.2857112397971662  0.310365525522002  0.47773974486965193  1.0000
  C   C37       1.0  0.7277290212399307  0.1177068161204105  0.855039401810956  1.0000
  C   C38       1.0  0.8822923536329768  0.27226927655897276  0.6449538264666687  1.0000
  C   C39       1.0  0.2722711824989261  0.8822838969885826  0.1449574431245821  1.0000
  C   C40       1.0  0.11771473839898051  0.7277338139345703  0.355041228443362  1.0000
  C   C41       1.0  0.9251255708608498  0.6828998480893061  0.8001002913844816  1.0000
  C   C42       1.0  0.3170986090779024  0.07487338524507692  0.6999023681084325  1.0000
  C   C43       1.0  0.0748739169109598  0.3170969765790091  0.19990327476347858  1.0000
  C   C44       1.0  0.682895006797402  0.9251234003602422  0.3001017472423513  1.0000
  C   C45       1.0  0.9839999847477968  0.5105430118279984  0.8143349645949415  1.0000
  C   C46       1.0  0.4894556035689135  0.016004117718132694  0.6856699916729172  1.0000
  C   C47       1.0  0.016011599610301634  0.48945264493954  0.1856698084574689  1.0000
  C   C48       1.0  0.5105317467419683  0.9840135822483375  0.31433387377718  1.0000
  C   C49       1.0  0.15169848478337405  0.4347349994739746  0.8021417931031041  1.0000
  C   C50       1.0  0.5652643327330368  0.8482928194297018  0.6978648028487273  1.0000
  C   C51       1.0  0.8482948138745172  0.5652666976228461  0.19786467327802632  1.0000
  C   C52       1.0  0.4347375037973791  0.1517040208638107  0.30213854361809933  1.0000
  C   C53       1.0  0.26128867323701127  0.5309275421777857  0.7756455455066205  1.0000
  C   C54       1.0  0.4690730586640442  0.7387097967066583  0.7243586007280386  1.0000
  C   C55       1.0  0.7387191014033263  0.4690730332827541  0.22435745776970611  1.0000
  C   C56       1.0  0.5309258406292656  0.2612968969036089  0.2756429919884198  1.0000
  C   C57       1.0  0.4366901495724705  0.46339837356440944  0.7619304682750183  1.0000
  C   C58       1.0  0.5365954882971451  0.5633029423666187  0.7380725937995507  1.0000
  C   C59       1.0  0.5633105864514506  0.5366021626803673  0.2380720814626686  1.0000
  C   C60       1.0  0.4634072398624058  0.4366988517002  0.26192798723791816  1.0000
  C   C61       1.0  0.19072169743079573  0.7041167362342052  0.7629493895481974  1.0000
  C   C62       1.0  0.2958846016344907  0.809273627912788  0.7370544124233264  1.0000
  C   C63       1.0  0.809272430472504  0.2958862223618014  0.2370535491002315  1.0000
  C   C64       1.0  0.7041203351974304  0.19072078191133812  0.26294664949039515  1.0000
  N   N1        1.0  0.3375983250035119  0.4106415217011516  0.0037338461033086952  1.0000
  N   N2        1.0  0.5893448438973082  0.6624079428828864  0.49626698577493045  1.0000
  N   N3        1.0  0.6623924875306314  0.5893491327369631  0.9962633212657295  1.0000
  N   N4        1.0  0.41064948264625667  0.3376061040252267  0.5037365709104693  1.0000
  N   N5        1.0  0.02575261479788083  0.7764318942355716  0.7745643459764723  1.0000
  N   N6        1.0  0.2235700769898231  0.9742521328770268  0.7254357317481138  1.0000
  N   N7        1.0  0.9742567329713839  0.2235674889697492  0.225434177277215  1.0000
  N   N8        1.0  0.7764264926933748  0.025754564257596303  0.27456329919439787  1.0000
  O   O1        1.0  0.6901702171036135  0.0655219067064436  0.8018889858534168  1.0000
  O   O2        1.0  0.9344831552642462  0.30983254926310627  0.698107169574236  1.0000
  O   O3        1.0  0.3098344484672282  0.9344774605681324  0.19810775159847083  1.0000
  O   O4        1.0  0.06552405387576948  0.6901779181188632  0.3018905225245093  1.0000
  O   O5        1.0  0.8768366800207518  0.111178547575058  0.85734152987002  1.0000
  O   O6        1.0  0.8888278170003475  0.12316788480192291  0.642652122272928  1.0000
  O   O7        1.0  0.12316321033038247  0.888817080855354  0.14265710980484414  1.0000
  O   O8        1.0  0.11117903168699428  0.8768438209469808  0.3573443770977391  1.0000
