data_image0
_chemical_formula_structural       Tl4H44C32N8O8
_chemical_formula_sum              "Tl4 H44 C32 N8 O8"
_cell_length_a       6.564110154064235
_cell_length_b       10.888212579428197
_cell_length_c       14.065017996333996
_cell_angle_alpha    89.99943472137063
_cell_angle_beta     101.46663031823152
_cell_angle_gamma    89.9952084329697

_space_group_name_H-M_alt    "P 1"
_space_group_IT_number       1

loop_
  _space_group_symop_operation_xyz
  'x, y, z'

loop_
  _atom_site_type_symbol
  _atom_site_label
  _atom_site_symmetry_multiplicity
  _atom_site_fract_x
  _atom_site_fract_y
  _atom_site_fract_z
  _atom_site_occupancy
  Tl  Tl1       1.0  0.5905698286136101  0.012292412769326702  0.35830859798829107  1.0000
  Tl  Tl2       1.0  0.5905423016816301  0.48769692532953696  0.8583023915783485  1.0000
  Tl  Tl3       1.0  0.4094397198791953  0.9877206787896425  0.6417013835383758  1.0000
  Tl  Tl4       1.0  0.40946133378783145  0.5123014716379045  0.14169987755891367  1.0000
  H   H1        1.0  0.737295624036392  0.24731730690117362  0.7706444129376069  1.0000
  H   H2        1.0  0.7373153194683582  0.25264551042815236  0.27065825409680855  1.0000
  H   H3        1.0  0.26272239220472937  0.7526820081760874  0.2293500739282309  1.0000
  H   H4        1.0  0.2626836242567522  0.74733911029071  0.7293442491345417  1.0000
  H   H5        1.0  0.7175196283403196  0.1665026863281867  0.6582589579670358  1.0000
  H   H6        1.0  0.7175307468684196  0.3334708276917553  0.15826643655496755  1.0000
  H   H7        1.0  0.282482876687034  0.8334938738831354  0.3417332405705907  1.0000
  H   H8        1.0  0.28246356420562796  0.6665193036982516  0.8417348844810137  1.0000
  H   H9        1.0  0.7603963340496733  0.4576509835031288  0.42186368989963813  1.0000
  H   H10       1.0  0.7603505622212622  0.0423317033947868  0.921855608649004  1.0000
  H   H11       1.0  0.2396072091633458  0.5423676187897543  0.5781407031482503  1.0000
  H   H12       1.0  0.2395988893229415  0.957664858162289  0.0781361731094208  1.0000
  H   H13       1.0  0.7973690760039462  0.656435052853837  0.5172764720298916  1.0000
  H   H14       1.0  0.797337112331455  0.8435488344116987  0.017270972601877946  1.0000
  H   H15       1.0  0.20265150273930035  0.34358079371454403  0.482731075478462  1.0000
  H   H16       1.0  0.2025924977770188  0.15645231983673108  0.9827102581936489  1.0000
  H   H17       1.0  0.7685970782051967  0.6462410792850903  0.6917763904670624  1.0000
  H   H18       1.0  0.7686025295678861  0.8537301049999115  0.19177320863740027  1.0000
  H   H19       1.0  0.23140622363236926  0.3537683387339711  0.30823366701448424  1.0000
  H   H20       1.0  0.23137520049834853  0.14625359792672293  0.8082143374063551  1.0000
  H   H21       1.0  0.18638508879282506  0.026841030925027102  0.2567002656217099  1.0000
  H   H22       1.0  0.18637454744855123  0.4731728188360477  0.7567122342747084  1.0000
  H   H23       1.0  0.8136096756544686  0.973155529491777  0.7432904347161442  1.0000
  H   H24       1.0  0.8136382333788745  0.5267998619838751  0.24329523157776836  1.0000
  H   H25       1.0  0.3265319499824813  0.16585945213308412  0.2458385744152167  1.0000
  H   H26       1.0  0.326529984919432  0.33414192915732593  0.7458394967909145  1.0000
  H   H27       1.0  0.6734749453741102  0.8341352710747714  0.7541604706144299  1.0000
  H   H28       1.0  0.6735014456451793  0.6658344248759674  0.25416986540113135  1.0000
  H   H29       1.0  0.2295303413475622  0.135067365077596  0.3545564566165212  1.0000
  H   H30       1.0  0.22953119149516968  0.3649246868506637  0.8545674256321549  1.0000
  H   H31       1.0  0.7704627177178838  0.8649282769364888  0.6454376259094377  1.0000
  H   H32       1.0  0.7705016123741544  0.6350424828759316  0.14544634294116324  1.0000
  H   H33       1.0  0.8468568713830111  0.8736211482249345  0.4881805351544701  1.0000
  H   H34       1.0  0.846787790124843  0.6263643480628077  0.9881709729914478  1.0000
  H   H35       1.0  0.1531498417590313  0.1263827592044322  0.511822758029169  1.0000
  H   H36       1.0  0.1531969823928705  0.3736496625773639  0.011834355894556805  1.0000
  H   H37       1.0  0.9931582528630756  0.945866724233525  0.4085112499101272  1.0000
  H   H38       1.0  0.9931278113795726  0.5541233978453661  0.9085053638370513  1.0000
  H   H39       1.0  0.0068483084560426975  0.05414453057230162  0.5914955834050987  1.0000
  H   H40       1.0  0.006873875439850997  0.4458906123285329  0.09150595164796023  1.0000
  H   H41       1.0  0.8398650638049645  0.8121510194845883  0.3691076633248117  1.0000
  H   H42       1.0  0.8398147270898662  0.6878381815154881  0.8691038839628009  1.0000
  H   H43       1.0  0.160144787522519  0.1878583984141713  0.6308952378212498  1.0000
  H   H44       1.0  0.16016986402447492  0.3121739922534843  0.13090569319462736  1.0000
  C   C1        1.0  0.701420270388617  0.23241951116205675  0.48547896497623105  1.0000
  C   C2        1.0  0.7013940033430901  0.26756810750336507  0.9854757051284155  1.0000
  C   C3        1.0  0.29859765325807797  0.7676046013625992  0.5145176457513047  1.0000
  C   C4        1.0  0.2985821115698073  0.7324220244268957  0.0145130988992292  1.0000
  C   C5        1.0  0.7319180905536485  0.34768797588380096  0.543929603133364  1.0000
  C   C6        1.0  0.7318856995904639  0.1523009590272864  0.043939495681414115  1.0000
  C   C7        1.0  0.26810586883204485  0.6523278706375065  0.456071888060329  1.0000
  C   C8        1.0  0.268066649236907  0.8476854997546043  0.9560575585416019  1.0000
  C   C9        1.0  0.7569140048835552  0.45909434472442007  0.49893262270347094  1.0000
  C   C10       1.0  0.7568743896739887  0.0408912118271019  0.998931576685486  1.0000
  C   C11       1.0  0.24310992431330902  0.5409205833687523  0.5010695765419869  1.0000
  C   C12       1.0  0.2430954169892487  0.9591099413460638  0.001058719224410301  1.0000
  C   C13       1.0  0.7756253862101732  0.5688516831941398  0.5510718620231714  1.0000
  C   C14       1.0  0.7755806504068018  0.9311393045130174  0.0510616638773556  1.0000
  C   C15       1.0  0.22442131115084862  0.4311595705289546  0.44894545249037077  1.0000
  C   C16       1.0  0.22439839062614206  0.0688600115580513  0.9489317043673966  1.0000
  C   C17       1.0  0.7618810317669044  0.5627062355476796  0.6482566825360934  1.0000
  C   C18       1.0  0.7618926545881807  0.9372695157802724  0.14825786509152292  1.0000
  C   C19       1.0  0.23814591600923757  0.4372949160876871  0.3517479570451983  1.0000
  C   C20       1.0  0.2380987596082846  0.0627252078385609  0.8517381835385794  1.0000
  C   C21       1.0  0.7303142643712378  0.3497905613549506  0.645673355403389  1.0000
  C   C22       1.0  0.7303152755830525  0.1501806283482097  0.14567599098148076  1.0000
  C   C23       1.0  0.2697081717795626  0.650216100966517  0.35432726981463253  1.0000
  C   C24       1.0  0.2696542901779182  0.8498049115803851  0.8543199694305772  1.0000
  C   C25       1.0  0.2947514630955865  0.09466000608429676  0.29586223708978576  1.0000
  C   C26       1.0  0.29474182321648357  0.4053377561511197  0.7958690386676609  1.0000
  C   C27       1.0  0.7052414446877223  0.9053356359111079  0.7041353856460476  1.0000
  C   C28       1.0  0.7052881136936904  0.5946385979299934  0.20413874940887675  1.0000
  C   C29       1.0  0.8509041583754497  0.8959989352348  0.4128258792668405  1.0000
  C   C30       1.0  0.8508539431615818  0.6039863955786444  0.9128176662683959  1.0000
  C   C31       1.0  0.1491010608417582  0.10400864593996317  0.5871758397621465  1.0000
  C   C32       1.0  0.1491292454731834  0.3960202677030012  0.08718821270631591  1.0000
  N   N1        1.0  0.7390481287036864  0.4576461145102755  0.6948232861100935  1.0000
  N   N2        1.0  0.7390543793196188  0.042328599910071305  0.19482144958521275  1.0000
  N   N3        1.0  0.2609677886868269  0.5423541189644681  0.3051837874699431  1.0000
  N   N4        1.0  0.2608952844927686  0.957661532702403  0.8051653759478941  1.0000
  N   N5        1.0  0.7220440913866426  0.2457531670655868  0.6968560515690714  1.0000
  N   N6        1.0  0.7220528283531066  0.25421411649815434  0.19686521291678366  1.0000
  N   N7        1.0  0.27797697274381516  0.754245229499105  0.3031401674536199  1.0000
  N   N8        1.0  0.2779401408894273  0.7457686675632117  0.8031309938721025  1.0000
  O   O1        1.0  0.6399148845995911  0.1348878349127673  0.5226973526967316  1.0000
  O   O2        1.0  0.6399495335856358  0.36511980303777136  0.022702045456597413  1.0000
  O   O3        1.0  0.36008883947602044  0.8651399516464621  0.4773027920014459  1.0000
  O   O4        1.0  0.3600622055410341  0.6348785937690238  0.977293225376741  1.0000
  O   O5        1.0  0.7343023652768609  0.2342239322019282  0.3990572893878976  1.0000
  O   O6        1.0  0.7342748706423522  0.2657576101802873  0.8990524939430246  1.0000
  O   O7        1.0  0.2657231179521062  0.7657928326996808  0.600945067869546  1.0000
  O   O8        1.0  0.2657368991463329  0.7342352760838864  0.1009420689070524  1.0000
