data_image0
_chemical_formula_structural       Nd2MnH20C32N4O28
_chemical_formula_sum              "Nd2 Mn1 H20 C32 N4 O28"
_cell_length_a       9.83967907663048
_cell_length_b       11.196549619853846
_cell_length_c       11.666554623664403
_cell_angle_alpha    59.995437553243335
_cell_angle_beta     70.72398574637138
_cell_angle_gamma    82.5522270866689

_space_group_name_H-M_alt    "P 1"
_space_group_IT_number       1

loop_
  _space_group_symop_operation_xyz
  'x, y, z'

loop_
  _atom_site_type_symbol
  _atom_site_label
  _atom_site_symmetry_multiplicity
  _atom_site_fract_x
  _atom_site_fract_y
  _atom_site_fract_z
  _atom_site_occupancy
  Nd  Nd1       1.0  0.8927355372033077  0.7281232554151059  0.8667556195433405  1.0000
  Nd  Nd2       1.0  0.1072666093480024  0.2718762667193673  0.13324461029933587  1.0000
  Mn  Mn1       1.0  3.145875310882805e-07  0.9999949422409097  0.5000000249634767  1.0000
  H   H1        1.0  0.7418643038753033  0.44317987325347  0.0977164067074129  1.0000
  H   H2        1.0  0.2581338220258189  0.5568258299009087  0.9022837316957606  1.0000
  H   H3        1.0  0.6165289091895259  0.8783682583851584  0.9362104997346778  1.0000
  H   H4        1.0  0.3834699301014551  0.12163120459413077  0.0637940621967061  1.0000
  H   H5        1.0  0.6408270818183867  0.5611609560288285  0.1101376950220754  1.0000
  H   H6        1.0  0.35917323053147493  0.4388457446153352  0.8898622593265841  1.0000
  H   H7        1.0  0.6920664624791897  0.8558868167405931  0.043634560516288536  1.0000
  H   H8        1.0  0.3079368285586098  0.14411472199333986  0.9563661451609774  1.0000
  H   H9        1.0  0.30323422083215223  0.8876997674135152  0.40455200703848265  1.0000
  H   H10       1.0  0.6967699702190017  0.11229767611405347  0.5954486470985001  1.0000
  H   H11       1.0  0.16203668900431004  0.7633272744047586  0.4456147622662885  1.0000
  H   H12       1.0  0.8379554095668738  0.23666607962095995  0.5543927042500343  1.0000
  H   H13       1.0  0.1481094028719525  0.4433204703692083  0.34774624078146843  1.0000
  H   H14       1.0  0.851897092901943  0.5566780918107809  0.652248997083376  1.0000
  H   H15       1.0  0.9910186081684385  0.8439537692948914  0.11817354476892943  1.0000
  H   H16       1.0  0.008990088516618797  0.15604678208414666  0.8818227596522377  1.0000
  H   H17       1.0  0.4450170855541984  0.750889205431683  0.7637153044229309  1.0000
  H   H18       1.0  0.5549863671448348  0.24911542959270605  0.2362839208692263  1.0000
  H   H19       1.0  0.7552987636739414  0.8919611163138935  0.3571843309061224  1.0000
  H   H20       1.0  0.24470232645270326  0.10803843322099028  0.6428153082148211  1.0000
  C   C1        1.0  0.6114819605045269  0.8247212931813265  0.5662480419268975  1.0000
  C   C2        1.0  0.38852033324560853  0.17528033353433867  0.4337494569198341  1.0000
  C   C3        1.0  0.46844415050515653  0.7911606964742501  0.6523029671511011  1.0000
  C   C4        1.0  0.5315561132075499  0.20884400055759034  0.3476953580121532  1.0000
  C   C5        1.0  0.3561511199157509  0.8119572718592278  0.5959378559942011  1.0000
  C   C6        1.0  0.6438480479476212  0.18804741218547597  0.4040616225198618  1.0000
  C   C7        1.0  0.3875489417862426  0.8642172004057043  0.4530155186847652  1.0000
  C   C8        1.0  0.6124523244640514  0.13578643712890676  0.5469838906619131  1.0000
  C   C9        1.0  0.5315326541394324  0.8865515388961138  0.37132171799369484  1.0000
  C   C10       1.0  0.468466508474016  0.11345411666408717  0.6286798831674716  1.0000
  C   C11       1.0  0.6442327883063683  0.8704101033361052  0.4243099182035409  1.0000
  C   C12       1.0  0.3557696473926696  0.12959459947624197  0.5756869722943492  1.0000
  C   C13       1.0  0.731575243935211  0.8138021600822111  0.623345432265559  1.0000
  C   C14       1.0  0.2684276948552977  0.18619120265226025  0.37665573296023785  1.0000
  C   C15       1.0  0.2034680815312697  0.7786621056431143  0.6876646218754275  1.0000
  C   C16       1.0  0.7965330283077064  0.2213374640855433  0.312334145209249  1.0000
  C   C17       1.0  0.06078565043922168  0.6370703850972885  0.22820556747227982  1.0000
  C   C18       1.0  0.9392188350095835  0.3629312675926569  0.77178962467282  1.0000
  C   C19       1.0  0.03925227970533029  0.7745757548598673  0.1992429394021897  1.0000
  C   C20       1.0  0.9607489720825483  0.2254268909654796  0.8007552193336522  1.0000
  C   C21       1.0  0.0799569034792356  0.8223282069429202  0.27417672393899306  1.0000
  C   C22       1.0  0.9200452286096662  0.17767032348228176  0.7258222552928403  1.0000
  C   C23       1.0  0.1391801610181034  0.7318182440975817  0.3796053751488699  1.0000
  C   C24       1.0  0.8608142567382302  0.2681772202898357  0.6203979257061507  1.0000
  C   C25       1.0  0.16607964385016766  0.5984142844808175  0.4017913162034007  1.0000
  C   C26       1.0  0.8339201401287537  0.40158015216415055  0.5982093274680621  1.0000
  C   C27       1.0  0.12837314954593637  0.5489085820077049  0.3275181611651591  1.0000
  C   C28       1.0  0.8716279997177094  0.4510910281085073  0.6724788618469759  1.0000
  C   C29       1.0  0.010880959164168794  0.5820930130109189  0.15385354537194473  1.0000
  C   C30       1.0  0.9891126663529732  0.4179086107765001  0.8461488200999482  1.0000
  C   C31       1.0  0.06615419379278357  0.9695210512949969  0.24132502983302845  1.0000
  C   C32       1.0  0.9338447098851146  0.03047750075010919  0.7586747933424364  1.0000
  N   N1        1.0  0.5646225999768147  0.9242412164789398  0.22588512274732161  1.0000
  N   N2        1.0  0.43538295635906366  0.07576140051986607  0.7741119107303405  1.0000
  N   N3        1.0  0.23569207580794677  0.5074952489393281  0.5080949624026873  1.0000
  N   N4        1.0  0.7642989518761638  0.49249714077753015  0.49191066278106643  1.0000
  O   O1        1.0  0.8560918344618286  0.85956083978251  0.533282409243384  1.0000
  O   O2        1.0  0.14391090849269966  0.14042841475846046  0.4667198577929596  1.0000
  O   O3        1.0  0.7042435242433099  0.7623840220605087  0.7533595957856178  1.0000
  O   O4        1.0  0.2957574778215103  0.23761348347451158  0.24664015822246207  1.0000
  O   O5        1.0  0.17446950359322239  0.7078959479275679  0.8189401965912566  1.0000
  O   O6        1.0  0.8255328046193214  0.29210667049736827  0.18105855286630398  1.0000
  O   O7        1.0  0.1014508186172947  0.8217850686050879  0.6318407813041915  1.0000
  O   O8        1.0  0.898553221272472  0.17820733560103008  0.3681571079236861  1.0000
  O   O9        1.0  0.46343690182509073  0.9528565210142115  0.17558351084932172  1.0000
  O   O10       1.0  0.5365708948466049  0.04714812557119069  0.8244128451121212  1.0000
  O   O11       1.0  0.6925195248897467  0.9214475895332862  0.15925791448217563  1.0000
  O   O12       1.0  0.30748507754569937  0.07855809057506487  0.8407396639974678  1.0000
  O   O13       1.0  0.05101284254416778  0.46378918707679856  0.1700031876242676  1.0000
  O   O14       1.0  0.9489811759322889  0.5362167468418589  0.8299893556743854  1.0000
  O   O15       1.0  0.9309375692225217  0.6571335360573297  0.08094632198694295  1.0000
  O   O16       1.0  0.0690594660791817  0.3428711825944147  0.9190528471199428  1.0000
  O   O17       1.0  0.0118694476684311  0.05586843751122927  0.14901095605036122  1.0000
  O   O18       1.0  0.988130551858802  0.9441301275210205  0.8509877137742949  1.0000
  O   O19       1.0  0.11919306714103325  0.008109031693955195  0.3072949654059727  1.0000
  O   O20       1.0  0.8808101069101181  0.991888479621572  0.6927033539367499  1.0000
  O   O21       1.0  0.26948823365336944  0.5549294509022785  0.571548046670202  1.0000
  O   O22       1.0  0.7305038701677304  0.44506293160794985  0.4284572971990104  1.0000
  O   O23       1.0  0.2572651284320457  0.38790430416621285  0.528184863149832  1.0000
  O   O24       1.0  0.7427226655911453  0.612089078686047  0.47182372862467065  1.0000
  O   O25       1.0  0.7047961981728149  0.5347789544751861  0.04347505674086695  1.0000
  O   O26       1.0  0.2952008318789723  0.46522673569205614  0.956526235013122  1.0000
  O   O27       1.0  0.6761620497715767  0.8138796081957119  0.9918644840770483  1.0000
  O   O28       1.0  0.32383791954348595  0.1861208796737514  0.008139303078088765  1.0000
