data_image0
_chemical_formula_structural       Cd2H48C52N8O12
_chemical_formula_sum              "Cd2 H48 C52 N8 O12"
_cell_length_a       10.09057780832252
_cell_length_b       10.148804999616452
_cell_length_c       13.204051347263185
_cell_angle_alpha    99.98054437906085
_cell_angle_beta     100.05158290608296
_cell_angle_gamma    108.93866615511809

_space_group_name_H-M_alt    "P 1"
_space_group_IT_number       1

loop_
  _space_group_symop_operation_xyz
  'x, y, z'

loop_
  _atom_site_type_symbol
  _atom_site_label
  _atom_site_symmetry_multiplicity
  _atom_site_fract_x
  _atom_site_fract_y
  _atom_site_fract_z
  _atom_site_occupancy
  Cd  Cd1       1.0  0.3630395936881854  0.0811396771941162  0.9383302462374062  1.0000
  Cd  Cd2       1.0  0.6369606690170286  0.9188608032368107  0.06166944988681423  1.0000
  H   H1        1.0  0.3437834175571552  0.22676938828112708  0.7604228306659095  1.0000
  H   H2        1.0  0.6562162323931773  0.7732321656463199  0.23957692193830135  1.0000
  H   H3        1.0  0.4375770343983731  0.28702054557695783  0.6074228284824984  1.0000
  H   H4        1.0  0.5624232335983805  0.712979943805074  0.39257762685546294  1.0000
  H   H5        1.0  0.5165363151366263  0.3093127079669388  0.49253811665971636  1.0000
  H   H6        1.0  0.48346316963439034  0.6906856404137541  0.5074627189296734  1.0000
  H   H7        1.0  0.36643790067244447  0.2697739207424945  0.20986483238584702  1.0000
  H   H8        1.0  0.6335613603107928  0.7302265671598318  0.7901354899509486  1.0000
  H   H9        1.0  0.6863750636096667  0.0167162501191385  0.649677940256133  1.0000
  H   H10       1.0  0.3136255933541819  0.9832853052880142  0.3503219453492506  1.0000
  H   H11       1.0  0.5730229801671668  0.9603421399697608  0.8010232850409198  1.0000
  H   H12       1.0  0.42697627552452394  0.039658338981453795  0.19897627808212806  1.0000
  H   H13       1.0  0.6464110725992638  0.23136429967539124  0.3290559655767852  1.0000
  H   H14       1.0  0.3535871866620043  0.7686361956983204  0.6709449829725714  1.0000
  H   H15       1.0  0.8163476522096716  0.5212519769381173  0.4880741079920483  1.0000
  H   H16       1.0  0.1836526210786289  0.4787485213950261  0.5119271065596607  1.0000
  H   H17       1.0  0.8764448312127086  0.37572363805041675  0.46170346281898844  1.0000
  H   H18       1.0  0.12355342275701281  0.6242768483721902  0.5382967265166344  1.0000
  H   H19       1.0  0.9789272186399598  0.5628891878006854  0.36441236111411973  1.0000
  H   H20       1.0  0.021071035329768558  0.4371112986219218  0.6355878282215033  1.0000
  H   H21       1.0  0.8655279516577961  0.39710786054735087  0.2743298898413755  1.0000
  H   H22       1.0  0.13447131461698097  0.6028926363060734  0.7256711917091607  1.0000
  H   H23       1.0  0.805304343777429  0.5977987827736297  0.21666271219149996  1.0000
  H   H24       1.0  0.1946955299606827  0.4022006316321765  0.7833375536653052  1.0000
  H   H25       1.0  0.779534494101064  0.6559554758749825  0.3434293654280864  1.0000
  H   H26       1.0  0.2204643673319922  0.3440439281000068  0.6565700082138052  1.0000
  H   H27       1.0  0.5433335079940633  0.5096716897337998  0.21074557338103975  1.0000
  H   H28       1.0  0.456666360452509  0.49032771572090167  0.7892539332620248  1.0000
  H   H29       1.0  0.6035219843757105  0.3651261903621048  0.18320771861685614  1.0000
  H   H30       1.0  0.3964768823488924  0.6348732225639893  0.8167924142387762  1.0000
  H   H31       1.0  0.5562379668025487  0.4857434232284278  0.3980013820284754  1.0000
  H   H32       1.0  0.44376068142581454  0.5142581381704047  0.6019989967883035  1.0000
  H   H33       1.0  0.0627358257352242  0.2665044472737179  0.4107127318598601  1.0000
  H   H34       1.0  0.9372630304062922  0.7334949477501738  0.5892858825682908  1.0000
  H   H35       1.0  0.8086223711878661  0.112814365597103  0.3111070409706116  1.0000
  H   H36       1.0  0.19137710829160431  0.8871839738324778  0.6888930354050373  1.0000
  H   H37       1.0  0.9488618185689645  0.9127619736759129  0.07253764482771893  1.0000
  H   H38       1.0  0.051139056891116814  0.08723743325850111  0.9274619948165252  1.0000
  H   H39       1.0  0.20419687283583696  0.053294960012045985  0.16096946763429543  1.0000
  H   H40       1.0  0.79580338986937  0.9467055204188811  0.8390302284899321  1.0000
  H   H41       1.0  0.10598570542626369  0.7496946953336945  0.12268304119960766  1.0000
  H   H42       1.0  0.89401456257049  0.25030579404833725  0.8773174141383535  1.0000
  H   H43       1.0  0.031232252475739214  0.5307933225628078  0.19235020046840395  1.0000
  H   H44       1.0  0.9687716546079771  0.4692061067129598  0.80765135660684  1.0000
  H   H45       1.0  0.12686069453391724  0.33691662199351674  0.14364083616807485  1.0000
  H   H46       1.0  0.8731429834704797  0.6630849378527727  0.8563594484408272  1.0000
  H   H47       1.0  0.37337971894920935  0.5822957111267754  0.9602258706080848  1.0000
  H   H48       1.0  0.6266209327230924  0.4177058353292722  0.039773255783551106  1.0000
  C   C1        1.0  0.41885136153349123  0.18128663802501424  0.7327565639271046  1.0000
  C   C2        1.0  0.581148895880176  0.818713833454808  0.26724237298337533  1.0000
  C   C3        1.0  0.4747684711249107  0.2161056137661817  0.6479984407553304  1.0000
  C   C4        1.0  0.5252317915803034  0.7838948666647452  0.3520012553688901  1.0000
  C   C5        1.0  0.5740396026149526  0.1580356972617238  0.6171225416555332  1.0000
  C   C6        1.0  0.425963073667468  0.8419658700559579  0.382878369165944  1.0000
  C   C7        1.0  0.6099141034442397  0.06385312880099292  0.6725036591914559  1.0000
  C   C8        1.0  0.39008616455251405  0.9361473605810459  0.3274967961465124  1.0000
  C   C9        1.0  0.5477606666631588  0.033058692135973886  0.7558974762472631  1.0000
  C   C10       1.0  0.4522399955922298  0.9669428722222836  0.2441031685718614  1.0000
  C   C11       1.0  0.6441696428707714  0.19186478595219109  0.5277632756093596  1.0000
  C   C12       1.0  0.35583203698121935  0.808136797787995  0.4722390206384191  1.0000
  C   C13       1.0  0.6530510985757162  0.32657466231767524  0.38782122928615353  1.0000
  C   C14       1.0  0.34694995793831407  0.6734279770168144  0.6121796050141343  1.0000
  C   C15       1.0  0.8110808618950429  0.43118378803440294  0.4254367641069977  1.0000
  C   C16       1.0  0.18891840967128098  0.5688167177701259  0.5745650766572795  1.0000
  C   C17       1.0  0.8660863279703149  0.4874508232819748  0.33476062343964236  1.0000
  C   C18       1.0  0.133913545767804  0.5125485911238313  0.6652396424171699  1.0000
  C   C19       1.0  0.7701416957624049  0.5600973614539911  0.2842060851517943  1.0000
  C   C20       1.0  0.22985615865713527  0.4399020410412859  0.7157931554889174  1.0000
  C   C21       1.0  0.6125268645143293  0.4568688099188805  0.24613111995085288  1.0000
  C   C22       1.0  0.3874709951967574  0.5431306015275014  0.7538688799036068  1.0000
  C   C23       1.0  0.5552134979588246  0.397910065350743  0.3353247582214324  1.0000
  C   C24       1.0  0.44478475601090384  0.602090421071871  0.6646754311141834  1.0000
  C   C25       1.0  0.3069307352894199  0.2740128422104888  0.3508459440854353  1.0000
  C   C26       1.0  0.6930691331571525  0.7259865632442126  0.649153562557629  1.0000
  C   C27       1.0  0.1550746318926812  0.17738627149032737  0.2927155396301516  1.0000
  C   C28       1.0  0.8449248475867891  0.8226120679392537  0.7072845367454976  1.0000
  C   C29       1.0  0.040970426431378805  0.19006599720567857  0.3354057620351725  1.0000
  C   C30       1.0  0.9590290477565515  0.8099323332728049  0.6645935551267359  1.0000
  C   C31       1.0  0.8996995928882254  0.1046938373418342  0.27988267942736667  1.0000
  C   C32       1.0  0.10029988129971204  0.8953044931366421  0.7201166377345417  1.0000
  C   C33       1.0  0.9779011088011204  0.992091470636673  0.14789146575943596  1.0000
  C   C34       1.0  0.022098360095270702  0.007906850890698503  0.8521070921887317  1.0000
  C   C35       1.0  0.12217598240678741  0.07295070120922992  0.19814522056589823  1.0000
  C   C36       1.0  0.8778238860397849  0.9270487042454715  0.8018542860771661  1.0000
  C   C37       1.0  0.2914309324012478  0.8142511092890601  0.9984330421979168  1.0000
  C   C38       1.0  0.7085693250124192  0.1857493621907622  0.0015658947125630083  1.0000
  C   C39       1.0  0.24457918950212593  0.6804793306032904  0.03711314891940991  1.0000
  C   C40       1.0  0.7554204657397535  0.3195222322752542  0.9628873628985418  1.0000
  C   C41       1.0  0.14763981404355062  0.6646698138204029  0.10271927565993623  1.0000
  C   C42       1.0  0.8523610667080846  0.3353296020651157  0.8972811231980489  1.0000
  C   C43       1.0  0.10667543976801853  0.5424987591956381  0.14180944101399012  1.0000
  C   C44       1.0  0.8933262295008859  0.45750280664233134  0.858191336806307  1.0000
  C   C45       1.0  0.16066914108607475  0.4342280645751867  0.11522046019749149  1.0000
  C   C46       1.0  0.8393321339241951  0.5657724262865571  0.8847801281416495  1.0000
  C   C47       1.0  0.25579305023121884  0.44791776753478973  0.048599375418575584  1.0000
  C   C48       1.0  0.7442086137461458  0.552083789352082  0.9514006431879808  1.0000
  C   C49       1.0  0.29779482319455747  0.5715607772981314  0.01034475252496492  1.0000
  C   C50       1.0  0.7022074482461348  0.42843969714112257  0.9896544503878673  1.0000
  C   C51       1.0  0.30821797380599486  0.3296565485022214  0.0136488305208786  1.0000
  C   C52       1.0  0.6917818893490305  0.6703428480013754  0.986349916908445  1.0000
  N   N1        1.0  0.45508005071226176  0.09201754838486662  0.7866982214191439  1.0000
  N   N2        1.0  0.5449208300393663  0.9079818675006591  0.21330217743884117  1.0000
  N   N3        1.0  0.8682913159410646  0.0089153321949667  0.18666761366783655  1.0000
  N   N4        1.0  0.1317085525055078  0.9910840732597423  0.813331892975228  1.0000
  N   N5        1.0  0.5997707667209653  0.27960846458476135  0.4760419807742054  1.0000
  N   N6        1.0  0.4002301193222095  0.720390960251862  0.5239591772975204  1.0000
  N   N7        1.0  0.40456355980846587  0.2984794804576154  0.2918710954351838  1.0000
  N   N8        1.0  0.5954357011747716  0.7015210074447041  0.708129226901612  1.0000
  O   O1        1.0  0.2264145316861459  0.9015783407258624  0.012569817389959319  1.0000
  O   O2        1.0  0.7735861252777028  0.0984232146812971  0.9874300682154243  1.0000
  O   O3        1.0  0.3976294250920914  0.8399226175532489  0.9530909246985502  1.0000
  O   O4        1.0  0.6023708323215757  0.16007785392658042  0.04690801221193653  1.0000
  O   O5        1.0  0.30332356258467297  0.23524796307706453  0.06839104829303722  1.0000
  O   O6        1.0  0.6966752988483833  0.764751440897932  0.9316083253488545  1.0000
  O   O7        1.0  0.3514853903787555  0.3223383277277563  0.9292208376413812  1.0000
  O   O8        1.0  0.648513465762754  0.6776610672961283  0.07077777678676976  1.0000
  O   O9        1.0  0.7357616148463961  0.1415107633212571  0.5057877917350098  1.0000
  O   O10       1.0  0.26424247329126166  0.858491898354572  0.4942149599962777  1.0000
  O   O11       1.0  0.3364423280634838  0.325710281025934  0.4490853362861886  1.0000
  O   O12       1.0  0.663557550966175  0.674289142330977  0.5509156887843575  1.0000
