data_image0
_chemical_formula_structural       Cu4H24C20N4O16
_chemical_formula_sum              "Cu4 H24 C20 N4 O16"
_cell_length_a       7.11881421179655
_cell_length_b       8.45373492799235
_cell_length_c       12.560087525462578
_cell_angle_alpha    92.81814060006931
_cell_angle_beta     89.99881009873106
_cell_angle_gamma    114.87283557752662

_space_group_name_H-M_alt    "P 1"
_space_group_IT_number       1

loop_
  _space_group_symop_operation_xyz
  'x, y, z'

loop_
  _atom_site_type_symbol
  _atom_site_label
  _atom_site_symmetry_multiplicity
  _atom_site_fract_x
  _atom_site_fract_y
  _atom_site_fract_z
  _atom_site_occupancy
  Cu  Cu1       1.0  0.48102611844981863  0.34904647361882724  0.9519289170970071  1.0000
  Cu  Cu2       1.0  0.13208720111500566  0.6508313352434384  0.5481412700216312  1.0000
  Cu  Cu3       1.0  0.5189930138945016  0.6509041820981949  0.04805383892299632  1.0000
  Cu  Cu4       1.0  0.8680950699944247  0.3493248994255183  0.45188638403410425  1.0000
  H   H1        1.0  0.23301957432720843  0.591507672555558  0.7799989067335106  1.0000
  H   H2        1.0  0.6416266475030026  0.40860459080731454  0.7200713116516584  1.0000
  H   H3        1.0  0.767002028169088  0.4085181998158305  0.22001394771687904  1.0000
  H   H4        1.0  0.3582292274626654  0.5912864169217331  0.27988913935262627  1.0000
  H   H5        1.0  0.9869400175063705  0.27583067512094334  0.11036760002774322  1.0000
  H   H6        1.0  0.7115245313457875  0.7248147479124256  0.3897851254060215  1.0000
  H   H7        1.0  0.013088616925102735  0.724212079502678  0.8896507110885853  1.0000
  H   H8        1.0  0.28837339358216235  0.27504515545707153  0.6101613340908615  1.0000
  H   H9        1.0  0.11822753451917116  0.1047952463067432  0.831405950395791  1.0000
  H   H10       1.0  0.013501764987928669  0.8952530996243127  0.6686251813359834  1.0000
  H   H11       1.0  0.8817714402312969  0.895216267123267  0.16860632637754244  1.0000
  H   H12       1.0  0.9864722338380357  0.1047477890965709  0.3313962227688307  1.0000
  H   H13       1.0  0.7672654501442651  0.19461512264149405  0.9215738143106051  1.0000
  H   H14       1.0  0.5721747127460188  0.8049185410633725  0.5783415717384629  1.0000
  H   H15       1.0  0.23272295452070316  0.8053836718620603  0.07842043370708042  1.0000
  H   H16       1.0  0.42781951842619037  0.19509191266119794  0.4216579227777828  1.0000
  H   H17       1.0  0.8782168337609304  0.19133457280427282  0.7948887871263964  1.0000
  H   H18       1.0  0.6867177614082819  0.8081493130725618  0.7049437307900562  1.0000
  H   H19       1.0  0.12177617671895984  0.8086734380113825  0.2051018505912126  1.0000
  H   H20       1.0  0.313275095851992  0.19186120222502015  0.29505258130124906  1.0000
  H   H21       1.0  0.7815897900544043  0.00010446614025740023  0.8695838936978221  1.0000
  H   H22       1.0  0.7810632133957608  0.9993394389175945  0.6301801448520054  1.0000
  H   H23       1.0  0.2183984078056582  0.9998995364007613  0.13041136011922563  1.0000
  H   H24       1.0  0.21892083349946742  0.0006815556259099002  0.3698149965160696  1.0000
  C   C1        1.0  0.3193718628528471  0.57224525261843  0.8475261020790941  1.0000
  C   C2        1.0  0.7472305780944167  0.42791215956509626  0.6525432830813928  1.0000
  C   C3        1.0  0.6806468969940054  0.42774682206500353  0.1524774300973917  1.0000
  C   C4        1.0  0.25273777050040985  0.5720774221419234  0.3474545754629546  1.0000
  C   C5        1.0  0.14405491093535966  0.34155394671513767  0.07799168488867991  1.0000
  C   C6        1.0  0.8027869665481543  0.6588997729111908  0.4221423390471984  1.0000
  C   C7        1.0  0.8559721384321789  0.6584406611593466  0.9220159303151336  1.0000
  C   C8        1.0  0.19720483701213706  0.34108333558737064  0.5778520739767502  1.0000
  C   C9        1.0  0.547362678660157  0.0567228679265952  0.7966773251389727  1.0000
  C   C10       1.0  0.49052270759257494  0.9430321936857026  0.7032486312966882  1.0000
  C   C11       1.0  0.4526352822028911  0.9432809945570427  0.20332508903636184  1.0000
  C   C12       1.0  0.5094620438954252  0.0569677236942923  0.2967552166561305  1.0000
  C   C13       1.0  0.22380044955320946  0.0568326232594387  0.7946013892433755  1.0000
  C   C14       1.0  0.16697139505975395  0.9431217521607069  0.7054125905626736  1.0000
  C   C15       1.0  0.7761979110190039  0.9431776610594441  0.2054068569363352  1.0000
  C   C16       1.0  0.8330018364322952  0.0568832226799856  0.29460021946816545  1.0000
  C   C17       1.0  0.7554124094219502  0.11429400650885672  0.8488135873072197  1.0000
  C   C18       1.0  0.6408239747936547  0.8852457657085683  0.6510627164879352  1.0000
  C   C19       1.0  0.24457654817179975  0.8857087053480086  0.15118081834114613  1.0000
  C   C20       1.0  0.3591647453384752  0.11476209293233812  0.34893587740533155  1.0000
  N   N1        1.0  0.4138229453671442  0.1140964705238119  0.8401716363937412  1.0000
  N   N2        1.0  0.2996563892976667  0.8857551919881815  0.6597974172053683  1.0000
  N   N3        1.0  0.586181823870099  0.885912583085947  0.15983257908934695  1.0000
  N   N4        1.0  0.70031899883255  0.1142484765354155  0.34021534024757477  1.0000
  O   O1        1.0  0.3452939228943989  0.43270954067208584  0.8399921541027384  1.0000
  O   O2        1.0  0.9127591004014375  0.5672907669705012  0.6601343488597139  1.0000
  O   O3        1.0  0.6547379314287836  0.567289060163695  0.16001164061302126  1.0000
  O   O4        1.0  0.08721176153898817  0.43274319694629076  0.33986609183200767  1.0000
  O   O5        1.0  0.20688019393248416  0.2435136572155585  0.0238193815776384  1.0000
  O   O6        1.0  0.9635726423488433  0.7567587102524341  0.47636821857458506  1.0000
  O   O7        1.0  0.7931203372425056  0.7564812936250718  0.9761707305670414  1.0000
  O   O8        1.0  0.036436579483705565  0.24326206415135226  0.5236380609821226  1.0000
  O   O9        1.0  0.3785049190268808  0.692078783286867  0.921143513070078  1.0000
  O   O10       1.0  0.6864440736096993  0.3082639802461458  0.5788210716263792  1.0000
  O   O11       1.0  0.6215019288430028  0.307914753084397  0.07885211571462492  1.0000
  O   O12       1.0  0.3136063785657156  0.6917437265122715  0.421184681863025  1.0000
  O   O13       1.0  0.23491128962545818  0.5044471065878753  0.10014806027809443  1.0000
  O   O14       1.0  0.7307583797304884  0.49605482957547764  0.3998381093758498  1.0000
  O   O15       1.0  0.7651389618536085  0.49554333348646645  0.8998721267270471  1.0000
  O   O16       1.0  0.26930538911847884  0.5039570366735476  0.600155071776662  1.0000
