data_image0
_chemical_formula_structural       K4H8C4N16O4
_chemical_formula_sum              "K4 H8 C4 N16 O4"
_cell_length_a       3.8909562861741986
_cell_length_b       9.777335093550125
_cell_length_c       11.255891785018651
_cell_angle_alpha    90.00018345467953
_cell_angle_beta     90.00008604670528
_cell_angle_gamma    93.83260382092195

_space_group_name_H-M_alt    "P 1"
_space_group_IT_number       1

loop_
  _space_group_symop_operation_xyz
  'x, y, z'

loop_
  _atom_site_type_symbol
  _atom_site_label
  _atom_site_symmetry_multiplicity
  _atom_site_fract_x
  _atom_site_fract_y
  _atom_site_fract_z
  _atom_site_occupancy
  K   K1        1.0  0.2549089004937174  0.8310517443970229  0.9043738062987007  1.0000
  K   K2        1.0  0.7450905306838679  0.6689473819625177  0.4043751226058916  1.0000
  K   K3        1.0  0.745092864781242  0.16894883586486736  0.09562590452068061  1.0000
  K   K4        1.0  0.2549109263723324  0.3310511482212988  0.5956263650577895  1.0000
  H   H1        1.0  0.9270243432752567  0.8911798463594633  0.15362591010224952  1.0000
  H   H2        1.0  0.07297415762288041  0.6088203682553226  0.6536274369499824  1.0000
  H   H3        1.0  0.07297469667525289  0.10881970165645775  0.8463720238677723  1.0000
  H   H4        1.0  0.9270248823320134  0.391179179764002  0.3463722738672602  1.0000
  H   H5        1.0  0.6455634093251915  0.7857490858007664  0.10007595730291292  1.0000
  H   H6        1.0  0.3544345188550225  0.7142488733247914  0.6000779237040421  1.0000
  H   H7        1.0  0.354437893612854  0.21424841933719554  0.8999228650884846  1.0000
  H   H8        1.0  0.645562104007347  0.28575169253686983  0.3999235639611882  1.0000
  C   C1        1.0  0.5805070212621218  0.9943052019816886  0.5576792422673195  1.0000
  C   C2        1.0  0.41949357693699346  0.5056946517963752  0.05767904740012852  1.0000
  C   C3        1.0  0.41949201869497454  0.005694346039341298  0.4423213569735226  1.0000
  C   C4        1.0  0.5805080342263909  0.4943049034247693  0.9423206634177961  1.0000
  N   N1        1.0  0.6045472907248169  0.8755774240948851  0.6168623114170799  1.0000
  N   N2        1.0  0.39545102858575404  0.6244226494982357  0.11686243249899772  1.0000
  N   N3        1.0  0.3954544745523308  0.12442315616870302  0.38313828782590786  1.0000
  N   N4        1.0  0.6045505825798261  0.37557690572461405  0.8831381667425334  1.0000
  N   N5        1.0  0.7702529760063329  0.9107698506226001  0.7180938317219229  1.0000
  N   N6        1.0  0.22974584331017678  0.5892306112772161  0.21809376840644037  1.0000
  N   N7        1.0  0.2297460639507564  0.08922969739843718  0.281906767518926  1.0000
  N   N8        1.0  0.7702557678532077  0.4107689439439353  0.781905942411484  1.0000
  N   N9        1.0  0.8404406456936332  0.0450119289951516  0.719152541547189  1.0000
  N   N10       1.0  0.1595587672785116  0.4549895395529261  0.21915167674634978  1.0000
  N   N11       1.0  0.15955854837503136  0.9549886440666241  0.2808480576951169  1.0000
  N   N12       1.0  0.8404404267879574  0.5450110335071514  0.7808480340723423  1.0000
  N   N13       1.0  0.7258556265615328  0.10131581286545097  0.6193692917506299  1.0000
  N   N14       1.0  0.2741431394457621  0.39868424788998164  0.1193683312938987  1.0000
  N   N15       1.0  0.27414341339555665  0.8986837351555862  0.3806313074902193  1.0000
  N   N16       1.0  0.7258559005091315  0.6013153001293432  0.8806313795233437  1.0000
  O   O1        1.0  0.7830297992635453  0.8727996204777708  0.08116246363744753  1.0000
  O   O2        1.0  0.21697785799910463  0.6271952197849584  0.5811650053754606  1.0000
  O   O3        1.0  0.2169789090746194  0.12719585618245333  0.9188354703294763  1.0000
  O   O4        1.0  0.7830211819579845  0.3728043282360716  0.4188355938653886  1.0000
