data_image0
_chemical_formula_structural       Cu4H4C4Br4N8
_chemical_formula_sum              "Cu4 H4 C4 Br4 N8"
_cell_length_a       6.278960570112224
_cell_length_b       6.589238285666607
_cell_length_c       9.60101059409568
_cell_angle_alpha    89.99746187447484
_cell_angle_beta     90.00245361678547
_cell_angle_gamma    118.53631891413187

_space_group_name_H-M_alt    "P 1"
_space_group_IT_number       1

loop_
  _space_group_symop_operation_xyz
  'x, y, z'

loop_
  _atom_site_type_symbol
  _atom_site_label
  _atom_site_symmetry_multiplicity
  _atom_site_fract_x
  _atom_site_fract_y
  _atom_site_fract_z
  _atom_site_occupancy
  Cu  Cu1       1.0  0.6026540024436711  0.7276559629172963  0.7500081872783755  1.0000
  Cu  Cu2       1.0  0.39735110982667976  0.2723423305845714  0.2500074842947271  1.0000
  Cu  Cu3       1.0  0.12585618296466072  0.7286730347590262  0.2500134505707905  1.0000
  Cu  Cu4       1.0  0.8741347712147345  0.27130970718464903  0.7499928470232791  1.0000
  H   H1        1.0  0.7936574187791334  0.5877234652878656  0.500094506125052  1.0000
  H   H2        1.0  0.20634015648963797  0.4122794606604429  8.524128094930002e-05  1.0000
  H   H3        1.0  0.2063566614061968  0.4122800148505518  0.4999294979527706  1.0000
  H   H4        1.0  0.7936756096205639  0.5877464707830312  0.9999189728994227  1.0000
  C   C1        1.0  0.88797044768733  0.7761339720911733  0.5000544647361382  1.0000
  C   C2        1.0  0.11196562687884887  0.2238447376528043  2.0084906921600007e-05  1.0000
  C   C3        1.0  0.11198431863306982  0.2238401099683429  0.4999799545170305  1.0000
  C   C4        1.0  0.8879784405824082  0.7761207037740192  0.9999632980311691  1.0000
  Br  Br1       1.0  0.5188123867498574  0.3179728734380021  0.7500131683655981  1.0000
  Br  Br2       1.0  0.4811992350914379  0.6820288782887616  0.250003544804379  1.0000
  Br  Br3       1.0  0.7994538266569079  0.31877376224869636  0.2500478743293897  1.0000
  Br  Br4       1.0  0.20055578861840206  0.6812176297398196  0.749837602783366  1.0000
  N   N1        1.0  0.8102447942165797  0.8823780959999823  0.589015320445462  1.0000
  N   N2        1.0  0.1897829923360845  0.11762592267348988  0.08904257715623493  1.0000
  N   N3        1.0  0.07225331272824302  0.8825046158426346  0.4110048897012605  1.0000
  N   N4        1.0  0.9277499308741498  0.11751041498548886  0.9110300076632358  1.0000
  N   N5        1.0  0.18977160649100708  0.11762365969106268  0.41097118763826773  1.0000
  N   N6        1.0  0.8102300423776825  0.8823913717791426  0.9109887175981161  1.0000
  N   N7        1.0  0.927747884438588  0.11749540258038135  0.5889805766369847  1.0000
  N   N8        1.0  0.07226715502295612  0.8825086093284609  0.08899295466609662  1.0000
