data_image0
_chemical_formula_structural       Zn2H20C36N4O10F8
_chemical_formula_sum              "Zn2 H20 C36 N4 O10 F8"
_cell_length_a       8.752920215643673
_cell_length_b       10.275188673889447
_cell_length_c       10.477351323172687
_cell_angle_alpha    77.98614766201437
_cell_angle_beta     79.55001205238341
_cell_angle_gamma    69.88145975799421

_space_group_name_H-M_alt    "P 1"
_space_group_IT_number       1

loop_
  _space_group_symop_operation_xyz
  'x, y, z'

loop_
  _atom_site_type_symbol
  _atom_site_label
  _atom_site_symmetry_multiplicity
  _atom_site_fract_x
  _atom_site_fract_y
  _atom_site_fract_z
  _atom_site_occupancy
  Zn  Zn1       1.0  0.5156847016408788  0.8000799155881994  0.7419708415381411  1.0000
  Zn  Zn2       1.0  0.4843113666851694  0.1999236475404587  0.25802881221423496  1.0000
  H   H1        1.0  0.7259020548841661  0.987359428265641  0.5779885971414134  1.0000
  H   H2        1.0  0.2740954559231525  0.012636830469887197  0.4220075215938977  1.0000
  H   H3        1.0  0.8989037072030186  0.11339115620172179  0.6277742036677979  1.0000
  H   H4        1.0  0.10109305578001937  0.8866071955246824  0.37222256653539904  1.0000
  H   H5        1.0  0.9328054965813596  0.10000424158271667  0.8652553179623867  1.0000
  H   H6        1.0  0.06719475886841036  0.8999940803343949  0.13473996563877216  1.0000
  H   H7        1.0  0.7943201395431881  0.9584703594252558  0.03967348622489922  1.0000
  H   H8        1.0  0.2056777895496325  0.0415279803395379  0.9603231067012745  1.0000
  H   H9        1.0  0.6698004401493376  0.8412864639170224  0.17279779659519787  1.0000
  H   H10       1.0  0.3301906166108708  0.15872133930482588  0.8272008276110231  1.0000
  H   H11       1.0  0.5190281863239503  0.691700063477164  0.3194136630905718  1.0000
  H   H12       1.0  0.48096750515863806  0.3083045491846974  0.6805858390102487  1.0000
  H   H13       1.0  0.3718655096463903  0.5719828765381222  0.2208957043837431  1.0000
  H   H14       1.0  0.6281328611824576  0.4280175199537694  0.779105181817258  1.0000
  H   H15       1.0  0.36921493573184694  0.624078294034895  0.9747291187064919  1.0000
  H   H16       1.0  0.6307807260339543  0.37592317591342095  0.025271970396985904  1.0000
  H   H17       1.0  0.3469391164087908  0.06335644864810769  0.6329137217079791  1.0000
  H   H18       1.0  0.6530534891673057  0.9366502870033812  0.36708583164377034  1.0000
  H   H19       1.0  0.25002326817168097  0.9503798180181278  0.6638131813678357  1.0000
  H   H20       1.0  0.749971245475855  0.049624818756420615  0.33618458846802224  1.0000
  C   C1        1.0  0.7459198983082089  0.982144788569457  0.6787359816436979  1.0000
  C   C2        1.0  0.2540795737378687  0.017852489700523198  0.3212605856570151  1.0000
  C   C3        1.0  0.8420374633339945  0.0529583955658737  0.7077285908485468  1.0000
  C   C4        1.0  0.15796201457470702  0.9470388766285609  0.29226893122315556  1.0000
  C   C5        1.0  0.8603889556707002  0.0440916012513668  0.838995384739505  1.0000
  C   C6        1.0  0.13961013953191762  0.9559067265518096  0.1610010309096523  1.0000
  C   C7        1.0  0.783692285456837  0.9646155639491666  0.9364300625607814  1.0000
  C   C8        1.0  0.21630602047944336  0.035381726282416495  0.06356668201694764  1.0000
  C   C9        1.0  0.6900131955800219  0.8951829666550137  0.899734736089194  1.0000
  C   C10       1.0  0.30998320228481185  0.10481642245350999  0.10026379200442656  1.0000
  C   C11       1.0  0.6036675845720577  0.8080172199624088  0.9954885432426935  1.0000
  C   C12       1.0  0.3963292198530226  0.1919842623264572  0.004508549499817611  1.0000
  C   C13       1.0  0.6058238122087829  0.7888711633408646  0.13136616267688345  1.0000
  C   C14       1.0  0.39417571300459275  0.21112923334050046  0.8686326367051297  1.0000
  C   C15       1.0  0.5209525548337695  0.7048625839126642  0.21352850389694572  1.0000
  C   C16       1.0  0.47904426717919796  0.2951388801495796  0.7864714531585336  1.0000
  C   C17       1.0  0.43676687664767394  0.6403888782030477  0.15953872232268654  1.0000
  C   C18       1.0  0.5632314883185429  0.35961152436438226  0.8404612091073322  1.0000
  C   C19       1.0  0.4364852723292643  0.6669266249803769  0.023870586997176747  1.0000
  C   C20       1.0  0.5635107545547411  0.3330738075858122  0.9761287442158778  1.0000
  C   C21       1.0  0.2321580959017878  0.7308530702943088  0.6750182648753055  1.0000
  C   C22       1.0  0.767846087484486  0.26914411152490914  0.3249852314852575  1.0000
  C   C23       1.0  0.1693319670003675  0.6125011197659588  0.6669422363156915  1.0000
  C   C24       1.0  0.8306780230807005  0.38749285345612355  0.33306291543343763  1.0000
  C   C25       1.0  0.23160614959594028  0.5344485968917069  0.5644061291538807  1.0000
  C   C26       1.0  0.7683941707463974  0.4655528312857057  0.4355932960705504  1.0000
  C   C27       1.0  0.061241759638569676  0.5680302572612704  0.766482361355145  1.0000
  C   C28       1.0  0.9387775886339752  0.43196358989023753  0.23352614603280136  1.0000
  C   C29       1.0  0.19941292458832988  0.41142457612771466  0.5599314442552272  1.0000
  C   C30       1.0  0.8005804170867915  0.5885800786839822  0.44006554808665765  1.0000
  C   C31       1.0  0.017473658890423734  0.45033199296655374  0.7642836176720923  1.0000
  C   C32       1.0  0.9825367967808203  0.5496671857717245  0.2357232855782173  1.0000
  C   C33       1.0  0.08817489213934947  0.3735387559556144  0.6618639840239241  1.0000
  C   C34       1.0  0.9118200159395328  0.6264648130591086  0.33813680177645006  1.0000
  C   C35       1.0  0.29709433531209567  0.3152462859594252  0.46250074660780893  1.0000
  C   C36       1.0  0.7028993832064854  0.6847573193190684  0.537496397385631  1.0000
  N   N1        1.0  0.6723703798661799  0.9054036318101951  0.7721208234963584  1.0000
  N   N2        1.0  0.3276283443556025  0.09459573945064649  0.22787639527224712  1.0000
  N   N3        1.0  0.5178904936447777  0.7481867271695535  0.9444965684675002  1.0000
  N   N4        1.0  0.4821066934863865  0.2518136995105635  0.05550163069754891  1.0000
  O   O1        1.0  0.3507841678064521  0.6921352407004165  0.7438198859865753  1.0000
  O   O2        1.0  0.649218160675673  0.3078671584071273  0.2561876259711724  1.0000
  O   O3        1.0  0.16625337318176733  0.8513399217268046  0.614923364754617  1.0000
  O   O4        1.0  0.8337542436413087  0.14865411794728087  0.3850754581516257  1.0000
  O   O5        1.0  0.3034408291308567  0.3657433527986456  0.34077459006187655  1.0000
  O   O6        1.0  0.6965548447638384  0.6342612780898376  0.6592220477259761  1.0000
  O   O7        1.0  0.37564381279977244  0.1896810895336429  0.5066494473070763  1.0000
  O   O8        1.0  0.6243515018393565  0.8103245726614219  0.4933499031421962  1.0000
  O   O9        1.0  0.32415610581144677  0.9863334761868999  0.7010096541591722  1.0000
  O   O10       1.0  0.67583765414917  0.013673259654062497  0.29898781237358213  1.0000
  F   F1        1.0  0.33914448671569614  0.576700849718506  0.46790457672360475  1.0000
  F   F2        1.0  0.6608538723878894  0.4232995589244625  0.5320943999354171  1.0000
  F   F3        1.0  0.04572122877201677  0.2583122736193815  0.6626644889151054  1.0000
  F   F4        1.0  0.954266683051763  0.7416945402562406  0.337330999689762  1.0000
  F   F5        1.0  0.9107490559359162  0.4096324019307857  0.8609831167742787  1.0000
  F   F6        1.0  0.08926953238344729  0.5903603772714305  0.1390304933971791  1.0000
  F   F7        1.0  0.9967567810089618  0.6389471083923866  0.8691879090702985  1.0000
  F   F8        1.0  0.003276818557388605  0.3610329748324189  0.13082497065565243  1.0000
