data_image0
_chemical_formula_structural       Mg12H24C24O48
_chemical_formula_sum              "Mg12 H24 C24 O48"
_cell_length_a       9.915482641001475
_cell_length_b       11.403554661251599
_cell_length_c       14.591800688669144
_cell_angle_alpha    91.41667493739078
_cell_angle_beta     89.99994221802409
_cell_angle_gamma    89.99997775150261

_space_group_name_H-M_alt    "P 1"
_space_group_IT_number       1

loop_
  _space_group_symop_operation_xyz
  'x, y, z'

loop_
  _atom_site_type_symbol
  _atom_site_label
  _atom_site_symmetry_multiplicity
  _atom_site_fract_x
  _atom_site_fract_y
  _atom_site_fract_z
  _atom_site_occupancy
  Mg  Mg1       1.0  0.9223990729045682  0.7434931975931532  0.864944005341073  1.0000
  Mg  Mg2       1.0  0.4223993736542513  0.756506748949427  0.6350563106124554  1.0000
  Mg  Mg3       1.0  0.07760070461516481  0.2565073326809255  0.1350557236705257  1.0000
  Mg  Mg4       1.0  0.5776004038651834  0.24349290453036332  0.3649440870819731  1.0000
  Mg  Mg5       1.0  1.0085237747000003e-06  0.9999999999998153  0.9999999999996518  1.0000
  Mg  Mg6       1.0  0.5000003930219635  0.49999938794936577  0.4999998478645509  1.0000
  Mg  Mg7       1.0  0.11190915147647475  0.7602283095080937  0.689452053349612  1.0000
  Mg  Mg8       1.0  0.6119099415870722  0.7397717487688809  0.8105484776775355  1.0000
  Mg  Mg9       1.0  0.8880896175194837  0.23977222076617014  0.3105476756623347  1.0000
  Mg  Mg10      1.0  0.388089835932668  0.260228781505198  0.18945125133406288  1.0000
  Mg  Mg11      1.0  0.9999998884566995  0.5000002514468633  6.943698949002307e-07  1.0000
  Mg  Mg12      1.0  0.4999992729553996  0.9999996390031145  0.4999998569108897  1.0000
  H   H1        1.0  0.043734088420343716  0.0292777304260383  0.7263274586571669  1.0000
  H   H2        1.0  0.5437348301793037  0.4707218498843844  0.773672416178492  1.0000
  H   H3        1.0  0.9562656890993966  0.9707227998480404  0.2736722703544316  1.0000
  H   H4        1.0  0.45626696438839803  0.5292769260141627  0.22632727955026868  1.0000
  H   H5        1.0  0.6030226759823735  0.93800953301281  0.9586958185089998  1.0000
  H   H6        1.0  0.1030232025656943  0.5619896516678579  0.5413053873566582  1.0000
  H   H7        1.0  0.39697811006084294  0.06199012046680249  0.0413045791850806  1.0000
  H   H8        1.0  0.8969785920007853  0.4380100022048695  0.4586956956609853  1.0000
  H   H9        1.0  0.7494636700663976  0.6319053614886769  0.6244555748204945  1.0000
  H   H10       1.0  0.24946356435211214  0.8680937700998114  0.87554484428302  1.0000
  H   H11       1.0  0.25053409040710756  0.3680960447934681  0.37554211486114747  1.0000
  H   H12       1.0  0.7505372216911043  0.131905883379801  0.1244555534110674  1.0000
  H   H13       1.0  0.7050682109628357  0.4960450914140255  0.9922787118821788  1.0000
  H   H14       1.0  0.20506881324809006  0.003953554436918701  0.5077224052054632  1.0000
  H   H15       1.0  0.29493156655609454  0.5039545624590646  0.0077223711361611  1.0000
  H   H16       1.0  0.794931972795844  0.9960452214618131  0.49227729052363856  1.0000
  H   H17       1.0  0.2077068081992621  0.5168041126966685  0.7623707378689915  1.0000
  H   H18       1.0  0.7077065893261081  0.9831959107129649  0.7376290414763531  1.0000
  H   H19       1.0  0.7922929693211958  0.48319553999653664  0.2376282891776285  1.0000
  H   H20       1.0  0.2922931881938382  0.0168037423735328  0.2623706708941711  1.0000
  H   H21       1.0  0.16683178210715252  0.8103173445179479  0.077264722233366  1.0000
  H   H22       1.0  0.6668314196533985  0.6896824858950055  0.4227357134842649  1.0000
  H   H23       1.0  0.8331679954125877  0.1896831857561381  0.9227350067782325  1.0000
  H   H24       1.0  0.3331693663898179  0.310317167584607  0.5772646842098155  1.0000
  C   C1        1.0  0.017348830395924608  0.9817001288348878  0.7890448662563898  1.0000
  C   C2        1.0  0.5173488585075817  0.5182999626845872  0.7109543596243526  1.0000
  C   C3        1.0  0.9826509471233111  0.018300401832483704  0.2109555480791201  1.0000
  C   C4        1.0  0.4826509190123647  0.4816996904019106  0.28904535274617155  1.0000
  C   C5        1.0  0.7125009672437915  0.9221093782464819  0.9503457837527945  1.0000
  C   C6        1.0  0.2125004658254923  0.5778897666436649  0.5496546609546158  1.0000
  C   C7        1.0  0.28750082732371146  0.07789027483965333  0.0496539286170332  1.0000
  C   C8        1.0  0.7874983031706722  0.4221098864430176  0.4503450514162637  1.0000
  C   C9        1.0  0.8303119377840675  0.6689597440261893  0.6683731880285322  1.0000
  C   C10       1.0  0.33031292226224457  0.8310402352619235  0.8316265063888508  1.0000
  C   C11       1.0  0.16968683121258724  0.33104429381852907  0.3316245515759775  1.0000
  C   C12       1.0  0.6696878637809647  0.168959418217689  0.1683738913052366  1.0000
  C   C13       1.0  0.7237944991067026  0.568599341050991  0.9452896047254171  1.0000
  C   C14       1.0  0.22379584951137596  0.9314006765689555  0.5547101634755833  1.0000
  C   C15       1.0  0.27620527841324377  0.4314003120355068  0.0547101076451142  1.0000
  C   C16       1.0  0.7762049365320466  0.0685980997230686  0.4452902175774298  1.0000
  C   C17       1.0  0.13353488148624143  0.5470792575677947  0.8147036358842428  1.0000
  C   C18       1.0  0.6335347537373937  0.9529199157394147  0.6852968635221828  1.0000
  C   C19       1.0  0.8664638875084949  0.4529221506806422  0.1852974804165939  1.0000
  C   C20       1.0  0.3664650237827659  0.0470788601595018  0.31470283220726714  1.0000
  C   C21       1.0  0.1024083383200676  0.7574325996072416  0.0304165420383455  1.0000
  C   C22       1.0  0.6024078827889667  0.7425672535961781  0.4695832529809962  1.0000
  C   C23       1.0  0.8975914391996728  0.2425679306668371  0.969583186973253  1.0000
  C   C24       1.0  0.3975908862069916  0.2574332766780856  0.5304164760309504  1.0000
  O   O1        1.0  0.007260598859851103  0.869599415341753  0.7798841259661344  1.0000
  O   O2        1.0  0.5072595548443176  0.6304015573891989  0.7201158088679946  1.0000
  O   O3        1.0  0.9927411957062163  0.1304019929061369  0.2201169903336506  1.0000
  O   O4        1.0  0.49273921415113625  0.3695989732783572  0.2798846054678634  1.0000
  O   O5        1.0  0.7452962060440954  0.8431399160572824  0.8896424745154903  1.0000
  O   O6        1.0  0.2452965878846031  0.6568609710127121  0.6103572954328627  1.0000
  O   O7        1.0  0.2547035714756448  0.1568606142167965  0.11035725449610821  1.0000
  O   O8        1.0  0.7547031896353432  0.3431386820737856  0.3896424169376687  1.0000
  O   O9        1.0  0.8001025488688857  0.6927935940724694  0.7525107108821771  1.0000
  O   O10       1.0  0.30010266024353893  0.8072063968736887  0.7474903751091162  1.0000
  O   O11       1.0  0.19989622012614922  0.3072086909702564  0.2474897367358224  1.0000
  O   O12       1.0  0.6998971172755976  0.19279237981181296  0.2525106912681565  1.0000
  O   O13       1.0  0.8474738025886597  0.6017168799152303  0.9371320762512241  1.0000
  O   O14       1.0  0.34747414714648545  0.8982830935903368  0.5628682916024061  1.0000
  O   O15       1.0  0.15252698345485535  0.3982836503586712  0.0628676527600263  1.0000
  O   O16       1.0  0.6525266388969373  0.10171568270168761  0.437132089450607  1.0000
  O   O17       1.0  0.08249045359831093  0.6493733154962059  0.8027857984725983  1.0000
  O   O18       1.0  0.5824903538143859  0.8506276301619806  0.6972140842501061  1.0000
  O   O19       1.0  0.9175073068741781  0.3506280915725243  0.19721326185685942  1.0000
  O   O20       1.0  0.41750942370514127  0.14937377729968662  0.3027856614025595  1.0000
  O   O21       1.0  0.02761045885475971  0.8156851945466242  0.9751421139278805  1.0000
  O   O22       1.0  0.5276096803782482  0.6843157708610832  0.5248578068099761  1.0000
  O   O23       1.0  0.9723903271884569  0.18431445893298812  0.0248582837661999  1.0000
  O   O24       1.0  0.4723900971411936  0.31568388261871405  0.4751425908844595  1.0000
  O   O25       1.0  0.9999042843692223  0.0390290205398856  0.8621437852472837  1.0000
  O   O26       1.0  0.499902472692746  0.4609712727988579  0.6378557902450268  1.0000
  O   O27       1.0  9.751019765500001e-05  0.9609732641090005  0.1378559770457599  1.0000
  O   O28       1.0  0.500096296302914  0.539028380681117  0.362144607449757  1.0000
  O   O29       1.0  0.7930446526369936  0.9808606846047638  0.9987183751098101  1.0000
  O   O30       1.0  0.29304324065096676  0.5191393084882634  0.5012820304470438  1.0000
  O   O31       1.0  0.20695815045356625  0.0191398460620675  0.0012820392246481998  1.0000
  O   O32       1.0  0.706956536868468  0.4808603449915268  0.49871836724739177  1.0000
  O   O33       1.0  0.6247484083523178  0.6112084954368342  0.9043923566307157  1.0000
  O   O34       1.0  0.1247497171119605  0.8887906806387704  0.5956074635376254  1.0000
  O   O35       1.0  0.3752513691671169  0.38879115804296316  0.09560804106371991  1.0000
  O   O36       1.0  0.8752520774550234  0.11120897284065727  0.4043929341561138  1.0000
  O   O37       1.0  0.107575446582068  0.48068836482607225  0.8790337284514536  1.0000
  O   O38       1.0  0.6075756077076166  0.0193111925101803  0.6209661021620292  1.0000
  O   O39       1.0  0.8924253394600116  0.5193139206095836  0.120967404489754  1.0000
  O   O40       1.0  0.3924241698116121  0.9806893381571911  0.3790343121734807  1.0000
  O   O41       1.0  0.1080994594487166  0.6484007098779543  0.03428157261611631  1.0000
  O   O42       1.0  0.6080989610033357  0.8515982640898584  0.4657182018199748  1.0000
  O   O43       1.0  0.891900318070306  0.3516006979770054  0.9657188583604607  1.0000
  O   O44       1.0  0.39190182504080445  0.1483996346212919  0.5342814772680597  1.0000
  O   O45       1.0  0.9439554456809491  0.6839222820789034  0.6326175811235615  1.0000
  O   O46       1.0  0.4439553752808721  0.8160776563130697  0.8673820345742697  1.0000
  O   O47       1.0  0.05604433183939511  0.3160800017837602  0.36738081052236277  1.0000
  O   O48       1.0  0.5560444022385626  0.18392199716672766  0.1326183631201658  1.0000
