data_image0
_chemical_formula_structural       Al2H8C24S2Cl4O10
_chemical_formula_sum              "Al2 H8 C24 S2 Cl4 O10"
_cell_length_a       6.678950195217033
_cell_length_b       12.777589166306141
_cell_length_c       17.74492581858176
_cell_angle_alpha    84.70749549545202
_cell_angle_beta     79.22884645786543
_cell_angle_gamma    74.84004773060755

_space_group_name_H-M_alt    "P 1"
_space_group_IT_number       1

loop_
  _space_group_symop_operation_xyz
  'x, y, z'

loop_
  _atom_site_type_symbol
  _atom_site_label
  _atom_site_symmetry_multiplicity
  _atom_site_fract_x
  _atom_site_fract_y
  _atom_site_fract_z
  _atom_site_occupancy
  Al  Al1       1.0  0.48928406674782815  0.4982424384444568  0.5012492773848789  1.0000
  Al  Al2       1.0  0.9902299222832486  0.49822535839821563  0.4986388731906642  1.0000
  H   H1        1.0  0.26894865035612986  0.3797200035254915  0.5595122448549998  1.0000
  H   H2        1.0  0.7013985022940047  0.6209098700977121  0.44575013352709164  1.0000
  H   H3        1.0  0.6566090291846436  0.5392115762231099  0.2732535323123314  1.0000
  H   H4        1.0  0.7339975937755268  0.551651347081595  0.12964240777060343  1.0000
  H   H5        1.0  0.11060005916956323  0.42420026119204823  0.2645164812753363  1.0000
  H   H6        1.0  0.8916411589342489  0.583315128307987  0.7218321018660911  1.0000
  H   H7        1.0  0.3478596745623221  0.45546890727603534  0.7399572229271807  1.0000
  H   H8        1.0  0.311037422992861  0.44672597736172287  0.8832782783955647  1.0000
  C   C1        1.0  0.8403307308621989  0.3030084355289802  0.502530640359012  1.0000
  C   C2        1.0  0.6591897838242105  0.5129346385233118  0.6375957245985189  1.0000
  C   C3        1.0  0.13836294053705697  0.6940203374984293  0.49749107443820845  1.0000
  C   C4        1.0  0.32623589937904995  0.484445650603881  0.36247956850500157  1.0000
  C   C5        1.0  0.37769587040979496  0.4827962274117467  0.2770712392594063  1.0000
  C   C6        1.0  0.5560872498941835  0.5164266790628744  0.23920400191160943  1.0000
  C   C7        1.0  0.5996107283527295  0.5226964497154468  0.15968996388289003  1.0000
  C   C8        1.0  0.47205777507095104  0.4907276873398913  0.11557653397798619  1.0000
  C   C9        1.0  0.29865656112690436  0.4518190624473488  0.15512253356296662  1.0000
  C   C10       1.0  0.2482656231444124  0.45072904703636846  0.23483058504734788  1.0000
  C   C11       1.0  0.514885734941302  0.49877801056774  0.034734852756251704  1.0000
  C   C12       1.0  0.5480736499294848  0.5080497512503399  0.964742315476641  1.0000
  C   C13       1.0  0.573981625093765  0.5142854033755241  0.8839022182056122  1.0000
  C   C14       1.0  0.7346642603827434  0.5559410296328905  0.8371006763675761  1.0000
  C   C15       1.0  0.7628969634646978  0.5551059484863216  0.757500697139903  1.0000
  C   C16       1.0  0.6235545323463257  0.5183153896673216  0.7227634996907424  1.0000
  C   C17       1.0  0.4567861177841125  0.4820714844404108  0.767948887546829  1.0000
  C   C18       1.0  0.435726723144633  0.4777430602038064  0.8473095321969166  1.0000
  C   C19       1.0  0.20470672404604076  0.885247416067081  0.4678115146326858  1.0000
  C   C20       1.0  0.772976544721928  0.11191782694256598  0.532634580814502  1.0000
  C   C21       1.0  0.08275354773179093  0.8131608611009113  0.4977524370763218  1.0000
  C   C22       1.0  0.8951109417764087  0.18392166767414858  0.5025620786035316  1.0000
  C   C23       1.0  0.8858928663382385  0.002898103958621301  0.5199358953022821  1.0000
  C   C24       1.0  0.09176968280103642  0.9942737582183411  0.4804171766923771  1.0000
  S   S1        1.0  0.8295170532782093  0.8786182996470445  0.5406057429032952  1.0000
  S   S2        1.0  0.14806189468678346  0.118486765351328  0.4595035466391691  1.0000
  Cl  Cl1       1.0  0.14706632114257454  0.4057331261218024  0.10309935314624848  1.0000
  Cl  Cl2       1.0  0.8980208897689863  0.6079404973142459  0.8796720161148879  1.0000
  Cl  Cl3       1.0  0.456302873239352  0.8528748160501463  0.4179803536955544  1.0000
  Cl  Cl4       1.0  0.521479312702752  0.14414144689206404  0.582493224273456  1.0000
  O   O1        1.0  0.6459787999661086  0.3514242453649174  0.5148609544696823  1.0000
  O   O2        1.0  0.8499072327187989  0.4964317630310687  0.6036653068102635  1.0000
  O   O3        1.0  0.9855257467270844  0.648851261335544  0.5071042834131274  1.0000
  O   O4        1.0  0.4814798101560597  0.4736510952192602  0.3971720600621536  1.0000
  O   O5        1.0  0.3328929034771517  0.6457461976471136  0.48797810041271095  1.0000
  O   O6        1.0  0.13298484164288743  0.4996065339444868  0.3935394678812754  1.0000
  O   O7        1.0  0.9936861770611569  0.3481346835588113  0.48979932024349865  1.0000
  O   O8        1.0  0.4985051904282969  0.5220116437233528  0.6060737642744269  1.0000
  O   O9        1.0  0.24399307520373983  0.4520787835243211  0.5353172726118128  1.0000
  O   O10       1.0  0.7330555548090417  0.5457617879637198  0.46476590869415435  1.0000
