data_image0
_chemical_formula_structural       Er2H12C12N2O16
_chemical_formula_sum              "Er2 H12 C12 N2 O16"
_cell_length_a       6.680421668907148
_cell_length_b       7.829725494456931
_cell_length_c       9.148663792245976
_cell_angle_alpha    95.802235897081
_cell_angle_beta     110.9580557566961
_cell_angle_gamma    94.20502279804508

_space_group_name_H-M_alt    "P 1"
_space_group_IT_number       1

loop_
  _space_group_symop_operation_xyz
  'x, y, z'

loop_
  _atom_site_type_symbol
  _atom_site_label
  _atom_site_symmetry_multiplicity
  _atom_site_fract_x
  _atom_site_fract_y
  _atom_site_fract_z
  _atom_site_occupancy
  Er  Er1       1.0  0.37519257569066156  0.7638301512794283  0.2160288284983593  1.0000
  Er  Er2       1.0  0.624809721999341  0.23617184102878488  0.7839621361965141  1.0000
  H   H1        1.0  0.7544719370238367  0.2635811162308172  0.3811265006582189  1.0000
  H   H2        1.0  0.24552793781371207  0.7364015416346202  0.6188884202722135  1.0000
  H   H3        1.0  0.9637252397621623  0.22701994862783434  0.5557661775369523  1.0000
  H   H4        1.0  0.036281048636190874  0.7729860043057354  0.4442545725407143  1.0000
  H   H5        1.0  0.02707362244603929  0.8356548113910518  0.7726036738628466  1.0000
  H   H6        1.0  0.9729188586845865  0.16434457135584069  0.22740312476611985  1.0000
  H   H7        1.0  0.779063961428747  0.7125897259210772  0.7387191374343371  1.0000
  H   H8        1.0  0.220922771163039  0.28741477560650697  0.2612822482134405  1.0000
  H   H9        1.0  0.93174101678305  0.573358655937852  0.0943315329785363  1.0000
  H   H10       1.0  0.06826930314998239  0.42664338975889377  0.9056614998094757  1.0000
  H   H11       1.0  0.8914313587869032  0.7692393171005134  0.11771544244087548  1.0000
  H   H12       1.0  0.10856898052535507  0.23076007908414906  0.8822747963696997  1.0000
  C   C1        1.0  0.8426461075176802  0.4656191244821527  0.5704886892998147  1.0000
  C   C2        1.0  0.157346856253298  0.5343841246832921  0.429513098930137  1.0000
  C   C3        1.0  0.9041463410067792  0.324239186440586  0.47685817715856854  1.0000
  C   C4        1.0  0.09585062849253488  0.6757576499437121  0.5231528373391257  1.0000
  C   C5        1.0  0.8805766758824515  0.7674745189342643  0.6795865764454445  1.0000
  C   C6        1.0  0.1194152529363066  0.2325326071224224  0.3204196496023782  1.0000
  C   C7        1.0  0.756909691737775  0.8959278462669572  0.5762042013800084  1.0000
  C   C8        1.0  0.2430863575885098  0.10406376752465717  0.42378208187732  1.0000
  C   C9        1.0  0.6101134715858691  0.9653691728092466  0.016629514861939778  1.0000
  C   C10       1.0  0.3898909012710448  0.03461094104364549  0.9833907176967214  1.0000
  C   C11       1.0  0.5854322713544348  0.4734627126349479  0.07414667760609457  1.0000
  C   C12       1.0  0.4145710269664562  0.5265457714884288  0.9258582168669633  1.0000
  N   N1        1.0  0.9364861664214956  0.6267486817643826  0.5902907393889834  1.0000
  N   N2        1.0  0.06350598973199338  0.3732481225868012  0.40971903425282347  1.0000
  O   O1        1.0  0.7047119314800695  0.4261330384537699  0.6298296113760385  1.0000
  O   O2        1.0  0.2952603245883836  0.5738597313956217  0.370161581329711  1.0000
  O   O3        1.0  0.7468830450647274  0.04039215873034859  0.6462826326942093  1.0000
  O   O4        1.0  0.25311273295483255  0.9596201431231319  0.35371737480569004  1.0000
  O   O5        1.0  0.6753758922687821  0.851469098435778  0.4280366871126659  1.0000
  O   O6        1.0  0.32463102889929724  0.14853038041047734  0.5719738340839626  1.0000
  O   O7        1.0  0.7221540177824436  0.0158408406982247  0.9405538107116486  1.0000
  O   O8        1.0  0.27787403907699115  0.9841742202044654  0.05943615351495878  1.0000
  O   O9        1.0  0.6604899822541553  0.8618637050006156  0.11931452552531127  1.0000
  O   O10       1.0  0.33951274017217514  0.13814213962587726  0.8806648542135419  1.0000
  O   O11       1.0  0.7228918163190201  0.3815518515494317  0.0492743363959747  1.0000
  O   O12       1.0  0.2771256699862121  0.6184437909713623  0.9507232710995338  1.0000
  O   O13       1.0  0.5790128501710325  0.527973923008602  0.20641051587644907  1.0000
  O   O14       1.0  0.4209889970831283  0.47202546035331466  0.7935691789577459  1.0000
  O   O15       1.0  0.9989827067533523  0.6923898269010348  0.10596977503369216  1.0000
  O   O16       1.0  0.0010202719597244825  0.30760570307008067  0.8940164395776405  1.0000
