data_image0
_chemical_formula_structural       SrH18C20N12O2
_chemical_formula_sum              "Sr1 H18 C20 N12 O2"
_cell_length_a       8.05062817788893
_cell_length_b       8.067095763407053
_cell_length_c       8.984890574873559
_cell_angle_alpha    101.77141821410011
_cell_angle_beta     91.7540249241402
_cell_angle_gamma    108.13108385142463

_space_group_name_H-M_alt    "P 1"
_space_group_IT_number       1

loop_
  _space_group_symop_operation_xyz
  'x, y, z'

loop_
  _atom_site_type_symbol
  _atom_site_label
  _atom_site_symmetry_multiplicity
  _atom_site_fract_x
  _atom_site_fract_y
  _atom_site_fract_z
  _atom_site_occupancy
  Sr  Sr1       1.0  0.4999956583878244  0.49999674222033974  0.4999996544346529  1.0000
  H   H1        1.0  0.1503026004352748  0.24234365983099343  0.6171088863356076  1.0000
  H   H2        1.0  0.849685920783365  0.7576565470519084  0.38289149632816327  1.0000
  H   H3        1.0  0.2556778019972938  0.11989104761624253  0.5375124926467976  1.0000
  H   H4        1.0  0.7443142283334864  0.8801090425622251  0.46249145779112416  1.0000
  H   H5        1.0  0.14595035170118817  0.46062200506904116  0.8980788319616195  1.0000
  H   H6        1.0  0.8540483685502167  0.5393742723397851  0.10191595117674976  1.0000
  H   H7        1.0  0.32293383953860644  0.7583663142103633  0.05155247533410547  1.0000
  H   H8        1.0  0.6770713806003315  0.2416272087894954  0.9484433580222172  1.0000
  H   H9        1.0  0.05310718357392832  0.00547313866613311  0.7867487933965335  1.0000
  H   H10       1.0  0.9468951891907408  0.9945282273333477  0.21325612362488025  1.0000
  H   H11       1.0  0.8879878733867345  0.7111073693647685  0.6287060194344392  1.0000
  H   H12       1.0  0.11200682978635255  0.28889678994515583  0.37129665811097107  1.0000
  H   H13       1.0  0.35968891785949353  0.017176599890170504  0.23670494867640457  1.0000
  H   H14       1.0  0.64032153914426  0.9828221593890591  0.7632955848804029  1.0000
  H   H15       1.0  0.42907717852816774  0.5102054516705082  0.1176983734294268  1.0000
  H   H16       1.0  0.5709261911433856  0.48979350991923815  0.8822961284025224  1.0000
  H   H17       1.0  0.2793933595530688  0.2376266374053131  0.8604178052966702  1.0000
  H   H18       1.0  0.7206085760881464  0.7623682472498532  0.13957805486239752  1.0000
  C   C1        1.0  0.8947382005402035  0.38980433194743824  0.660423242139565  1.0000
  C   C2        1.0  0.1052582545963077  0.6101971974610764  0.33957683241504094  1.0000
  C   C3        1.0  0.004167985601412656  0.5636552275963709  0.7516607359769408  1.0000
  C   C4        1.0  0.9958308089431964  0.4363462240091921  0.24834171709376557  1.0000
  C   C5        1.0  0.12825445318495093  0.5802056297941576  0.8716971129549477  1.0000
  C   C6        1.0  0.8717474703508827  0.4197932463036056  0.12830061491268913  1.0000
  C   C7        1.0  0.22574527015330395  0.7478192625220998  0.9600335534818851  1.0000
  C   C8        1.0  0.7742558465087299  0.2521809596247309  0.03996437205772448  1.0000
  C   C9        1.0  0.19944096662651836  0.9016450066371393  0.9298968390811381  1.0000
  C   C10       1.0  0.8005598044959329  0.0983550600178731  0.07010660557563848  1.0000
  C   C11       1.0  0.0764116986758054  0.8871065463053754  0.8105833053682615  1.0000
  C   C12       1.0  0.9235910196284466  0.1128949751859238  0.1894160925359785  1.0000
  C   C13       1.0  0.9815551151412977  0.7198674208435919  0.7221833916308781  1.0000
  C   C14       1.0  0.018444918215273283  0.2801340229588547  0.27781914687443526  1.0000
  C   C15       1.0  0.3610622318972645  0.11589456689268472  0.17063617137558398  1.0000
  C   C16       1.0  0.6389497973526658  0.8841083315178438  0.8293607962072327  1.0000
  C   C17       1.0  0.3920981714750979  0.3665345154368681  0.10438762698629489  1.0000
  C   C18       1.0  0.6079049908726972  0.6334643528577859  0.8956101863159559  1.0000
  C   C19       1.0  0.3146686136140033  0.23435514286027379  0.977018192870574  1.0000
  C   C20       1.0  0.6853358566536798  0.765643748729623  0.022978602042862013  1.0000
  N   N1        1.0  0.9293860846010914  0.23435578601322501  0.6438684121438526  1.0000
  N   N2        1.0  0.07060913172345805  0.765645751198413  0.35613157697613923  1.0000
  N   N3        1.0  0.7913249613291811  0.11095989948957913  0.5512296863821007  1.0000
  N   N4        1.0  0.2086689470754806  0.889041614426809  0.44877132112671336  1.0000
  N   N5        1.0  0.6784563486544215  0.18739478521762015  0.5136880125902507  1.0000
  N   N6        1.0  0.32153929960829686  0.8126080902399694  0.48631225963632824  1.0000
  N   N7        1.0  0.7398763923305366  0.3631309387125229  0.5803267294958872  1.0000
  N   N8        1.0  0.2601218026640311  0.6368719522371934  0.4196726097764765  1.0000
  N   N9        1.0  0.2937277793238876  0.0740946159987885  0.020652644919209692  1.0000
  N   N10       1.0  0.7062769846661324  0.9259055516403338  0.9793466407476713  1.0000
  N   N11       1.0  0.42080576952687915  0.2918840142600629  0.22407576575478316  1.0000
  N   N12       1.0  0.5791999395527726  0.7081148695267174  0.7759211145932595  1.0000
  O   O1        1.0  0.27114398711371024  0.2472833622582229  0.5898677830188532  1.0000
  O   O2        1.0  0.7288463033590135  0.7527153663790431  0.4101369027012963  1.0000
