data_image0
_chemical_formula_structural       Al2H30C48O18
_chemical_formula_sum              "Al2 H30 C48 O18"
_cell_length_a       3.9886518461299225
_cell_length_b       28.639792374073597
_cell_length_c       28.639526804552144
_cell_angle_alpha    120.0003668238666
_cell_angle_beta     90.00048882944215
_cell_angle_gamma    90.00043172423993

_space_group_name_H-M_alt    "P 1"
_space_group_IT_number       1

loop_
  _space_group_symop_operation_xyz
  'x, y, z'

loop_
  _atom_site_type_symbol
  _atom_site_label
  _atom_site_symmetry_multiplicity
  _atom_site_fract_x
  _atom_site_fract_y
  _atom_site_fract_z
  _atom_site_occupancy
  Al  Al1       1.0  0.9937554867897089  0.49999878389461133  0.4999999276683483  1.0000
  Al  Al2       1.0  0.9937435552251584  0.16666723521062496  0.83332997632224  1.0000
  H   H1        1.0  0.19127111599208746  0.1885853751992671  0.701345236735996  1.0000
  H   H2        1.0  0.21067880487516524  0.24238676183925642  0.6551785746530784  1.0000
  H   H3        1.0  0.8036758889476516  0.36288136823404227  0.7865207952928159  1.0000
  H   H4        1.0  0.7996165961492137  0.3066595102478828  0.8299577308765507  1.0000
  H   H5        1.0  0.8036395578853258  0.3037907778566479  0.5468139998997472  1.0000
  H   H6        1.0  0.21072466443782634  0.42429625022610656  0.6781601505196874  1.0000
  H   H7        1.0  0.19130469716432688  0.47808611166833265  0.6319839763988355  1.0000
  H   H8        1.0  0.7995582550830276  0.36000348017844896  0.5033715366781877  1.0000
  H   H9        1.0  0.19126697774500195  0.012761256730428272  0.8114145750841288  1.0000
  H   H10       1.0  0.21069047786708944  0.9127947243709758  0.7576161071337354  1.0000
  H   H11       1.0  0.8036770419243026  0.9236398629889352  0.6371225226675392  1.0000
  H   H12       1.0  0.7995971351659815  0.02329834236713439  0.6933408719932289  1.0000
  H   H13       1.0  0.8036687516973017  0.7430255755956879  0.6962166631924589  1.0000
  H   H14       1.0  0.2107082376888201  0.7538666344336847  0.5757084342113217  1.0000
  H   H15       1.0  0.19129629957928523  0.6538982861725487  0.5219168054113085  1.0000
  H   H16       1.0  0.7995752095400233  0.6433723548327706  0.6400009405768188  1.0000
  H   H17       1.0  0.19129017883300745  0.29865602535219454  0.9872349342661978  1.0000
  H   H18       1.0  0.21068737898544745  0.34481893317722984  0.0872013461293335  1.0000
  H   H19       1.0  0.803675743121431  0.21348116315307664  0.07635682380770699  1.0000
  H   H20       1.0  0.7996246653004917  0.17004392838477142  0.9766990216930367  1.0000
  H   H21       1.0  0.8036702224589121  0.4531898672518936  0.2569761273041991  1.0000
  H   H22       1.0  0.2107090016354362  0.32184142966846724  0.24613053179018612  1.0000
  H   H23       1.0  0.1913207339865863  0.36801464074337537  0.346097893105366  1.0000
  H   H24       1.0  0.7995953141131693  0.4966268951501861  0.35662799945048124  1.0000
  H   H25       1.0  0.44880957969387936  0.40426771098581343  0.7632255502241989  1.0000
  H   H26       1.0  0.44889517458435785  0.2624065750893508  0.5701173836708621  1.0000
  H   H27       1.0  0.4488373285807725  0.8589569454874636  0.5957338766168974  1.0000
  H   H28       1.0  0.44890027934079757  0.8077159177601062  0.7375997830627199  1.0000
  H   H29       1.0  0.4488190602100061  0.23677492744415224  0.1410390404323465  1.0000
  H   H30       1.0  0.4488886335706254  0.4298811877422609  0.19228418770597946  1.0000
  C   C1        1.0  0.49341750243591775  0.46193075923847005  0.4171585801725399  1.0000
  C   C2        1.0  0.4934183939012228  0.4552288750280909  0.5380668505907309  1.0000
  C   C3        1.0  0.4934296668186562  0.5828405379523646  0.5447748436101492  1.0000
  C   C4        1.0  0.4934016834382005  0.21143970909142254  0.7952631301803876  1.0000
  C   C5        1.0  0.49340294614815855  0.08382727938141712  0.7885579990170727  1.0000
  C   C6        1.0  0.4934000676710112  0.20473532669833366  0.9161697087659704  1.0000
  C   C7        1.0  0.4955503948216489  0.2442579492121837  0.7683536619301776  1.0000
  C   C8        1.0  0.32969039113159937  0.2264544307950517  0.7190352340854462  1.0000
  C   C9        1.0  0.34016518736012097  0.2566396033580319  0.6933608188911933  1.0000
  C   C10       1.0  0.5077176432260444  0.30678645247398617  0.7174067378936826  1.0000
  C   C11       1.0  0.665063533559646  0.32496242295626854  0.7677794017264432  1.0000
  C   C12       1.0  0.6652714807662718  0.29367642894166585  0.7923255729678048  1.0000
  C   C13       1.0  0.5123660923482732  0.34158943635479494  0.6935677972760174  1.0000
  C   C14       1.0  0.5123941232883027  0.3250901067864692  0.6397743547550478  1.0000
  C   C15       1.0  0.6650279181482188  0.34171011986266825  0.5655557710391079  1.0000
  C   C16       1.0  0.5076910412756418  0.35988470048484816  0.6159270232568446  1.0000
  C   C17       1.0  0.3401703819129622  0.4100326752933797  0.6399752543520308  1.0000
  C   C18       1.0  0.3297433789478461  0.4402199885836922  0.6142993498082134  1.0000
  C   C19       1.0  0.49556687383491027  0.42241119033840857  0.5649764713895635  1.0000
  C   C20       1.0  0.6652537013130837  0.37299266223534755  0.5410081640787325  1.0000
  C   C21       1.0  0.49556394860912417  0.02409824995597653  0.755743072015413  1.0000
  C   C22       1.0  0.3297133363637386  0.9925836389635665  0.7735478098173942  1.0000
  C   C23       1.0  0.34018560336492937  0.936722844881679  0.7433633712807222  1.0000
  C   C24       1.0  0.5077387508860126  0.9106243410167423  0.693217682599311  1.0000
  C   C25       1.0  0.6650779846822275  0.9428199569006285  0.6750410519677246  1.0000
  C   C26       1.0  0.6652710071649535  0.9986507406932504  0.7063239895793031  1.0000
  C   C27       1.0  0.5123892876343206  0.8519798410113992  0.6584166512665776  1.0000
  C   C28       1.0  0.5124113026729585  0.814687048147981  0.6749162844457857  1.0000
  C   C29       1.0  0.6650613635755744  0.7238499642208966  0.6582937272775666  1.0000
  C   C30       1.0  0.507730365971483  0.7560477754957377  0.6401204798536071  1.0000
  C   C31       1.0  0.34018783394714086  0.7299455629714234  0.5899714625157843  1.0000
  C   C32       1.0  0.3297432589404393  0.6740828527198914  0.5597847031692992  1.0000
  C   C33       1.0  0.4955834053054814  0.6425663215471645  0.5775881377906913  1.0000
  C   C34       1.0  0.6652619577175967  0.6680181873663147  0.6270089902593698  1.0000
  C   C35       1.0  0.4955511835348076  0.23164469745505323  0.9758983304675584  1.0000
  C   C36       1.0  0.32973849980910336  0.28096580151041195  0.007412428764261794  1.0000
  C   C37       1.0  0.34020305262993833  0.30664043480442876  0.06327513462916563  1.0000
  C   C38       1.0  0.507740968328214  0.28259474586091227  0.08937477308746374  1.0000
  C   C39       1.0  0.6650900233275507  0.23222337788805456  0.05717818453542378  1.0000
  C   C40       1.0  0.6652857462787835  0.20767469391115873  0.0013459878664789993  1.0000
  C   C41       1.0  0.5123790223814311  0.30643405966995374  0.1480169786832946  1.0000
  C   C42       1.0  0.5124167253294657  0.36022603461908187  0.1853102373647388  1.0000
  C   C43       1.0  0.665052003748478  0.43444336251767646  0.27615005421152733  1.0000
  C   C44       1.0  0.5077233057255838  0.3840707127118749  0.24395054934122834  1.0000
  C   C45       1.0  0.3401906132496322  0.3600240940179306  0.2700524603509607  1.0000
  C   C46       1.0  0.3297483526530981  0.3856998600891402  0.3259146848238643  1.0000
  C   C47       1.0  0.4955685921367132  0.43502128514062843  0.3574314681579196  1.0000
  C   C48       1.0  0.6652448832770969  0.45899224850628434  0.3319820497374408  1.0000
  O   O1        1.0  0.727856799707723  0.5576201429893716  0.5533728836740296  1.0000
  O   O2        1.0  0.7278517860713902  0.49574857160887126  0.44237995296089855  1.0000
  O   O3        1.0  0.7278397175320988  0.4466304769218966  0.5042465056343843  1.0000
  O   O4        1.0  0.2582859124415364  0.5604269829289665  0.5102684703891072  1.0000
  O   O5        1.0  0.2582700846194755  0.48973415044043384  0.5501622104063913  1.0000
  O   O6        1.0  0.2582732159074225  0.44983561115765286  0.43956934257815317  1.0000
  O   O7        1.0  0.7278410011506153  0.17091751324105095  0.8909507863897304  1.0000
  O   O8        1.0  0.7278630980526727  0.22003864622743677  0.8290784020123142  1.0000
  O   O9        1.0  0.7278460158449391  0.10904384686935494  0.7799557606731469  1.0000
  O   O10       1.0  0.2582576325534375  0.21682876805167706  0.8937568039400576  1.0000
  O   O11       1.0  0.2582574719069441  0.10624157184373936  0.8230646739991486  1.0000
  O   O12       1.0  0.258263271219505  0.17693234887563147  0.7831708944260997  1.0000
  O   O13       1.0  0.5525777484183294  0.3963430405458582  0.7292165199422342  1.0000
  O   O14       1.0  0.5526256877239744  0.2703324107568009  0.6041292062582571  1.0000
  O   O15       1.0  0.5525886852883487  0.8328707403367518  0.6036576039665391  1.0000
  O   O16       1.0  0.5526200260129386  0.8338007108155807  0.7296730452150868  1.0000
  O   O17       1.0  0.5525801498472518  0.27078544335846294  0.16712400519730153  1.0000
  O   O18       1.0  0.5526187043167567  0.3958704008228154  0.16619856309014122  1.0000
