data_image0
_chemical_formula_structural       Co4H36C16Cl8O6
_chemical_formula_sum              "Co4 H36 C16 Cl8 O6"
_cell_length_a       8.415116773878044
_cell_length_b       10.600757290667483
_cell_length_c       11.736118197207558
_cell_angle_alpha    76.33825191028062
_cell_angle_beta     78.11729630775397
_cell_angle_gamma    68.60277143165648

_space_group_name_H-M_alt    "P 1"
_space_group_IT_number       1

loop_
  _space_group_symop_operation_xyz
  'x, y, z'

loop_
  _atom_site_type_symbol
  _atom_site_label
  _atom_site_symmetry_multiplicity
  _atom_site_fract_x
  _atom_site_fract_y
  _atom_site_fract_z
  _atom_site_occupancy
  Co  Co1       1.0  7.493903100000012e-08  1.2044827641999997e-06  7.052974027000003e-07  1.0000
  Co  Co2       1.0  0.9095517401755944  0.21930937546426327  0.7655548065695471  1.0000
  Co  Co3       1.0  0.09044716020437711  0.7806918182076357  0.2344451301229144  1.0000
  Co  Co4       1.0  2.090818476643917e-06  0.4999979401588134  0.4999992226068672  1.0000
  H   H1        1.0  0.3277207302635432  0.34879152894484367  0.4425100101695494  1.0000
  H   H2        1.0  0.6722804909184531  0.6512127680952916  0.5574855065596297  1.0000
  H   H3        1.0  0.30191676300957226  0.4995105196231719  0.3650121743674007  1.0000
  H   H4        1.0  0.6980845298654687  0.5004906893918529  0.6349831371687034  1.0000
  H   H5        1.0  0.3843774641584475  0.9425439798884837  0.039889410851110106  1.0000
  H   H6        1.0  0.6156257532585769  0.057461350783675876  0.9601055841187363  1.0000
  H   H7        1.0  0.3919025110435044  0.021383554229437593  0.8866889828054457  1.0000
  H   H8        1.0  0.6080974829151204  0.9786207451122589  0.11330501468546589  1.0000
  H   H9        1.0  0.5819378503074191  0.7238123804161702  0.9962865733711086  1.0000
  H   H10       1.0  0.4180581787152065  0.2761898427964907  0.0037118736975330123  1.0000
  H   H11       1.0  0.6650919484838697  0.8331418808890516  0.8783625639306721  1.0000
  H   H12       1.0  0.3349089991736207  0.16685726503850157  0.1216340912650793  1.0000
  H   H13       1.0  0.5570195268486771  0.6434563309241025  0.8231788095921574  1.0000
  H   H14       1.0  0.4429745059389205  0.35654485865653374  0.17682015923581682  1.0000
  H   H15       1.0  0.48703112773009855  0.8162880041817856  0.7431913210520167  1.0000
  H   H16       1.0  0.5129621222788004  0.18371215389776546  0.2568079857440325  1.0000
  H   H17       1.0  0.2087527370518531  0.7898355040031715  0.8253347352514454  1.0000
  H   H18       1.0  0.7912400450039527  0.21016876039038115  0.1746688801347035  1.0000
  H   H19       1.0  0.28994227853837634  0.6824000383618338  0.9584079135519379  1.0000
  H   H20       1.0  0.7100541370029134  0.31760423464079673  0.0415942989456539  1.0000
  H   H21       1.0  0.7730482738160305  0.6535133055034875  0.28633345579959285  1.0000
  H   H22       1.0  0.22695403470955708  0.3464827301511376  0.7136721770742442  1.0000
  H   H23       1.0  0.6835486616773707  0.5204520759001878  0.3562539011584962  1.0000
  H   H24       1.0  0.3164548465375105  0.479543966317877  0.6437498448945437  1.0000
  H   H25       1.0  0.7319633587464124  0.44007754646823105  0.1787481849656417  1.0000
  H   H26       1.0  0.2680372918781657  0.5599195208580952  0.8212557744931177  1.0000
  H   H27       1.0  0.7907335614034068  0.5855757527313301  0.10348004285542345  1.0000
  H   H28       1.0  0.20926215681927135  0.4144243963125971  0.8965240054466935  1.0000
  H   H29       1.0  0.030239443761225046  0.32342237781459454  0.11159622949864466  1.0000
  H   H30       1.0  0.9697618628808583  0.6765788267679297  0.8884007850669919  1.0000
  H   H31       1.0  0.09036679409476285  0.4668468854398922  0.11667157336726325  1.0000
  H   H32       1.0  0.9096312724640183  0.5331563581072841  0.8833314610306434  1.0000
  H   H33       1.0  0.9918002723763878  0.2646935260277559  0.3303890450560445  1.0000
  H   H34       1.0  0.00820284243631161  0.735300468616586  0.669610084053275  1.0000
  H   H35       1.0  0.1778401285920524  0.31710280337622265  0.3015287762119244  1.0000
  H   H36       1.0  0.8221645586615696  0.682893252054029  0.6984705284760295  1.0000
  C   C1        1.0  0.3971365914417078  0.9253251861800962  0.9495692875682951  1.0000
  C   C2        1.0  0.6028622165946586  0.07467910216566759  0.05042829977293917  1.0000
  C   C3        1.0  0.5511209436092771  0.8031413989140148  0.9172616981102383  1.0000
  C   C4        1.0  0.4488771464579173  0.1968587721218  0.08273517049122607  1.0000
  C   C5        1.0  0.4843489555467641  0.7511939190656065  0.8314405432672419  1.0000
  C   C6        1.0  0.5156442158855654  0.24880932925531593  0.16855811720711245  1.0000
  C   C7        1.0  0.2996391736853782  0.7692391351168125  0.8876636150283093  1.0000
  C   C8        1.0  0.7003588653393251  0.23076411729536522  0.11233601331053225  1.0000
  C   C9        1.0  0.790309584088547  0.5443459112780856  0.29483584234576915  1.0000
  C   C10       1.0  0.209693572025266  0.45564807006875435  0.7051683958521554  1.0000
  C   C11       1.0  0.8179776406116376  0.4975557663859076  0.1761142588668535  1.0000
  C   C12       1.0  0.18202006696255776  0.5024454185062907  0.8238884161611683  1.0000
  C   C13       1.0  0.007674550819558636  0.40510238034271845  0.16153674420137787  1.0000
  C   C14       1.0  0.9923243495604127  0.5948988133291733  0.8384631924910838  1.0000
  C   C15       1.0  0.042567556576081196  0.3494420624962373  0.2886522288264858  1.0000
  C   C16       1.0  0.9574326427203061  0.6505560408489827  0.7113490219111686  1.0000
  Cl  Cl1       1.0  0.05572771348239773  0.21325717333890276  0.9094984428603398  1.0000
  Cl  Cl2       1.0  0.9442691258530118  0.7867460725098352  0.09050307229929902  1.0000
  Cl  Cl3       1.0  0.9080862135877581  0.0006054185562191989  0.8101427865072142  1.0000
  Cl  Cl4       1.0  0.0919143378096977  0.9993947456602184  0.1898579720855551  1.0000
  Cl  Cl5       1.0  0.6460643554679282  0.3759617260217638  0.7861135170189046  1.0000
  Cl  Cl6       1.0  0.35393526573907513  0.6240405190974696  0.21387841807258934  1.0000
  Cl  Cl7       1.0  0.053057487037840245  0.256182896290582  0.583313107790538  1.0000
  Cl  Cl8       1.0  0.9469472070992995  0.743813156923423  0.4166870484121789  1.0000
  O   O1        1.0  0.265359044140709  0.44621769944463113  0.4421261516576679  1.0000
  O   O2        1.0  0.7346486440893046  0.5537711548271316  0.5578725292384094  1.0000
  O   O3        1.0  0.2463024863228472  0.8913658346993851  0.9421960303495996  1.0000
  O   O4        1.0  0.7536927019950709  0.10863844060480687  0.05780466290971736  1.0000
  O   O5        1.0  0.9500738976883698  0.46725289489483407  0.34728918748162135  1.0000
  O   O6        1.0  0.049930464998261884  0.5327410907991919  0.6527140154102755  1.0000
