data_image0
_chemical_formula_structural       Cd4H16C12S4Br4N12
_chemical_formula_sum              "Cd4 H16 C12 S4 Br4 N12"
_cell_length_a       7.01807631230223
_cell_length_b       9.932247745263185
_cell_length_c       11.62444220337388
_cell_angle_alpha    115.55540167233124
_cell_angle_beta     89.99896343195404
_cell_angle_gamma    90.00021131212628

_space_group_name_H-M_alt    "P 1"
_space_group_IT_number       1

loop_
  _space_group_symop_operation_xyz
  'x, y, z'

loop_
  _atom_site_type_symbol
  _atom_site_label
  _atom_site_symmetry_multiplicity
  _atom_site_fract_x
  _atom_site_fract_y
  _atom_site_fract_z
  _atom_site_occupancy
  Cd  Cd1       1.0  0.24469594965765407  0.0346036221403097  0.620925840149809  1.0000
  Cd  Cd2       1.0  0.7446896612875022  0.46538932452576637  0.3790765640135376  1.0000
  Cd  Cd3       1.0  0.7553079175016962  0.9653856953129183  0.3790720153790162  1.0000
  Cd  Cd4       1.0  0.255304231605038  0.5346078034644889  0.6209242880965178  1.0000
  H   H1        1.0  0.5140031507641823  0.2919565979095112  0.8710897987415295  1.0000
  H   H2        1.0  0.014006741850231201  0.2080507923946016  0.12891288911461626  1.0000
  H   H3        1.0  0.4860106906631287  0.7080417330624017  0.12890807310476762  1.0000
  H   H4        1.0  0.9860127990985321  0.7919541896816397  0.8710892552511211  1.0000
  H   H5        1.0  0.020603939020503496  0.421785381263831  0.8319176786591456  1.0000
  H   H6        1.0  0.5206118516507702  0.07821533336952771  0.1680806560611643  1.0000
  H   H7        1.0  0.979389953863617  0.5782274331861855  0.1680866103293752  1.0000
  H   H8        1.0  0.47938631592135306  0.9217761938634087  0.8319189077052015  1.0000
  H   H9        1.0  0.8927726575586805  0.39204420569885906  0.9526349333387926  1.0000
  H   H10       1.0  0.3927781570975242  0.10795838500845888  0.047363551932249885  1.0000
  H   H11       1.0  0.1072141109733877  0.607963182475835  0.04736125094286338  1.0000
  H   H12       1.0  0.6072157357500317  0.8920364241746909  0.952639852245504  1.0000
  H   H13       1.0  0.8027591746055621  0.5216530960856501  0.8961807711399175  1.0000
  H   H14       1.0  0.30275647369190034  0.9783490871065936  0.10382093399702083  1.0000
  H   H15       1.0  0.19722901880264493  0.4783509011061255  0.10381583301821001  1.0000
  H   H16       1.0  0.6972317195746174  0.021650185240574195  0.8961841825128617  1.0000
  C   C1        1.0  0.829505863228981  0.21044167370805408  0.6475365459293627  1.0000
  C   C2        1.0  0.3295088522513582  0.2895644778454524  0.35246484773464454  1.0000
  C   C3        1.0  0.17049942880428404  0.7895621926063328  0.352465170448987  1.0000
  C   C4        1.0  0.6704950148962041  0.710441641855894  0.6475368727469827  1.0000
  C   C5        1.0  0.5969743734480916  0.24683386727835446  0.7838283144958638  1.0000
  C   C6        1.0  0.09698412793935772  0.2531710046819668  0.21617165254883733  1.0000
  C   C7        1.0  0.40302664400395133  0.7531645509478013  0.21616614921231303  1.0000
  C   C8        1.0  0.9030183143073104  0.7468294924650607  0.7838296316779817  1.0000
  C   C9        1.0  0.8792888026390104  0.4159662043111751  0.8695162670750776  1.0000
  C   C10       1.0  0.3792902334451826  0.08403637112626679  0.1304849389384515  1.0000
  C   C11       1.0  0.12070936499272733  0.58404000263117  0.1304820452249587  1.0000
  C   C12       1.0  0.6207093589727393  0.9159618072189487  0.8695188973734387  1.0000
  S   S1        1.0  0.03354392058076171  0.22107494888018664  0.5707708878306192  1.0000
  S   S2        1.0  0.5335336577660003  0.2789255868186303  0.42923240140714114  1.0000
  S   S3        1.0  0.9664585216557955  0.7789288956318999  0.4292316806192105  1.0000
  S   S4        1.0  0.4664588101722487  0.721079286269962  0.5707740033942627  1.0000
  Br  Br1       1.0  0.1209679027832564  0.07666545749125929  0.8444249799656732  1.0000
  Br  Br2       1.0  0.6209553092420775  0.4233021989585311  0.15557249670529666  1.0000
  Br  Br3       1.0  0.8790502132527607  0.9232991163232712  0.15557112632758674  1.0000
  Br  Br4       1.0  0.37903858369487864  0.5767017327998544  0.8444266635803288  1.0000
  N   N1        1.0  0.544347334445419  0.13684795255985452  0.67473716936329  1.0000
  N   N2        1.0  0.04436722722006441  0.3631660195965267  0.32526771652256053  1.0000
  N   N3        1.0  0.4556479833806081  0.8631526100232135  0.3252615587447209  1.0000
  N   N4        1.0  0.9556366399668549  0.6368356805665982  0.6747305875535261  1.0000
  N   N5        1.0  0.689338434819426  0.1137578610701979  0.5893089992818972  1.0000
  N   N6        1.0  0.18934875034042886  0.3862432109915801  0.41069281660665513  1.0000
  N   N7        1.0  0.31065973276788844  0.8862415421040166  0.41069100484256177  1.0000
  N   N8        1.0  0.8106536919900195  0.6137596703853492  0.5893033593901862  1.0000
  N   N9        1.0  0.7733022191182999  0.2957184319349794  0.7713263817277607  1.0000
  N   N10       1.0  0.2733155994291678  0.2042846030585252  0.2286735614984039  1.0000
  N   N11       1.0  0.22669024899143156  0.7042856088640475  0.22866851829609658  1.0000
  N   N12       1.0  0.7266896925917194  0.795714756487243  0.7713281466907701  1.0000
