data_image0
_chemical_formula_structural       Zn2H40C65N4O28
_chemical_formula_sum              "Zn2 H40 C65 N4 O28"
_cell_length_a       9.976918633789746
_cell_length_b       10.917982646476792
_cell_length_c       27.96537033039602
_cell_angle_alpha    87.58096466223938
_cell_angle_beta     90.5312506974225
_cell_angle_gamma    93.00914858137392

_space_group_name_H-M_alt    "P 1"
_space_group_IT_number       1

loop_
  _space_group_symop_operation_xyz
  'x, y, z'

loop_
  _atom_site_type_symbol
  _atom_site_label
  _atom_site_symmetry_multiplicity
  _atom_site_fract_x
  _atom_site_fract_y
  _atom_site_fract_z
  _atom_site_occupancy
  Zn  Zn1       1.0  0.6382241573357138  0.5122165704975573  0.5006810928377804  1.0000
  Zn  Zn2       1.0  0.3469423222571423  0.4940114089543074  0.4982834281829725  1.0000
  H   H1        1.0  0.6657122447439222  0.40002929684150956  0.6596077189881555  1.0000
  H   H2        1.0  0.6385402467921183  0.3920435374809018  0.7484017327167222  1.0000
  H   H3        1.0  0.337817759830088  0.3237928019903933  0.2598607773610837  1.0000
  H   H4        1.0  0.5220357679724331  0.1781660130297951  0.1228788534073644  1.0000
  H   H5        1.0  0.4880029442437178  0.1795105596237008  0.0350962320221626  1.0000
  H   H6        1.0  0.4542014369557706  0.18455578869834713  0.9673367999376908  1.0000
  H   H7        1.0  0.33621729894716884  0.6364406205675905  0.644784234710464  1.0000
  H   H8        1.0  0.31011559712559494  0.6317775936119787  0.7334751174632359  1.0000
  H   H9        1.0  0.4228809342085711  0.7949914437826278  0.036539898149392507  1.0000
  H   H10       1.0  0.6606111894021682  0.57589228077439  0.3525367990531976  1.0000
  H   H11       1.0  0.4778492335379598  0.8059417918027235  0.9665144944073705  1.0000
  H   H12       1.0  0.27081773380950847  0.097767391637916  0.533595872768224  1.0000
  H   H13       1.0  0.7606711630328109  0.9152854736324302  0.4499431133668424  1.0000
  H   H14       1.0  0.8037320616336106  0.12381136648957639  0.5195935791658144  1.0000
  H   H15       1.0  0.8684991546476513  0.41584502108213434  0.6034369002989523  1.0000
  H   H16       1.0  0.8201709546812523  0.289351661316374  0.5669414375542063  1.0000
  H   H17       1.0  0.060792901012639816  0.24619136538930061  0.5542234323824786  1.0000
  H   H18       1.0  0.662162529201133  0.8038823362776881  0.8296293716093076  1.0000
  H   H19       1.0  0.7205136656703957  0.8386526943395157  0.8893743855136265  1.0000
  H   H20       1.0  0.6583865716974984  0.9577081800606281  0.8497699721427026  1.0000
  H   H21       1.0  0.4955790136999242  0.8168161134397495  0.19424734740417904  1.0000
  H   H22       1.0  0.5069120591883234  0.9593310032424968  0.1595785858858108  1.0000
  H   H23       1.0  0.6252714523455936  0.8444146419260999  0.14995216373736756  1.0000
  H   H24       1.0  0.8073141593972013  0.6646967199583287  0.20783485320004766  1.0000
  H   H25       1.0  0.3245256294249544  0.7273030436294906  0.5749227412464819  1.0000
  H   H26       1.0  0.1484006775000921  0.7431996792249366  0.5791532276887636  1.0000
  H   H27       1.0  0.2616922578896849  0.854907699910072  0.605622778671112  1.0000
  H   H28       1.0  0.9978934555312765  0.982284151632051  0.5108805614778903  1.0000
  H   H29       1.0  0.9688998889917929  0.848184384289688  0.47653457181728953  1.0000
  H   H30       1.0  0.9977745056151337  0.8335021627937564  0.5399038798024804  1.0000
  H   H31       1.0  0.901292191513882  0.2768725907817854  0.41549022425159887  1.0000
  H   H32       1.0  0.19933452537721058  0.7867147816572175  0.43881324058660454  1.0000
  H   H33       1.0  0.051915798933485705  0.7617851002784592  0.4014657326620963  1.0000
  H   H34       1.0  0.2152543974784606  0.7411812786960896  0.3780559188932671  1.0000
  H   H35       1.0  0.8620505535480307  0.596824480366884  0.3439854338688448  1.0000
  H   H36       1.0  0.19747353649748334  0.4763239104988912  0.6533495267021368  1.0000
  H   H37       1.0  0.4221122837980503  0.9906443910369946  0.8770304587481521  1.0000
  H   H38       1.0  0.4673765955302971  0.20621752967021934  0.3984556739800312  1.0000
  H   H39       1.0  0.31738681375911443  0.11311448071296586  0.3880662900510004  1.0000
  H   H40       1.0  0.30981690084064445  0.24927300891642548  0.4219534981627931  1.0000
  C   C1        1.0  0.47598622306033195  0.26780630095913693  0.5133322274845611  1.0000
  C   C2        1.0  0.5124800078659747  0.517583241009099  0.5930908655284384  1.0000
  C   C3        1.0  0.4799368399194891  0.7346084007070603  0.4976996960591862  1.0000
  C   C4        1.0  0.4985167599318531  0.4583113329327375  0.4093736801855457  1.0000
  C   C5        1.0  0.4367928834272092  0.3934782686039356  0.8211764401962541  1.0000
  C   C6        1.0  0.4734666911958956  0.6221856006919212  0.8197827242417193  1.0000
  C   C7        1.0  0.38610307649895503  0.5792023101365589  0.7172108948652323  1.0000
  C   C8        1.0  0.4008415069348885  0.5816370857290282  0.6677138150981535  1.0000
  C   C9        1.0  0.5875663058699488  0.4499706306003476  0.6759758264714935  1.0000
  C   C10       1.0  0.5727609955886593  0.4459024920594246  0.7255074540361975  1.0000
  C   C11       1.0  0.47224612378240505  0.5106009293618143  0.7459308485688467  1.0000
  C   C12       1.0  0.45436835452960633  0.5024752443865595  0.8987282301742283  1.0000
  C   C13       1.0  0.44817325987579454  0.39172623371828763  0.8737678924338966  1.0000
  C   C14       1.0  0.45084882827185885  0.2788172224588195  0.899037078477207  1.0000
  C   C15       1.0  0.4695409001550034  0.6177154669865745  0.8726758601433888  1.0000
  C   C16       1.0  0.501121257860902  0.5169420512279858  0.646614268906106  1.0000
  C   C17       1.0  0.501373638410172  0.4404791072863504  0.3566023178266918  1.0000
  C   C18       1.0  0.46574643821494294  0.37563854781448214  0.027405969131194804  1.0000
  C   C19       1.0  0.44684950687045005  0.6016553798658678  0.02751520380413551  1.0000
  C   C20       1.0  0.46136870977827044  0.4861756539762965  0.052566398152947606  1.0000
  C   C21       1.0  0.484764864887275  0.2653509573239248  0.05334180311231051  1.0000
  C   C22       1.0  0.5027039887868626  0.26316263086152253  0.1027304676026688  1.0000
  C   C23       1.0  0.49678131540090237  0.3698631377765267  0.1278781953987149  1.0000
  C   C24       1.0  0.4721847607448596  0.4832399981386929  0.1036211014356709  1.0000
  C   C25       1.0  0.45872737648150524  0.5909249381162311  0.1302460772799634  1.0000
  C   C26       1.0  0.4473771699099417  0.5763697614450437  0.18276443155544092  1.0000
  C   C27       1.0  0.5210163138598178  0.36153396854120257  0.1799253018540981  1.0000
  C   C28       1.0  0.41005510054378663  0.38020628032771947  0.279824346890102  1.0000
  C   C29       1.0  0.4128113435772109  0.3631877992632084  0.3300618963114915  1.0000
  C   C30       1.0  0.593729395676192  0.5174151814401498  0.3315012664371153  1.0000
  C   C31       1.0  0.601585558289905  0.5265366462418226  0.2815898964622079  1.0000
  C   C32       1.0  0.5011974862315257  0.4597033243298797  0.2558164140366017  1.0000
  C   C33       1.0  0.4535409743387291  0.38052643290967586  0.9751924847137377  1.0000
  C   C34       1.0  0.4521697105266682  0.49668378764924626  0.9499639601786427  1.0000
  C   C35       1.0  0.45269686591628766  0.6078672240738571  0.9750943059087052  1.0000
  C   C36       1.0  0.4518216530791649  0.2743872105890545  0.9490962772849658  1.0000
  C   C37       1.0  0.4832824099484654  0.7248999274323042  0.8989343564228778  1.0000
  C   C38       1.0  0.4351123067982457  0.7051035341206388  0.0539555828562968  1.0000
  C   C39       1.0  0.4425126051958941  0.7031358019535859  0.10449876731475172  1.0000
  C   C40       1.0  0.4683214049997846  0.7188148569278355  0.94889716488359  1.0000
  C   C41       1.0  0.5919683498426097  0.07185776351232681  0.5020853929247906  1.0000
  C   C42       1.0  0.4773077227250938  0.1320306170905567  0.5129049497860407  1.0000
  C   C43       1.0  0.3620642371617109  0.05644768637889539  0.5226423510123582  1.0000
  C   C44       1.0  0.36077217619914853  0.9286825014702416  0.5198031169899977  1.0000
  C   C45       1.0  0.47618134734104  0.8684047806764569  0.5059230795529643  1.0000
  C   C46       1.0  0.5904313138991313  0.9456667367037924  0.4987206124869915  1.0000
  C   C47       1.0  0.7373914925880244  0.9452122293095614  0.4860149482129686  1.0000
  C   C48       1.0  0.7389180456872921  0.09413758633845501  0.4899307001933125  1.0000
  C   C49       1.0  0.05208646913501271  0.43409140061481816  0.5262543314751653  1.0000
  C   C50       1.0  0.07262709067595101  0.5555921410514061  0.4592265897601565  1.0000
  C   C51       1.0  0.9302111250893362  0.5625718819904365  0.45750368829353505  1.0000
  C   C52       1.0  0.9154672424961491  0.4510687991333243  0.5273549573901946  1.0000
  C   C53       1.0  0.8921325437448503  0.36750309589335484  0.5712669975356803  1.0000
  C   C54       1.0  0.04709328210497431  0.33812678869948354  0.5672255690849327  1.0000
  C   C55       1.0  0.648747655299083  0.8601553125967102  0.8605288341782682  1.0000
  C   C56       1.0  0.5210289831947037  0.860545645452305  0.15934295498171747  1.0000
  C   C57       1.0  0.7185078833914319  0.5987067572198441  0.2625069541579279  1.0000
  C   C58       1.0  0.2458993716073934  0.7938580019393273  0.5754105933755229  1.0000
  C   C59       1.0  0.9513513252484319  0.8882540317030134  0.511331079436424  1.0000
  C   C60       1.0  0.769608501716121  0.16825628436034631  0.4446835075934672  1.0000
  C   C61       1.0  0.15316504322841246  0.7327768570476182  0.41018450126011174  1.0000
  C   C62       1.0  0.8662502434709014  0.6197850625027144  0.41310221759053434  1.0000
  C   C63       1.0  0.1375220041057972  0.35511228479522583  0.6104994793831937  1.0000
  C   C64       1.0  0.4795761835287636  0.16067018801516042  0.8761469694448609  1.0000
  C   C65       1.0  0.358463893822993  0.20714363741144126  0.39230495588791575  1.0000
  N   N1        1.0  0.46149024563217017  0.5083993381849653  0.7972935719454172  1.0000
  N   N2        1.0  0.4934747273390274  0.46675949053010873  0.2043798592334696  1.0000
  N   N3        1.0  0.1353180006292121  0.48866197621241986  0.49424143774488993  1.0000
  N   N4        1.0  0.8503620123391474  0.5137862982522279  0.4933506046077981  1.0000
  O   O1        1.0  0.5894276925071228  0.32560145858537487  0.5078623903687217  1.0000
  O   O2        1.0  0.362432298678293  0.3143897486416805  0.5176287460859683  1.0000
  O   O3        1.0  0.6279036199971841  0.5045439415359497  0.5755456496975028  1.0000
  O   O4        1.0  0.40369561636438084  0.5313052667703531  0.5696556152911967  1.0000
  O   O5        1.0  0.5944109464224995  0.6895223343525319  0.5015448122329859  1.0000
  O   O6        1.0  0.3702575635730982  0.6772609967215717  0.48659314361157163  1.0000
  O   O7        1.0  0.6099313981360412  0.48964253224351506  0.4289166943140188  1.0000
  O   O8        1.0  0.3845991876661331  0.4488448171734519  0.42939936582453714  1.0000
  O   O9        1.0  0.4063256218906446  0.30101686064080013  0.7990768772905241  1.0000
  O   O10       1.0  0.5604924984817501  0.2687984713618192  0.2010559008151844  1.0000
  O   O11       1.0  0.4851078986342687  0.7182316485111783  0.7951566607597728  1.0000
  O   O12       1.0  0.3980926024698094  0.6516391313575909  0.20810927284609454  1.0000
  O   O13       1.0  0.5129760058461984  0.8404125398073532  0.8791959605195745  1.0000
  O   O14       1.0  0.4319919500708025  0.8160848653082837  0.1221262066883497  1.0000
  O   O15       1.0  0.8143463960342531  0.6378813386597956  0.2871062770550736  1.0000
  O   O16       1.0  0.7209070858614554  0.6203958108790885  0.21424947922452026  1.0000
  O   O17       1.0  0.24130550509566015  0.8653722707921435  0.531102907424227  1.0000
  O   O18       1.0  0.8121703746368996  0.8859551539849377  0.5216801439524659  1.0000
  O   O19       1.0  0.7001688382474996  0.1688795422021485  0.4084837519184817  1.0000
  O   O20       1.0  0.8901416051743427  0.23427659583974503  0.4469349609072992  1.0000
  O   O21       1.0  0.15419699661192965  0.6042042933376736  0.42524467831985663  1.0000
  O   O22       1.0  0.7985287461030168  0.70954450064351  0.4133646730914649  1.0000
  O   O23       1.0  0.9000622869116345  0.5596685351076831  0.3746400971086103  1.0000
  O   O24       1.0  0.2090513943106487  0.2773263461494296  0.6273917979990244  1.0000
  O   O25       1.0  0.12779124724924174  0.46806641300000257  0.6283234771119484  1.0000
  O   O26       1.0  0.5861605134485829  0.1478452483126276  0.8562574075648899  1.0000
  O   O27       1.0  0.3869007610345109  0.06946766963493903  0.8865606903552816  1.0000
  O   O28       1.0  0.32924238482799245  0.2715688714501923  0.3473868522751005  1.0000
