data_image0
_chemical_formula_structural       Cd4H20C28S4N24Cl4
_chemical_formula_sum              "Cd4 H20 C28 S4 N24 Cl4"
_cell_length_a       7.989108445840623
_cell_length_b       10.613537309715865
_cell_length_c       14.516385575556304
_cell_angle_alpha    84.05285372339384
_cell_angle_beta     74.04981451563779
_cell_angle_gamma    67.90965176940423

_space_group_name_H-M_alt    "P 1"
_space_group_IT_number       1

loop_
  _space_group_symop_operation_xyz
  'x, y, z'

loop_
  _atom_site_type_symbol
  _atom_site_label
  _atom_site_symmetry_multiplicity
  _atom_site_fract_x
  _atom_site_fract_y
  _atom_site_fract_z
  _atom_site_occupancy
  Cd  Cd1       1.0  0.3381881150278687  0.12720553591646686  0.5543081785173953  1.0000
  Cd  Cd2       1.0  0.020124882700826973  0.8727337586093925  0.4455353123922876  1.0000
  Cd  Cd3       1.0  0.6428254139538365  0.6271876001515654  0.9455611975031885  1.0000
  Cd  Cd4       1.0  0.21573606590824573  0.37287864833339773  0.05441583635828812  1.0000
  H   H1        1.0  0.6424724607330105  0.497733554937284  0.6077656145107683  1.0000
  H   H2        1.0  0.7484436761434308  0.5021323041860982  0.39235188294009055  1.0000
  H   H3        1.0  0.0006013637815627032  0.9977924557976011  0.892415043520181  1.0000
  H   H4        1.0  0.8909510649192357  0.002185530016070901  0.10761244371808235  1.0000
  H   H5        1.0  0.05645524932077002  0.5437792465664091  0.807662194198123  1.0000
  H   H6        1.0  0.4080647957857907  0.45605277952358153  0.19248666990939262  1.0000
  H   H7        1.0  0.614377225446006  0.0440649026067916  0.6923600508455438  1.0000
  H   H8        1.0  0.35110090136400623  0.9558596723235909  0.3073948390561512  1.0000
  H   H9        1.0  0.6583491429418586  0.37342623045439194  0.8233054291584168  1.0000
  H   H10       1.0  0.8554545902480868  0.6266569472905203  0.176685918000601  1.0000
  H   H11       1.0  0.23206365079339275  0.873688326263732  0.676536643300274  1.0000
  H   H12       1.0  0.7827432898359133  0.1265975471700571  0.32324886493425  1.0000
  H   H13       1.0  0.8934860275518729  0.19662344188071051  0.6986654913088942  1.0000
  H   H14       1.0  0.7894901170364506  0.8032691513624429  0.3014201005748092  1.0000
  H   H15       1.0  0.3425178660226892  0.6969039179511044  0.8012653925377152  1.0000
  H   H16       1.0  0.8412239923021334  0.3034516625905966  0.19864636448925668  1.0000
  H   H17       1.0  0.7461739581694148  0.2572048820788241  0.5306160995630904  1.0000
  H   H18       1.0  0.5349310606498606  0.7427931676379275  0.469417580948992  1.0000
  H   H19       1.0  0.02751575954612644  0.7570725370144589  0.9694536278223326  1.0000
  H   H20       1.0  0.7543864459425649  0.24292579227093827  0.030549229525170984  1.0000
  C   C1        1.0  0.018185802757749038  0.46809503727001117  0.782078263015606  1.0000
  C   C2        1.0  0.26866756446140255  0.5317861257099853  0.2180600060299795  1.0000
  C   C3        1.0  0.5505843133815488  0.9683545474198143  0.7179346204874975  1.0000
  C   C4        1.0  0.2372091501356053  0.03165983085760621  0.2818595515076581  1.0000
  C   C5        1.0  0.7995031351305569  0.37204903941664474  0.7908914948853151  1.0000
  C   C6        1.0  0.9628626388450453  0.6279352197079008  0.20914471460389455  1.0000
  C   C7        1.0  0.34078713851776865  0.8723157023834174  0.709003793568577  1.0000
  C   C8        1.0  0.9225598497042142  0.12790277801420302  0.2907962734026839  1.0000
  C   C9        1.0  0.9272732536320234  0.2765692403737249  0.7219948418246673  1.0000
  C   C10       1.0  0.9264712580456446  0.7233343393343505  0.2780691782803615  1.0000
  C   C11       1.0  0.39963962996397145  0.7768473924448643  0.7779475805715634  1.0000
  C   C12       1.0  0.9549271689889878  0.2234429153740579  0.22193453539667016  1.0000
  C   C13       1.0  0.14563724867072367  0.37382762746924675  0.7112586360344793  1.0000
  C   C14       1.0  0.23122307818744764  0.6260052180193513  0.2889134546740095  1.0000
  C   C15       1.0  0.6072254127091129  0.874081543287268  0.7888187355293113  1.0000
  C   C16       1.0  0.27049819281866416  0.12605431807602233  0.2110925705369482  1.0000
  C   C17       1.0  0.33270699726571695  0.3735981381763481  0.6666352760487584  1.0000
  C   C18       1.0  0.37342065807283825  0.6262683002614012  0.3335406505332443  1.0000
  C   C19       1.0  0.7497131807570909  0.873717230666792  0.8334694263082554  1.0000
  C   C20       1.0  0.45725940717360913  0.12636577564157395  0.1665061668310273  1.0000
  C   C21       1.0  0.6108413348359321  0.31120837367684123  0.5782209660264073  1.0000
  C   C22       1.0  0.5010297570360435  0.6887849883606734  0.42184677225936446  1.0000
  C   C23       1.0  0.9397588820030265  0.8110866954976218  0.9218114003054866  1.0000
  C   C24       1.0  0.6730184630786908  0.18890662612744089  0.07816447527544311  1.0000
  C   C25       1.0  0.10642193939083461  0.34356063440428397  0.40578543490882873  1.0000
  C   C26       1.0  0.8561286046964368  0.6561418450044344  0.5941780591957411  1.0000
  C   C27       1.0  0.2624400609174842  0.8435106985284622  0.09407838416723989  1.0000
  C   C28       1.0  0.19995261005261955  0.15644409961478808  0.9060501859176853  1.0000
  S   S1        1.0  0.3296661702435984  0.28398756585286833  0.4012760759848391  1.0000
  S   S2        1.0  0.015138820406306736  0.7159662352317256  0.5986373683414641  1.0000
  S   S3        1.0  0.48118329891379125  0.7839601311791  0.09855957487459219  1.0000
  S   S4        1.0  0.3636178836533261  0.21614501030057207  0.9013953445901066  1.0000
  N   N1        1.0  0.09801975172657507  0.2790158881143229  0.6815202804601199  1.0000
  N   N2        1.0  0.05917681052051897  0.7208331923345171  0.3185967457379206  1.0000
  N   N3        1.0  0.5298689324449622  0.7792602692476083  0.8184976777603623  1.0000
  N   N4        1.0  0.1280880091614094  0.22097112128987112  0.18143247746198202  1.0000
  N   N5        1.0  0.8463179237114106  0.46728070770356583  0.8202740468571434  1.0000
  N   N6        1.0  0.13418001286215284  0.5326956006077311  0.17978553142010156  1.0000
  N   N7        1.0  0.4169786570786798  0.9675343858114548  0.6796545152860035  1.0000
  N   N8        1.0  0.06451821179520321  0.032517519515352006  0.3200988185555431  1.0000
  N   N9        1.0  0.4656341840298665  0.2704724537347546  0.607810615240993  1.0000
  N   N10       1.0  0.34459858470913923  0.7294817423998695  0.39230530456450197  1.0000
  N   N11       1.0  0.8240048821466106  0.7704395570132266  0.892219017870076  1.0000
  N   N12       1.0  0.48710066498510685  0.22961324317822124  0.1077421507032952  1.0000
  N   N13       1.0  0.5656547771378941  0.43217040269982493  0.6185629045567823  1.0000
  N   N14       1.0  0.6169476770006455  0.567793494334282  0.38153937523582476  1.0000
  N   N15       1.0  0.9347914077358792  0.9321308660557579  0.8815300601590793  1.0000
  N   N16       1.0  0.7486916585408494  0.06786044857011579  0.11844661312893831  1.0000
  N   N17       1.0  0.3896919671068845  0.47405699893815284  0.6751857730945261  1.0000
  N   N18       1.0  0.5393261673074006  0.5258282061364031  0.32499070108649875  1.0000
  N   N19       1.0  0.8152670189423503  0.9741634409482675  0.8249428278802498  1.0000
  N   N20       1.0  0.6146259938616866  0.025872238466504906  0.17502466332369696  1.0000
  N   N21       1.0  0.9467649679643841  0.38773921185768506  0.40603703398857494  1.0000
  N   N22       1.0  0.7409253740669752  0.6118458787378034  0.5940013655159007  1.0000
  N   N23       1.0  0.10296881246251403  0.8876581829899024  0.0938955968906541  1.0000
  N   N24       1.0  0.0844370204217455  0.11225276960384181  0.9063106548777569  1.0000
  Cl  Cl1       1.0  0.07803610723723871  0.037944544162968406  0.5480042833674403  1.0000
  Cl  Cl2       1.0  0.6642877047793975  0.9622113591047994  0.4519467817334687  1.0000
  Cl  Cl3       1.0  0.37610771303197776  0.5380784509087988  0.9520222468725166  1.0000
  Cl  Cl4       1.0  0.8662747741266584  0.4621484626914879  0.04798967274287946  1.0000
