data_image0
_chemical_formula_structural       Ag4H24C40S4N8O12
_chemical_formula_sum              "Ag4 H24 C40 S4 N8 O12"
_cell_length_a       8.268796147585903
_cell_length_b       11.138617068456089
_cell_length_c       11.416847410275835
_cell_angle_alpha    89.44201040579973
_cell_angle_beta     77.97257536375974
_cell_angle_gamma    79.22390786032234

_space_group_name_H-M_alt    "P 1"
_space_group_IT_number       1

loop_
  _space_group_symop_operation_xyz
  'x, y, z'

loop_
  _atom_site_type_symbol
  _atom_site_label
  _atom_site_symmetry_multiplicity
  _atom_site_fract_x
  _atom_site_fract_y
  _atom_site_fract_z
  _atom_site_occupancy
  Ag  Ag1       1.0  0.44838476731631277  0.34031520906744805  0.4642786284725772  1.0000
  Ag  Ag2       1.0  0.5516194341603581  0.6596837083695914  0.5357196752728086  1.0000
  Ag  Ag3       1.0  0.2400660524191878  0.5810856760788636  0.4509350674164097  1.0000
  Ag  Ag4       1.0  0.7599329688102257  0.41891420076648683  0.5490640012149868  1.0000
  H   H1        1.0  0.5658341661369661  0.8865501389942878  0.6671033723018525  1.0000
  H   H2        1.0  0.43416958688129625  0.1134506067252943  0.3328958581055588  1.0000
  H   H3        1.0  0.5017077904260886  0.9801618964633645  0.8693494582873241  1.0000
  H   H4        1.0  0.49828662139927354  0.01984167124085449  0.13065026581664088  1.0000
  H   H5        1.0  0.38136626611772323  0.8578347086129267  0.04670129266290957  1.0000
  H   H6        1.0  0.6186294882974437  0.14216337403227183  0.9532965277736025  1.0000
  H   H7        1.0  0.3388926519883809  0.6493345217822719  0.005669346787307509  1.0000
  H   H8        1.0  0.6611120063029147  0.35066256800642037  0.9943254013402836  1.0000
  H   H9        1.0  0.21499076846085072  0.1320378281856023  0.871485907404967  1.0000
  H   H10       1.0  0.7850053200339671  0.8679638991001536  0.1285162103827844  1.0000
  H   H11       1.0  0.11642357281652238  0.02602444510317529  0.0550975344543474  1.0000
  H   H12       1.0  0.883572969707515  0.9739754543228396  0.9449019040341967  1.0000
  H   H13       1.0  0.054717704875514486  0.13281102419645657  0.2541222543443382  1.0000
  H   H14       1.0  0.9452810963028073  0.8671897671072555  0.745875963140179  1.0000
  H   H15       1.0  0.18481686717176157  0.45786754619718534  0.08303206132058699  1.0000
  H   H16       1.0  0.8151844043557191  0.5421332218916745  0.9169684152625661  1.0000
  H   H17       1.0  0.9619183229229687  0.32699121249260793  0.7648856672654675  1.0000
  H   H18       1.0  0.03808811213932018  0.6730085949195653  0.23511930234323586  1.0000
  H   H19       1.0  0.02221538401719412  0.9764617686662473  0.588820625650456  1.0000
  H   H20       1.0  0.9777838572633114  0.0235371937207276  0.41117929412782667  1.0000
  H   H21       1.0  0.3298115679814018  0.9597889602086123  0.5411162462963262  1.0000
  H   H22       1.0  0.6701889070809842  0.040209990465235976  0.4588852411905648  1.0000
  H   H23       1.0  0.45990621061383047  0.12620571399693148  0.6105313073020396  1.0000
  H   H24       1.0  0.5400969548487993  0.8737922990036894  0.3894732904303737  1.0000
  C   C1        1.0  0.5099429660588226  0.837766741507437  0.7433826998803852  1.0000
  C   C2        1.0  0.490055823977869  0.16223404895068677  0.2566190228785032  1.0000
  C   C3        1.0  0.474031229719948  0.889742979414478  0.858628940994869  1.0000
  C   C4        1.0  0.5259653100186911  0.11025691980013616  0.14137137381226947  1.0000
  C   C5        1.0  0.4095730637546637  0.8225384159553852  0.9545630140874906  1.0000
  C   C6        1.0  0.5904226823042862  0.1774596660556185  0.0454374353048053  1.0000
  C   C7        1.0  0.38467118120085075  0.7052672060253042  0.9321637257302129  1.0000
  C   C8        1.0  0.6153299790834693  0.2947290031760232  0.06783242832997874  1.0000
  C   C9        1.0  0.4214288906431562  0.6594596912115234  0.8140694371871007  1.0000
  C   C10       1.0  0.5785713810805717  0.34054017518908336  0.18592594124134365  1.0000
  C   C11       1.0  0.3923623471378475  0.5358581942221716  0.7891211519700222  1.0000
  C   C12       1.0  0.6076374733420735  0.4641435002495767  0.21087602943903505  1.0000
  C   C13       1.0  0.292560918776843  0.3338191270554132  0.7350899760701921  1.0000
  C   C14       1.0  0.7074422689690393  0.6661788876363912  0.2649076111134718  1.0000
  C   C15       1.0  0.26711661602368497  0.37318476410442974  0.857630160369517  1.0000
  C   C16       1.0  0.7328865689367913  0.6268132503759813  0.1423683031327343  1.0000
  C   C17       1.0  0.2022772147053402  0.304808051905013  0.962919583233976  1.0000
  C   C18       1.0  0.797717645578423  0.6951936875166707  0.03707921420797791  1.0000
  C   C19       1.0  0.1835040899703628  0.18195925393293774  0.9569222098437749  1.0000
  C   C20       1.0  0.8164899682774872  0.8180406676509474  0.04307935113911303  1.0000
  C   C21       1.0  0.12810273053528934  0.12159185003289247  0.060834746449053484  1.0000
  C   C22       1.0  0.8718927843309314  0.878407145590891  0.9391683570707343  1.0000
  C   C23       1.0  0.0925925403842882  0.18097433448504313  0.1727058570659565  1.0000
  C   C24       1.0  0.9074052387070354  0.819025553439239  0.8272942728126083  1.0000
  C   C25       1.0  0.1142959211775576  0.30200920655013863  0.1790167042262922  1.0000
  C   C26       1.0  0.8856991619427034  0.69799161862457  0.8209820680439464  1.0000
  C   C27       1.0  0.1669194012064352  0.36414071343555304  0.0762089786778972  1.0000
  C   C28       1.0  0.8330781550483832  0.6358600887356969  0.923791176372383  1.0000
  C   C29       1.0  0.21945920823612397  0.23652509830330343  0.6918823693307488  1.0000
  C   C30       1.0  0.7805441884192276  0.763472001084544  0.3081195742741726  1.0000
  C   C31       1.0  0.044101491375897695  0.24661000658596768  0.7173922809796024  1.0000
  C   C32       1.0  0.9559024621956026  0.7533898231954763  0.28261393480485  1.0000
  C   C33       1.0  0.9748529771113538  0.15376248033093984  0.6782247315018353  1.0000
  C   C34       1.0  0.025147837601501525  0.8462401154062672  0.321779300699113  1.0000
  C   C35       1.0  0.0777778716887525  0.049696589372125295  0.6168273891952225  1.0000
  C   C36       1.0  0.9222219376495387  0.9503051042540347  0.3831732974882128  1.0000
  C   C37       1.0  0.2518601544647722  0.0408733759383466  0.5902441810597097  1.0000
  C   C38       1.0  0.7481413426846117  0.9591264781149387  0.4097553940331338  1.0000
  C   C39       1.0  0.3235616932875445  0.13451137132568647  0.6263969492333246  1.0000
  C   C40       1.0  0.6764404640151156  0.8654857393524934  0.3736051793001707  1.0000
  S   S1        1.0  0.07396267398876688  0.37794131036179107  0.32172806243313795  1.0000
  S   S2        1.0  0.9260388287314354  0.6220585441142886  0.6782697600225234  1.0000
  S   S3        1.0  0.7517014103669197  0.1744964007930392  0.6956655294043514  1.0000
  S   S4        1.0  0.24830086932052345  0.8255052696182614  0.3043374163777202  1.0000
  N   N1        1.0  0.48194743233942455  0.7261285346658608  0.7208059096052466  1.0000
  N   N2        1.0  0.5180567719226516  0.27387038298257943  0.27919151782155177  1.0000
  N   N3        1.0  0.45297691340145013  0.4850330349979044  0.6784697493456022  1.0000
  N   N4        1.0  0.5470225507155533  0.5149650131421023  0.32153014526096513  1.0000
  N   N5        1.0  0.39137630390978717  0.38870560153837624  0.6522081101042616  1.0000
  N   N6        1.0  0.6086271011017814  0.6112914984836592  0.34779120454487605  1.0000
  N   N7        1.0  0.30875646557679903  0.4796675465364473  0.8791405367787135  1.0000
  N   N8        1.0  0.6912435777396195  0.5203332336883334  0.1208566194586354  1.0000
  O   O1        1.0  0.13346405112960716  0.2907499773868664  0.40669635653730307  1.0000
  O   O2        1.0  0.8665436511394374  0.7092498208489457  0.5932996649568878  1.0000
  O   O3        1.0  0.16451119223864913  0.4812993366671206  0.2989312264880652  1.0000
  O   O4        1.0  0.8354878401323944  0.5187005410238114  0.7010643368689529  1.0000
  O   O5        1.0  0.888272234905287  0.41973937102129344  0.350239440065252  1.0000
  O   O6        1.0  0.11172970513168679  0.5802586543266485  0.6497609610027623  1.0000
  O   O7        1.0  0.6784821693435035  0.27328457088547947  0.7853806993959296  1.0000
  O   O8        1.0  0.32151719989260386  0.7267189516574105  0.2146182849937404  1.0000
  O   O9        1.0  0.704429538380104  0.05656299085945448  0.7283171268908504  1.0000
  O   O10       1.0  0.29556338897280915  0.9434415006908945  0.2716898178621605  1.0000
  O   O11       1.0  0.724807692893293  0.20944242475137284  0.5734279732311194  1.0000
  O   O12       1.0  0.2751999898779046  0.7905573720046561  0.4265741824932334  1.0000
