data_image0
_chemical_formula_structural       Zn8H64C72O30
_chemical_formula_sum              "Zn8 H64 C72 O30"
_cell_length_a       17.80352809496862
_cell_length_b       18.656061005965537
_cell_length_c       23.318635765854026
_cell_angle_alpha    66.62188498833301
_cell_angle_beta     69.76608607341475
_cell_angle_gamma    89.9413810537121

_space_group_name_H-M_alt    "P 1"
_space_group_IT_number       1

loop_
  _space_group_symop_operation_xyz
  'x, y, z'

loop_
  _atom_site_type_symbol
  _atom_site_label
  _atom_site_symmetry_multiplicity
  _atom_site_fract_x
  _atom_site_fract_y
  _atom_site_fract_z
  _atom_site_occupancy
  Zn  Zn1       1.0  0.11861674148015307  0.5311386612405399  0.9408512721704341  1.0000
  Zn  Zn2       1.0  0.972691562046677  0.5600302551306412  0.050598841752886835  1.0000
  Zn  Zn3       1.0  0.975932131082267  0.38917314961004484  0.05153455498752633  1.0000
  Zn  Zn4       1.0  0.9383749384500674  0.5301238864899177  0.935081448846482  1.0000
  Zn  Zn5       1.0  0.3852541453138159  0.9766615539403533  0.05075111140285322  1.0000
  Zn  Zn6       1.0  0.5293013647462315  0.11606476972530543  0.9361611745792829  1.0000
  Zn  Zn7       1.0  0.5233220635868605  0.9457587437092771  0.9375636701497072  1.0000
  Zn  Zn8       1.0  0.5681227639431156  0.9731822328117231  0.050516450760007305  1.0000
  H   H1        1.0  0.5012599034573313  0.8686019169739014  0.2621343066269475  1.0000
  H   H2        1.0  0.439999715426616  0.8057270238665383  0.3881619331874405  1.0000
  H   H3        1.0  0.2624533776663114  0.8729463641459674  0.25548318680515075  1.0000
  H   H4        1.0  0.24989451425449974  0.6330443044011673  0.7344149837901311  1.0000
  H   H5        1.0  0.012093123995896288  0.6372071962100492  0.7257075602410552  1.0000
  H   H6        1.0  0.07453283440459306  0.7000062848463674  0.5997612901047589  1.0000
  H   H7        1.0  0.6301937683485124  0.015464855863250198  0.7313782290714528  1.0000
  H   H8        1.0  0.6991843736429216  0.07549300096156489  0.6056482224186794  1.0000
  H   H9        1.0  0.6284345265919812  0.24804839303535425  0.7278300082452135  1.0000
  H   H10       1.0  0.8680305054500862  0.25710313288112724  0.2605211702793967  1.0000
  H   H11       1.0  0.8695163775736888  0.48992302492185047  0.25648500757777976  1.0000
  H   H12       1.0  0.8100104067675673  0.43015846270962754  0.3826530853598343  1.0000
  H   H13       1.0  0.19770629514309232  0.3014720622683029  0.9107053366972693  1.0000
  H   H14       1.0  0.12581528954869006  0.22986269094270986  0.9871040259746948  1.0000
  H   H15       1.0  0.21477812090746073  0.13795246394670366  0.9846982887141139  1.0000
  H   H16       1.0  0.28637972196184336  0.21018496622921387  0.9084657522770884  1.0000
  H   H17       1.0  0.21468076349924556  0.12370270291650341  0.0959823669874424  1.0000
  H   H18       1.0  0.2865004421497304  0.1843470238182974  0.10038107607421413  1.0000
  H   H19       1.0  0.1264795481295664  0.216597483515983  0.0987561400509662  1.0000
  H   H20       1.0  0.1995622316736387  0.27745016013786744  0.10167035120144162  1.0000
  H   H21       1.0  0.3020454182966646  0.390778828917668  0.9142375703975463  1.0000
  H   H22       1.0  0.30278306347587863  0.3816990472844354  0.9919844977603987  1.0000
  H   H23       1.0  0.3912556456959421  0.289287459938528  0.9905792312319052  1.0000
  H   H24       1.0  0.3909096691632783  0.2989468894280449  0.9126563955433936  1.0000
  H   H25       1.0  0.8906297510964619  0.80025865114483  0.9046466378236178  1.0000
  H   H26       1.0  0.8879369877335749  0.787532659988827  0.984705869829412  1.0000
  H   H27       1.0  0.7990408616991473  0.879875283176503  0.9860512320335388  1.0000
  H   H28       1.0  0.801979516095379  0.8916343896909494  0.9061108759354398  1.0000
  H   H29       1.0  0.6960232451058772  0.776808095726665  0.09174879455012071  1.0000
  H   H30       1.0  0.6237740101069064  0.7154063464003997  0.08837680197092368  1.0000
  H   H31       1.0  0.783454252657364  0.6830440102370475  0.09074435656820164  1.0000
  H   H32       1.0  0.711416543054604  0.6232257286964896  0.08563444357204728  1.0000
  H   H33       1.0  0.7889711350141865  0.7126409059233367  0.8968861904119267  1.0000
  H   H34       1.0  0.7161543688581491  0.6399532833764143  0.9705859618996798  1.0000
  H   H35       1.0  0.6268740206640543  0.7315853449773189  0.9728817869189472  1.0000
  H   H36       1.0  0.6994433183132925  0.8039671252918481  0.8990213200048984  1.0000
  H   H37       1.0  0.1623219566268332  0.7934520558770047  0.9366670107392637  1.0000
  H   H38       1.0  0.24663844466322626  0.7575706995000858  0.8955687007691466  1.0000
  H   H39       1.0  0.33364165255511585  0.8528476980274677  0.893778620272329  1.0000
  H   H40       1.0  0.24882280263918233  0.8876060386142228  0.9356284716774115  1.0000
  H   H41       1.0  0.393923781623826  0.7439611057850612  0.9607517808027026  1.0000
  H   H42       1.0  0.35293328838502447  0.7024488886758747  0.049710827719764074  1.0000
  H   H43       1.0  0.3058715892205513  0.6483768425295223  0.9634145430103233  1.0000
  H   H44       1.0  0.26475088368692223  0.6082344663817097  0.05238791189851362  1.0000
  H   H45       1.0  0.1019750671663715  0.7350547055906702  0.06478837395136593  1.0000
  H   H46       1.0  0.1432631923692895  0.6591376985699996  0.11214821337942738  1.0000
  H   H47       1.0  0.23161014539360278  0.7532180380368629  0.11040175984955174  1.0000
  H   H48       1.0  0.18971241364323532  0.8290853041218398  0.0635978160937256  1.0000
  H   H49       1.0  0.8992055927734626  0.26721057956115163  0.9294652596182758  1.0000
  H   H50       1.0  0.854926732055837  0.3433210346701827  0.8842072604616791  1.0000
  H   H51       1.0  0.7688325381553723  0.24786119982602636  0.8852802636572434  1.0000
  H   H52       1.0  0.8121056087836963  0.1722067130800866  0.932125195758985  1.0000
  H   H53       1.0  0.6493946946943793  0.29843026447160526  0.9452486550713887  1.0000
  H   H54       1.0  0.6065310376406571  0.25744118230364416  0.03411521788358133  1.0000
  H   H55       1.0  0.7364347676779841  0.3924379310325393  0.9453885485524652  1.0000
  H   H56       1.0  0.6937882863844324  0.3500314499627208  0.03431079196105458  1.0000
  H   H57       1.0  0.839352003157302  0.20510811235173074  0.05765797309043574  1.0000
  H   H58       1.0  0.7564630062743946  0.23916774201110508  0.10107883575877001  1.0000
  H   H59       1.0  0.6671594154760853  0.14683142990375586  0.10192615115618513  1.0000
  H   H60       1.0  0.7501777549600135  0.11136557845975399  0.06009935633576898  1.0000
  H   H61       1.0  0.17000266178661863  0.782765304165956  0.4341901608262688  1.0000
  H   H62       1.0  0.3439423807226873  0.7221426515912982  0.5557310639606712  1.0000
  H   H63       1.0  0.7269870091376094  0.3383826634693607  0.5492657517456081  1.0000
  H   H64       1.0  0.7826088006902694  0.16717323247783614  0.43978688781583497  1.0000
  C   C1        1.0  0.1420826925891419  0.6352492507382408  0.0026826462203430766  1.0000
  C   C2        1.0  0.9081608288551666  0.4130517548451636  0.1763015038989906  1.0000
  C   C3        1.0  0.1443949550232162  0.3639660158587503  0.0009720763514166874  1.0000
  C   C4        1.0  0.8608766109060895  0.3656410556583864  0.9906851522789921  1.0000
  C   C5        1.0  0.0900070565900251  0.5938244542986055  0.8127167603918367  1.0000
  C   C6        1.0  0.8611183363970767  0.6434427495464305  0.9888972187552056  1.0000
  C   C7        1.0  0.3601593279795948  0.14161786207339594  0.996710691665605  1.0000
  C   C8        1.0  0.5844961059927557  0.092154479259726  0.8114662294582472  1.0000
  C   C9        1.0  0.35569341808820815  0.862900234869862  0.9985421604119936  1.0000
  C   C10       1.0  0.644343967269158  0.8652453422581416  0.9922051996633457  1.0000
  C   C11       1.0  0.4211695961710261  0.9125331845988853  0.17606443711326852  1.0000
  C   C12       1.0  0.6469374726943188  0.1401663580780053  0.9919477576025243  1.0000
  C   C13       1.0  0.38546652907683676  0.8744290052444015  0.2515752920085745  1.0000
  C   C14       1.0  0.43577909319797925  0.8554165678507673  0.2888516494473948  1.0000
  C   C15       1.0  0.40155039179810365  0.8204775848461098  0.35876624529160484  1.0000
  C   C16       1.0  0.31649686115710557  0.8033916001142173  0.3931573971180597  1.0000
  C   C17       1.0  0.26638207110742934  0.8227154066153517  0.35477510044978544  1.0000
  C   C18       1.0  0.30111166456114086  0.8580802164113592  0.28460236823509877  1.0000
  C   C19       1.0  0.2780681524048063  0.7678552039692692  0.46415064811117906  1.0000
  C   C20       1.0  0.23660672587018183  0.737513214113207  0.5248118955762564  1.0000
  C   C21       1.0  0.19765654062098295  0.7020945623717838  0.5957686996686391  1.0000
  C   C22       1.0  0.2471035647199002  0.6826920563585548  0.6347189560773074  1.0000
  C   C23       1.0  0.2116950236318473  0.6477296766791767  0.7048994523995376  1.0000
  C   C24       1.0  0.1272704762217174  0.6315663632789069  0.737275535127516  1.0000
  C   C25       1.0  0.07762715300672343  0.6504069813947596  0.6994015065233937  1.0000
  C   C26       1.0  0.11252477887468608  0.6852315241066833  0.6295409339644567  1.0000
  C   C27       1.0  0.6253109698676481  0.12830213148188824  0.7364582692010941  1.0000
  C   C28       1.0  0.6452840696793983  0.0792853971201026  0.7023493780300286  1.0000
  C   C29       1.0  0.6835097903500157  0.1127478338116035  0.632789952725183  1.0000
  C   C30       1.0  0.7026079840190532  0.1956828093747873  0.5958483795807084  1.0000
  C   C31       1.0  0.6826059471302628  0.24454117375540824  0.6310300982592453  1.0000
  C   C32       1.0  0.6439878349083231  0.21057569915480912  0.7009572049991775  1.0000
  C   C33       1.0  0.7400259446304673  0.2329670803761559  0.5249461211387327  1.0000
  C   C34       1.0  0.7707198571538997  0.27268589543542293  0.4637666158372794  1.0000
  C   C35       1.0  0.8050940546621987  0.3098519414913596  0.3927283464539287  1.0000
  C   C36       1.0  0.8217967705468607  0.26084847323152627  0.3575748980502027  1.0000
  C   C37       1.0  0.8551275790602163  0.29468896686326934  0.2873798746658025  1.0000
  C   C38       1.0  0.8719235266159232  0.3769707621133023  0.2515824560156403  1.0000
  C   C39       1.0  0.8556553605850611  0.42610214387273976  0.2857220309194303  1.0000
  C   C40       1.0  0.8227415837557713  0.3927798185714977  0.3555297280744014  1.0000
  C   C41       1.0  0.1892161851654848  0.2593129891890484  0.9622452500459956  1.0000
  C   C42       1.0  0.24827287383397592  0.19830877976473002  0.9607571043642481  1.0000
  C   C43       1.0  0.3033103770088914  0.20247324804536504  0.9986204977274228  1.0000
  C   C44       1.0  0.24835716258074567  0.1839015623826867  0.07208925731644206  1.0000
  C   C45       1.0  0.18999929619526063  0.24542664980936738  0.07340840328483007  1.0000
  C   C46       1.0  0.20415645290647427  0.305461733222046  0.0008568684443873105  1.0000
  C   C47       1.0  0.29241866448467846  0.3475931609511208  0.9655585807295565  1.0000
  C   C48       1.0  0.35108399333653045  0.2865996553938075  0.9645090596477814  1.0000
  C   C49       1.0  0.8497511493832731  0.7864856506316045  0.9566954696133723  1.0000
  C   C50       1.0  0.7906758981470575  0.8475945919573605  0.9576783200690072  1.0000
  C   C51       1.0  0.7019949647959507  0.8049153991833152  0.99071930402323  1.0000
  C   C52       1.0  0.6872964769882586  0.7447239684988745  0.06338615380310149  1.0000
  C   C53       1.0  0.7456608793732683  0.6832958885777386  0.06216698952244571  1.0000
  C   C54       1.0  0.8015154292868801  0.702134223393621  0.9887255645357416  1.0000
  C   C55       1.0  0.7493056779456354  0.7001031150745832  0.9488673378783686  1.0000
  C   C56       1.0  0.6902009192379169  0.7607523294218553  0.9502748430223422  1.0000
  C   C57       1.0  0.21903713339875708  0.7715328342567318  0.9391491803159441  1.0000
  C   C58       1.0  0.27682817877289523  0.8343911764059231  0.9381500675249871  1.0000
  C   C59       1.0  0.2968153540634263  0.8002983993752082  0.002569731915471628  1.0000
  C   C60       1.0  0.33694790174151734  0.7262568718265001  0.004817984439007663  1.0000
  C   C61       1.0  0.278565190381471  0.6633512375629209  0.006410306570671813  1.0000
  C   C62       1.0  0.19877837788948227  0.6945987654415334  0.004579270641379256  1.0000
  C   C63       1.0  0.15929656773182196  0.713871888323354  0.06562722882993902  1.0000
  C   C64       1.0  0.21756954135589276  0.7762899304067832  0.06460065979956643  1.0000
  C   C65       1.0  0.8412182480392969  0.2878490094531117  0.9297862952775092  1.0000
  C   C66       1.0  0.7833581997567619  0.22477538977338446  0.9308302869612819  1.0000
  C   C67       1.0  0.703602214812264  0.19988998780987538  0.9935937073803275  1.0000
  C   C68       1.0  0.6642434529284458  0.2745242917350837  0.9905643456122705  1.0000
  C   C69       1.0  0.7221839467739244  0.3364998316137573  0.9904997777011532  1.0000
  C   C70       1.0  0.8016783592291716  0.30485674963939874  0.9926500981975508  1.0000
  C   C71       1.0  0.7824986999752354  0.22704139000077114  0.05630590734696026  1.0000
  C   C72       1.0  0.7237204941023663  0.16527310253139402  0.05725574632135277  1.0000
  O   O1        1.0  0.0013394170584107405  0.5029340819798949  0.9933588598485271  1.0000
  O   O2        1.0  0.17206375116989395  0.6074233759020585  0.9590271811421758  1.0000
  O   O3        1.0  0.9189999766077576  0.48843233944338493  0.14657585182560234  1.0000
  O   O4        1.0  0.07071174100202168  0.3351898580657178  0.0404281572621201  1.0000
  O   O5        1.0  0.06863095606965428  0.6190912707089992  0.04368836936878751  1.0000
  O   O6        1.0  0.17165405064842082  0.43656072575468136  0.9609160797117937  1.0000
  O   O7        1.0  0.9254523257607802  0.36584424660088644  0.14790672015842432  1.0000
  O   O8        1.0  0.8992509766995839  0.339414894659626  0.02997167778919162  1.0000
  O   O9        1.0  0.012635953355953699  0.5802143118858396  0.8395877053745125  1.0000
  O   O10       1.0  0.8687114264896464  0.43768589535842045  0.9493479843373863  1.0000
  O   O11       1.0  0.13873029029055328  0.5783954044111753  0.8438311853136753  1.0000
  O   O12       1.0  0.9014065145433888  0.6364294894808182  0.026244702900676587  1.0000
  O   O13       1.0  0.866889638541359  0.6063689969907456  0.9522854241931215  1.0000
  O   O14       1.0  0.5015586656919382  0.0024754997231681997  0.9950684929866683  1.0000
  O   O15       1.0  0.3289191418335021  0.06885738369405907  0.03307993720644482  1.0000
  O   O16       1.0  0.5667216261402858  0.13933349493197514  0.8398684809259293  1.0000
  O   O17       1.0  0.42699856875983505  0.878943222527646  0.9535459981640884  1.0000
  O   O18       1.0  0.4344749928967885  0.16779948337426734  0.9584279734634081  1.0000
  O   O19       1.0  0.32986642677848727  0.8951522981728176  0.039222432599515925  1.0000
  O   O20       1.0  0.5708916618650193  0.016728397822859592  0.8410939741068332  1.0000
  O   O21       1.0  0.6033194791411418  0.8767401365589224  0.9550372306419775  1.0000
  O   O22       1.0  0.4983428745918771  0.9230937870903234  0.1475694960070015  1.0000
  O   O23       1.0  0.6414966971074562  0.8997139817946261  0.030453929727301075  1.0000
  O   O24       1.0  0.3710233375047807  0.9312995460417144  0.14649933295228829  1.0000
  O   O25       1.0  0.6170497913799976  0.16688737626598282  0.946372036600387  1.0000
  O   O26       1.0  0.6339261918366789  0.06861173611353882  0.03531966711466338  1.0000
  O   O27       1.0  0.18412559932379932  0.8073797998284037  0.38527598582417977  1.0000
  O   O28       1.0  0.32940487037591026  0.6976558343926484  0.6046984696599083  1.0000
  O   O29       1.0  0.7002918575447692  0.32472692457364627  0.5975630930342107  1.0000
  O   O30       1.0  0.805713505521659  0.1806529202058087  0.39135193408412056  1.0000
