data_image0
_chemical_formula_structural       Dy2H14C16S2N2O14
_chemical_formula_sum              "Dy2 H14 C16 S2 N2 O14"
_cell_length_a       7.011383957606481
_cell_length_b       10.431871086990839
_cell_length_c       10.43190759082574
_cell_angle_alpha    66.10032492793341
_cell_angle_beta     70.05732113279737
_cell_angle_gamma    70.05892390097296

_space_group_name_H-M_alt    "P 1"
_space_group_IT_number       1

loop_
  _space_group_symop_operation_xyz
  'x, y, z'

loop_
  _atom_site_type_symbol
  _atom_site_label
  _atom_site_symmetry_multiplicity
  _atom_site_fract_x
  _atom_site_fract_y
  _atom_site_fract_z
  _atom_site_occupancy
  Dy  Dy1       1.0  0.8716715199786549  0.8230290028437108  0.82302713631222  1.0000
  Dy  Dy2       1.0  0.12835267159327662  0.1769638618485558  0.17695945609995078  1.0000
  H   H1        1.0  0.7577183312606195  0.6397407066167486  0.27505850431849416  1.0000
  H   H2        1.0  0.24230078937112146  0.7249461966381645  0.3602959087980934  1.0000
  H   H3        1.0  0.242261564458545  0.3602285055530244  0.7249642011192065  1.0000
  H   H4        1.0  0.7577092975584492  0.27505385440921504  0.6397608628083873  1.0000
  H   H5        1.0  0.6836086134097455  0.801758199945965  0.4210060851089493  1.0000
  H   H6        1.0  0.3164065649445788  0.5790180682222045  0.19826176547054083  1.0000
  H   H7        1.0  0.3163967061928616  0.1982411977865723  0.5789819692398839  1.0000
  H   H8        1.0  0.6835908343008015  0.42102201387403676  0.8017627139538844  1.0000
  H   H9        1.0  0.7961388469856131  0.3920091066131802  0.39202550864179403  1.0000
  H   H10       1.0  0.2038378184172984  0.607960971427822  0.6080359018388748  1.0000
  H   H11       1.0  0.15989685722558286  0.9104308570329566  0.9104373185433445  1.0000
  H   H12       1.0  0.8400740391148105  0.0895793670683389  0.08956629903867963  1.0000
  H   H13       1.0  0.30641864799497404  0.8131657814288784  0.8131644050431674  1.0000
  H   H14       1.0  0.6935935414117722  0.18684636790117537  0.18684398076769074  1.0000
  C   C1        1.0  0.741395509459281  0.5995532923791129  0.3914892027573274  1.0000
  C   C2        1.0  0.25861563585089453  0.6085141253308349  0.4004776200239705  1.0000
  C   C3        1.0  0.25859303150569707  0.40043098233793006  0.6085247319975269  1.0000
  C   C4        1.0  0.7413907017156945  0.39148923347203624  0.5995680993993416  1.0000
  C   C5        1.0  0.7017347187656142  0.6856918258731993  0.47300414076642033  1.0000
  C   C6        1.0  0.29827393946146685  0.5270076390853475  0.31433005822653126  1.0000
  C   C7        1.0  0.2982625581398963  0.3143172604897799  0.5269885175701106  1.0000
  C   C8        1.0  0.7017306996970449  0.47301630226753827  0.6856906238243641  1.0000
  C   C9        1.0  0.6815166072106037  0.6244060429426386  0.6243989862722756  1.0000
  C   C10       1.0  0.3184827950062968  0.3756137569383924  0.37559856721867396  1.0000
  C   C11       1.0  0.0800470970941518  0.9327512782462719  0.4842794429117987  1.0000
  C   C12       1.0  0.9199418399303739  0.5157116867164789  0.06725246234761774  1.0000
  C   C13       1.0  0.9199345958143823  0.0672514753968869  0.5157056374463593  1.0000
  C   C14       1.0  0.08002846679805488  0.4842823853315394  0.9327557531215477  1.0000
  C   C15       1.0  0.575470676947525  0.0218346170310042  0.02181387578168171  1.0000
  C   C16       1.0  0.42457787222594584  0.978135792204725  0.97813130986124  1.0000
  S   S1        1.0  0.620451549011392  0.7299067717920734  0.7298717850825513  1.0000
  S   S2        1.0  0.3795423337827016  0.2701509397451717  0.2700822300813783  1.0000
  N   N1        1.0  0.760920369409135  0.455473335266383  0.45548446728793135  1.0000
  N   N2        1.0  0.23907346308664054  0.5445064927221492  0.5445502282876548  1.0000
  O   O1        1.0  0.09842283048688924  0.8192885347771651  0.5920735229320755  1.0000
  O   O2        1.0  0.9015709134788353  0.4079129307581368  0.1807248942792725  1.0000
  O   O3        1.0  0.9015591260570234  0.1807099630000693  0.40790359564120854  1.0000
  O   O4        1.0  0.09840097294402024  0.5920768472668668  0.8192808455776017  1.0000
  O   O5        1.0  0.178189278900433  0.9463932066357615  0.3542713251435784  1.0000
  O   O6        1.0  0.8218174331505355  0.6457145876970143  0.05361337754736439  1.0000
  O   O7        1.0  0.8218357048612647  0.05361584288200308  0.6457048597397873  1.0000
  O   O8        1.0  0.1781527695842512  0.3542720078906498  0.946386311170393  1.0000
  O   O9        1.0  0.7694623314840928  0.9759292827980768  0.975909422558239  1.0000
  O   O10       1.0  0.23057812829254942  0.024042210481631795  0.024040904153992026  1.0000
  O   O11       1.0  0.49219697745194685  0.10097019538887507  0.10094093351401771  1.0000
  O   O12       1.0  0.5078488307872319  0.8990065947989763  0.8990186165570718  1.0000
  O   O13       1.0  0.15778202306347572  0.8547374475612344  0.8547212031160426  1.0000
  O   O14       1.0  0.8422230625409168  0.14528024377404586  0.1452644594254125  1.0000
