data_image0
_chemical_formula_structural       Mg6H48C84O18
_chemical_formula_sum              "Mg6 H48 C84 O18"
_cell_length_a       6.862369545839301
_cell_length_b       35.808578132609355
_cell_length_c       35.80719923211537
_cell_angle_alpha    119.59302614015027
_cell_angle_beta     93.67357471928689
_cell_angle_gamma    93.6520657753209

_space_group_name_H-M_alt    "P 1"
_space_group_IT_number       1

loop_
  _space_group_symop_operation_xyz
  'x, y, z'

loop_
  _atom_site_type_symbol
  _atom_site_label
  _atom_site_symmetry_multiplicity
  _atom_site_fract_x
  _atom_site_fract_y
  _atom_site_fract_z
  _atom_site_occupancy
  Mg  Mg1       1.0  0.5920076540200936  0.6937944047648724  0.32946290454579236  1.0000
  Mg  Mg2       1.0  0.31283751760630446  0.3052453942680414  0.6693718837303564  1.0000
  Mg  Mg3       1.0  0.262666346712308  0.6705133069101591  0.3643650564068182  1.0000
  Mg  Mg4       1.0  0.6433816976573966  0.3306373778402261  0.6358875415390628  1.0000
  Mg  Mg5       1.0  0.8982722115773  0.6356291283871796  0.3062182764251772  1.0000
  Mg  Mg6       1.0  0.007590768805620459  0.3641279599406813  0.6947597777343119  1.0000
  H   H1        1.0  0.12729342879126895  0.5730578167169041  0.18480496738800406  1.0000
  H   H2        1.0  0.3868207127736766  0.5289755749721435  0.08150044396978016  1.0000
  H   H3        1.0  0.9942983871358351  0.5487656602461752  0.11984238314102662  1.0000
  H   H4        1.0  0.5348893032858938  0.5070349040549614  0.0036148514959109205  1.0000
  H   H5        1.0  0.7438556636970259  0.5451040437297222  0.07286670783446433  1.0000
  H   H6        1.0  0.45483454957028596  0.4453113439801582  0.933125941970097  1.0000
  H   H7        1.0  0.8265103961011702  0.4334672018194609  0.8866764577311271  1.0000
  H   H8        1.0  0.7913432029570371  0.41169918368678526  0.8142303099926949  1.0000
  H   H9        1.0  0.07412129499874706  0.37280248362925744  0.7990724242874521  1.0000
  H   H10       1.0  0.2620369355462202  0.40798610443766137  0.8715033679440438  1.0000
  H   H11       1.0  0.8886604333795204  0.39084104702408234  0.9103135785294683  1.0000
  H   H12       1.0  0.19687311249960965  0.3629908730568089  0.9190551241024494  1.0000
  H   H13       1.0  0.4066778540465137  0.4008121616321815  0.9902532175667815  1.0000
  H   H14       1.0  0.3030837049282625  0.4650219764757252  0.05134532447523549  1.0000
  H   H15       1.0  0.6654891101045238  0.5720778674331513  0.12893889749800275  1.0000
  H   H16       1.0  0.8403714633607247  0.6187005396661714  0.20207094278418938  1.0000
  H   H17       1.0  0.942229660553437  0.815176493329737  0.3882896196425563  1.0000
  H   H18       1.0  0.3052420938169361  0.918496704539649  0.44744720595136306  1.0000
  H   H19       1.0  0.8743681393801878  0.8801977031783607  0.42894080267861073  1.0000
  H   H20       1.0  0.531066235971714  0.9964035233665595  0.5033684931095337  1.0000
  H   H21       1.0  0.6708547567281399  0.9271615561405682  0.47219231826300506  1.0000
  H   H22       1.0  0.5219308613134855  0.0669666263247279  0.5122208938269708  1.0000
  H   H23       1.0  0.9402349581238666  0.11336932365632177  0.546801189973003  1.0000
  H   H24       1.0  0.9773909070877379  0.18586938067421238  0.5975000045766521  1.0000
  H   H25       1.0  0.275129217321563  0.20088490575081142  0.5736939277516484  1.0000
  H   H26       1.0  0.3909334286007961  0.1285129145567723  0.5364982937370613  1.0000
  H   H27       1.0  0.9779995939233571  0.08971021545863067  0.4804982739875427  1.0000
  H   H28       1.0  0.2774136219872716  0.08098462599301828  0.4438985621355016  1.0000
  H   H29       1.0  0.4161165335338808  0.009805935595466098  0.41052432984582765  1.0000
  H   H30       1.0  0.2515674620308842  0.948702621421695  0.4136416040149271  1.0000
  H   H31       1.0  0.5363753345443809  0.8710731403766869  0.44308812143275117  1.0000
  H   H32       1.0  0.6381875832515786  0.7979587215453561  0.4165883294289472  1.0000
  H   H33       1.0  0.5542492884986672  0.6117560202702846  0.4269331269209999  1.0000
  H   H34       1.0  0.857155301108037  0.5524478136611889  0.4710118863812909  1.0000
  H   H35       1.0  0.4449740974762335  0.5710989327028101  0.45123805555392243  1.0000
  H   H36       1.0  0.027655263745423035  0.49655986977152367  0.49297799350184585  1.0000
  H   H37       1.0  0.19830727924335173  0.5277510254830345  0.4548965246413559  1.0000
  H   H38       1.0  0.009583114042399568  0.4878129608256285  0.5547081771047501  1.0000
  H   H39       1.0  0.39316679366275753  0.45318031737273395  0.566529022743893  1.0000
  H   H40       1.0  0.3796902320999037  0.4025511589493218  0.5883748032211641  1.0000
  H   H41       1.0  0.701241894007552  0.4262596735835586  0.6271409036324798  1.0000
  H   H42       1.0  0.8540451053922309  0.46349002776498316  0.5919739238024491  1.0000
  H   H43       1.0  0.49748565931790256  0.5194645509375203  0.6091670114106406  1.0000
  H   H44       1.0  0.8336484696733917  0.5560552310782396  0.6370380861639829  1.0000
  H   H45       1.0  0.0055562889110376225  0.5893867436646258  0.5991866278105817  1.0000
  H   H46       1.0  0.8378101147073949  0.586307782607143  0.5350004051713242  1.0000
  H   H47       1.0  0.09314313092198732  0.5567367561773009  0.42792762215636065  1.0000
  H   H48       1.0  0.22164425546625205  0.5832671928554161  0.38135034573672033  1.0000
  C   C1        1.0  0.5850511518237057  0.6237399413907666  0.23515564317096957  1.0000
  C   C2        1.0  0.3785555639672111  0.6102083437482262  0.22922947397724863  1.0000
  C   C3        1.0  0.2829413185503426  0.5832932748614466  0.18732430418749857  1.0000
  C   C4        1.0  0.38063566364600376  0.5691506407582237  0.15028739107835068  1.0000
  C   C5        1.0  0.28597384029563944  0.5415512175995758  0.10628213122417657  1.0000
  C   C6        1.0  0.08957183039671429  0.532414550328724  0.09438778511764674  1.0000
  C   C7        1.0  0.9805548920056922  0.5058378791288829  0.05173518805970893  1.0000
  C   C8        1.0  0.04372741505745376  0.46842367565139387  0.01578467652674216  1.0000
  C   C9        1.0  0.9232075867195986  0.4467807694886117  0.9746302030464162  1.0000
  C   C10       1.0  0.7396163876920239  0.46227720902088965  0.9697699173986506  1.0000
  C   C11       1.0  0.6770290248129242  0.49606287849534414  0.00641380301226478  1.0000
  C   C12       1.0  0.7951210394801504  0.5172996123744154  0.04587906284039884  1.0000
  C   C13       1.0  0.6117576687359615  0.4446588310133918  0.9293676523689102  1.0000
  C   C14       1.0  0.6692390025841772  0.4306811373660365  0.8895666284179528  1.0000
  C   C15       1.0  0.5445981582176883  0.4123748139097784  0.8487921680808412  1.0000
  C   C16       1.0  0.6337010950828628  0.40315428488009536  0.8116517101403673  1.0000
  C   C17       1.0  0.5302029461085241  0.3826431136101718  0.7701969228889141  1.0000
  C   C18       1.0  0.3232743857993156  0.3705358061775996  0.7649606183801652  1.0000
  C   C19       1.0  0.23222609730137825  0.3815787189193641  0.8029525958838093  1.0000
  C   C20       1.0  0.3385690197679309  0.40146399098547636  0.8434197151529615  1.0000
  C   C21       1.0  0.6443348843740323  0.3740387977428269  0.7338581004372599  1.0000
  C   C22       1.0  0.9838966536934634  0.4085535642915301  0.9406371113883836  1.0000
  C   C23       1.0  0.15530240063428374  0.39257943565343106  0.9457466174449821  1.0000
  C   C24       1.0  0.2728289878290368  0.41370857453781423  0.9858650084362708  1.0000
  C   C25       1.0  0.21628530113202515  0.4502965655756552  0.019999906659705843  1.0000
  C   C26       1.0  0.5841863710520554  0.5825885636211509  0.15698624906656278  1.0000
  C   C27       1.0  0.6832410438693584  0.6087921021049778  0.19775238489835087  1.0000
  C   C28       1.0  0.26000592849452175  0.6227466301342444  0.2658129684873245  1.0000
  C   C29       1.0  0.3498379447783717  0.7648564915932067  0.38857409716617747  1.0000
  C   C30       1.0  0.1492023051234951  0.7707808683459729  0.38102105949516124  1.0000
  C   C31       1.0  0.09535528195030457  0.8126770862473619  0.3960112361132672  1.0000
  C   C32       1.0  0.23005698711316572  0.8497166338773922  0.4188672196517018  1.0000
  C   C33       1.0  0.17953213894971032  0.8937363148332123  0.43528168914028936  1.0000
  C   C34       1.0  0.9950743916156312  0.9056557742625343  0.4380431790332223  1.0000
  C   C35       1.0  0.9286705430045713  0.9483011080704807  0.4540881085268111  1.0000
  C   C36       1.0  0.027775481108953694  0.9842446268570552  0.4526011984669863  1.0000
  C   C37       1.0  0.9483251903535147  0.025385895471181592  0.47209374842581303  1.0000
  C   C38       1.0  0.7697055216848128  0.030250348384122088  0.4924655750159205  1.0000
  C   C39       1.0  0.6703446689796236  0.9936103175211172  0.489586363994654  1.0000
  C   C40       1.0  0.7490360863400695  0.9541533541938703  0.471372735489318  1.0000
  C   C41       1.0  0.6826397414279126  0.07069578499960018  0.515308570474936  1.0000
  C   C42       1.0  0.7800570297094109  0.11048092009124837  0.5411408894447902  1.0000
  C   C43       1.0  0.6961974321038509  0.15125234538373894  0.5636176399019632  1.0000
  C   C44       1.0  0.8222957991032515  0.18841506496990224  0.5915182232492526  1.0000
  C   C45       1.0  0.7600149348580273  0.22983959287300584  0.6124518941740362  1.0000
  C   C46       1.0  0.5582503766737544  0.23505086384589188  0.6055802940484298  1.0000
  C   C47       1.0  0.42937186327996096  0.19703740863483424  0.5786310451146122  1.0000
  C   C48       1.0  0.4955059801511509  0.15659607262532654  0.5580733685197642  1.0000
  C   C49       1.0  0.9104016784789051  0.26618197213302597  0.6401951057164936  1.0000
  C   C50       1.0  0.04291734347959419  0.05939273350522708  0.4678740015154546  1.0000
  C   C51       1.0  0.20915508868304758  0.054290613538952884  0.4467879925134497  1.0000
  C   C52       1.0  0.2866570989463212  0.014186793014459896  0.4278039864863743  1.0000
  C   C53       1.0  0.19608060112772566  0.9800465664987142  0.4302621504792938  1.0000
  C   C54       1.0  0.4270065214441984  0.8430261995267042  0.42556484696197566  1.0000
  C   C55       1.0  0.48535031526024847  0.8022669684752158  0.41100330031976984  1.0000
  C   C56       1.0  0.9941746902564927  0.7341731801925986  0.3569658579753039  1.0000
  C   C57       1.0  0.961446861513778  0.6113539633356522  0.37629199047981376  1.0000
  C   C58       1.0  0.768478873124259  0.6189799621533038  0.3898089616910878  1.0000
  C   C59       1.0  0.6996305679600141  0.6040045264905415  0.4167087849897015  1.0000
  C   C60       1.0  0.811233631800576  0.5810681595221894  0.430838067244082  1.0000
  C   C61       1.0  0.7438310690092036  0.5646661515188283  0.4584128001170028  1.0000
  C   C62       1.0  0.5565786562495488  0.5619534114128156  0.4675682519836926  1.0000
  C   C63       1.0  0.4742961883123939  0.5458931111922565  0.49416256426523825  1.0000
  C   C64       1.0  0.5749974658126646  0.5473518801541672  0.5315742464179678  1.0000
  C   C65       1.0  0.47623476637996015  0.5278612900327531  0.5532373792672728  1.0000
  C   C66       1.0  0.27722873021704697  0.5074948231932622  0.5377253658424692  1.0000
  C   C67       1.0  0.1807268062509166  0.5103447180004892  0.5039447228493187  1.0000
  C   C68       1.0  0.27744840541142674  0.5285622566027682  0.482696450626122  1.0000
  C   C69       1.0  0.1671695089854524  0.4846979545312492  0.5553493563690423  1.0000
  C   C70       1.0  0.2386853377295282  0.4588649977158353  0.5693132290764921  1.0000
  C   C71       1.0  0.13229026527749002  0.43640186053846003  0.5876146191171046  1.0000
  C   C72       1.0  0.23056185504238155  0.4085126507606346  0.5968882560366637  1.0000
  C   C73       1.0  0.14750448658675447  0.38757336625367594  0.617385939726823  1.0000
  C   C74       1.0  0.9525850505378485  0.39441739833695516  0.6294502524541271  1.0000
  C   C75       1.0  0.8505441388194723  0.4213399034200903  0.6183600933981168  1.0000
  C   C76       1.0  0.9371288792530449  0.44192016332426204  0.5984864715778144  1.0000
  C   C77       1.0  0.2702538173798104  0.35983897749582633  0.6260010944288723  1.0000
  C   C78       1.0  0.5750351424255769  0.5320846449423655  0.5914726426001735  1.0000
  C   C79       1.0  0.762415466346205  0.5531491687828234  0.6074495850586672  1.0000
  C   C80       1.0  0.8587779827842323  0.5721134289795345  0.5862997345414698  1.0000
  C   C81       1.0  0.7656784029152632  0.5696794080171513  0.5497101362670094  1.0000
  C   C82       1.0  0.0013975413184183626  0.5742904287643424  0.4174207751513065  1.0000
  C   C83       1.0  0.07439638313519473  0.5888599805352539  0.3912329225355861  1.0000
  C   C84       1.0  0.6374553351283722  0.6430348398025529  0.37726136739464516  1.0000
  O   O1        1.0  0.07978156792177055  0.6081791515664675  0.2598112012244654  1.0000
  O   O2        1.0  0.343815660554597  0.6495151607109476  0.3043784322027677  1.0000
  O   O3        1.0  0.6891799444651026  0.6492839586637655  0.2738079141698718  1.0000
  O   O4        1.0  0.8237385725491321  0.38930582540663033  0.7404221967761373  1.0000
  O   O5        1.0  0.5581425505281246  0.34978412877077136  0.6949992112693265  1.0000
  O   O6        1.0  0.2144891748164  0.34905177777723406  0.7264145663821822  1.0000
  O   O7        1.0  0.8199409374380621  0.740170610454555  0.34838366996442005  1.0000
  O   O8        1.0  0.03946587204391955  0.6956171364201466  0.34519515447109933  1.0000
  O   O9        1.0  0.41537903191939296  0.7262084009177553  0.3754770711079728  1.0000
  O   O10       1.0  0.08326732320821856  0.2596091500552688  0.6488826639599309  1.0000
  O   O11       1.0  0.8630230108392779  0.30503599358812744  0.6548282738093292  1.0000
  O   O12       1.0  0.4878612339264308  0.2735816935190414  0.6226225287561817  1.0000
  O   O13       1.0  0.4718372416480248  0.6516263107068238  0.39184541503197307  1.0000
  O   O14       1.0  0.6944096491292269  0.6547883099617948  0.350457489228134  1.0000
  O   O15       1.0  0.0401147283247737  0.6244597973870467  0.3507505499266585  1.0000
  O   O16       1.0  0.4343961634320976  0.35114865466082523  0.6107358353002539  1.0000
  O   O17       1.0  0.20829798140528055  0.3452066285733365  0.6502280670179204  1.0000
  O   O18       1.0  0.8652806685474274  0.37736942639588716  0.6509464068241115  1.0000
