data_image0
_chemical_formula_structural       Cu8H32C48N40
_chemical_formula_sum              "Cu8 H32 C48 N40"
_cell_length_a       8.48659259878961
_cell_length_b       8.655038517847691
_cell_length_c       19.0795435070163
_cell_angle_alpha    89.99985634588914
_cell_angle_beta     90.00008268669677
_cell_angle_gamma    107.84828527313476

_space_group_name_H-M_alt    "P 1"
_space_group_IT_number       1

loop_
  _space_group_symop_operation_xyz
  'x, y, z'

loop_
  _atom_site_type_symbol
  _atom_site_label
  _atom_site_symmetry_multiplicity
  _atom_site_fract_x
  _atom_site_fract_y
  _atom_site_fract_z
  _atom_site_occupancy
  Cu  Cu1       1.0  0.5459244460989793  0.19041235305370205  0.8266555886911604  1.0000
  Cu  Cu2       1.0  0.9540754460454081  0.3095863657416728  0.3266552193708918  1.0000
  Cu  Cu3       1.0  0.45407699721494044  0.8095865567345226  0.1733439802723566  1.0000
  Cu  Cu4       1.0  0.045924819283456444  0.6904125451433314  0.6733448737138019  1.0000
  Cu  Cu5       1.0  0.5356420703839645  0.5644054400934023  0.9083323799619336  1.0000
  Cu  Cu6       1.0  0.9643560076040245  0.9355939972645329  0.4083329226055952  1.0000
  Cu  Cu7       1.0  0.46435739743973403  0.4355946857087218  0.0916661407571553  1.0000
  Cu  Cu8       1.0  0.035641901754303276  0.06440491581533786  0.5916676945998988  1.0000
  H   H1        1.0  0.5733855936734571  0.8497769248047504  0.7947598065228618  1.0000
  H   H2        1.0  0.9266142321209684  0.6502255113987019  0.2947590761928538  1.0000
  H   H3        1.0  0.42661543261781526  0.15022441371302617  0.2052392383175814  1.0000
  H   H4        1.0  0.07338641368909997  0.34977461330269216  0.7052404927697182  1.0000
  H   H5        1.0  0.09213517887198455  0.9003051224289108  0.8185799004735301  1.0000
  H   H6        1.0  0.4078617530894562  0.5996956807119035  0.31857711895476365  1.0000
  H   H7        1.0  0.9078623134645838  0.09969621937787568  0.18142124085200345  1.0000
  H   H8        1.0  0.5921365367491943  0.4003044461870004  0.6814219258854948  1.0000
  H   H9        1.0  0.13770631353906984  0.19152132453469045  0.8518484083472444  1.0000
  H   H10       1.0  0.36229224555097517  0.3084769669939291  0.3518474574937684  1.0000
  H   H11       1.0  0.862296307760779  0.8084775841541185  0.1481516847381954  1.0000
  H   H12       1.0  0.6377076027556895  0.6915243726192983  0.6481526355894118  1.0000
  H   H13       1.0  0.891277971834988  0.29092470254500563  0.8613781709521932  1.0000
  H   H14       1.0  0.6087215251842223  0.20907991254954789  0.36137769482036924  1.0000
  H   H15       1.0  0.10872263743362957  0.7090790647023226  0.1386203497651906  1.0000
  H   H16       1.0  0.39127832312156124  0.7909214270663227  0.6386213500197044  1.0000
  H   H17       1.0  0.010186615881934804  0.8568325078656256  0.969145870219087  1.0000
  H   H18       1.0  0.4898187788380709  0.6431711714059246  0.46914309180063185  1.0000
  H   H19       1.0  0.989816385901321  0.14316761463297203  0.030856319352011493  1.0000
  H   H20       1.0  0.5101826279348386  0.3568313809269198  0.53085595303925  1.0000
  H   H21       1.0  0.5168916629060049  0.9027306577357022  0.9159890739818479  1.0000
  H   H22       1.0  0.983107605953492  0.5972687399411638  0.4159894880407791  1.0000
  H   H23       1.0  0.4831090194441927  0.0972658244237152  0.0840099708612456  1.0000
  H   H24       1.0  0.016892278893294584  0.4027289571300939  0.5840100809229226  1.0000
  H   H25       1.0  0.16755857791508788  0.4480595674563047  0.9065906723429649  1.0000
  H   H26       1.0  0.3324396197434254  0.0519445194868595  0.40659051735649127  1.0000
  H   H27       1.0  0.8324389509607214  0.5519381318111483  0.0934088966199838  1.0000
  H   H28       1.0  0.6675582530730181  0.9480580361402744  0.5934085274822607  1.0000
  H   H29       1.0  0.9404371731473162  0.560818962224431  0.9420901324465234  1.0000
  H   H30       1.0  0.559562483578702  0.9391851602903571  0.442087791661784  1.0000
  H   H31       1.0  0.059563853145277755  0.43918237628938767  0.05791048475858669  1.0000
  H   H32       1.0  0.4404377452078378  0.06081739314322481  0.5579102049346147  1.0000
  C   C1        1.0  0.2698393348121327  0.9033652055603765  0.943036811597949  1.0000
  C   C2        1.0  0.23016449404174466  0.5966337500136162  0.4430360164459799  1.0000
  C   C3        1.0  0.7301644644736456  0.09663370202902397  0.056963805609427695  1.0000
  C   C4        1.0  0.7698349737832756  0.4033663757845502  0.5569640766377616  1.0000
  C   C5        1.0  0.3175134650928655  0.0783749559075133  0.9555569860402072  1.0000
  C   C6        1.0  0.18249229991051405  0.42162644896977497  0.4555568402230961  1.0000
  C   C7        1.0  0.6824938681493862  0.9216239483875979  0.0444436311682992  1.0000
  C   C8        1.0  0.8175087263825204  0.578374889542715  0.5444443011035673  1.0000
  C   C9        1.0  0.6994392385088516  0.9202172160669161  0.8090892901796991  1.0000
  C   C10       1.0  0.800557494468542  0.5797827224914015  0.309089607373771  1.0000
  C   C11       1.0  0.3005598488332026  0.0797816959201469  0.1909092305399511  1.0000
  C   C12       1.0  0.19944159287440033  0.4202161894930184  0.6909099615889858  1.0000
  C   C13       1.0  0.8288020725779572  0.8513236293796564  0.8069163626122204  1.0000
  C   C14       1.0  0.6711966322311868  0.6486751041188652  0.30691599489198745  1.0000
  C   C15       1.0  0.17119781226926986  0.1486740676902798  0.1930837304730417  1.0000
  C   C16       1.0  0.3288051915648182  0.35132501948311295  0.6930840981925144  1.0000
  C   C17       1.0  0.9897289850172513  0.9505606594577073  0.8210021245690058  1.0000
  C   C18       1.0  0.5102657925198315  0.5494404350815854  0.32100229060278457  1.0000
  C   C19       1.0  0.010267329332940297  0.04944068344981639  0.1789979685130376  1.0000
  C   C20       1.0  0.48973405578683316  0.4505609045316418  0.6789978024803958  1.0000
  C   C21       1.0  0.014248726205167381  0.11131546824676518  0.8399498068249045  1.0000
  C   C22       1.0  0.4857501933413103  0.3886840970559078  0.3399488439598457  1.0000
  C   C23       1.0  0.9857519196066704  0.8886846564493496  0.1600518586238877  1.0000
  C   C24       1.0  0.5142496549644731  0.6113172425599698  0.6600502008802279  1.0000
  C   C25       1.0  0.8781049226239404  0.1674061800843418  0.8448002719914315  1.0000
  C   C26       1.0  0.621894166012673  0.33259730473546495  0.3447991401291759  1.0000
  C   C27       1.0  0.12189568664556559  0.8325975871603432  0.1551992969690588  1.0000
  C   C28       1.0  0.3781045043089363  0.6674040359745417  0.6552014770751811  1.0000
  C   C29       1.0  0.10617215631732074  0.8048251751048524  0.9527299191715172  1.0000
  C   C30       1.0  0.39383127182596667  0.6951761603575548  0.4527270204386085  1.0000
  C   C31       1.0  0.8938308454659348  0.19517494739374536  0.0472722703995814  1.0000
  C   C32       1.0  0.6061701714875126  0.3048227494319917  0.5472720244033482  1.0000
  C   C33       1.0  0.38794312986716034  0.8302386389279516  0.9218670970924023  1.0000
  C   C34       1.0  0.11205944883347739  0.6697640669614273  0.4218677159066786  1.0000
  C   C35       1.0  0.6120602523955297  0.169762697392315  0.0781324718703544  1.0000
  C   C36       1.0  0.8879415774586761  0.3302372715537132  0.5781323771768783  1.0000
  C   C37       1.0  0.19258674952814653  0.5770587442018138  0.9169545868372069  1.0000
  C   C38       1.0  0.30741190646610755  0.922942775923431  0.4169545193810862  1.0000
  C   C39       1.0  0.8074127548374364  0.4229377390530615  0.0830455062486166  1.0000
  C   C40       1.0  0.6925875613580316  0.07705734987737149  0.583044525459556  1.0000
  C   C41       1.0  0.06742253754904225  0.6399722270921229  0.9375666395414584  1.0000
  C   C42       1.0  0.43257888958603274  0.8600304007894836  0.43756462693011133  1.0000
  C   C43       1.0  0.932579286248277  0.36002789650589045  0.0624350259077104  1.0000
  C   C44       1.0  0.5674209587193104  0.13997093882770875  0.562433893788409  1.0000
  C   C45       1.0  0.7974594762909177  0.6778285940198144  0.7947096599365011  1.0000
  C   C46       1.0  0.7025403859598356  0.8221701998925751  0.2947091155644016  1.0000
  C   C47       1.0  0.20254196702388327  0.32217031576577426  0.2052909572701225  1.0000
  C   C48       1.0  0.2974575233984993  0.17782871318730287  0.705291501641085  1.0000
  N   N1        1.0  0.4229248783102831  0.19407823412542058  0.915292888094136  1.0000
  N   N2        1.0  0.07707492900215838  0.30592337913806483  0.41529333018551984  1.0000
  N   N3        1.0  0.5770777429895659  0.8059206745633959  0.0847072049913038  1.0000
  N   N4        1.0  0.9229213853493617  0.694077963765494  0.5847083352611904  1.0000
  N   N5        1.0  0.7229934614903185  0.07586157225486552  0.8278852993823449  1.0000
  N   N6        1.0  0.7770071936885045  0.42413956796927  0.3278867834980019  1.0000
  N   N7        1.0  0.27700676729578777  0.9241409811800378  0.1721121730924935  1.0000
  N   N8        1.0  0.22299151317323404  0.5758581301987675  0.6721133095868765  1.0000
  N   N9        1.0  0.4321794304851848  0.33601082774084284  0.9467249043377776  1.0000
  N   N10       1.0  0.0678208102082891  0.163991840947709  0.4467249772968884  1.0000
  N   N11       1.0  0.5678223933112604  0.6639892958598138  0.0532757128682775  1.0000
  N   N12       1.0  0.9321766821282793  0.8360095008590702  0.5532761640286452  1.0000
  N   N13       1.0  0.2633992426628708  0.14558715162893068  0.0104787638975807  1.0000
  N   N14       1.0  0.236601097877795  0.35441285791761595  0.5104785450577012  1.0000
  N   N15       1.0  0.7366002251621495  0.8544129741692357  0.9895213291861609  1.0000
  N   N16       1.0  0.7633979894660283  0.6455860540641608  0.48952207214816906  1.0000
  N   N17       1.0  0.3384231795310767  0.3059989022313943  0.0046080114177869  1.0000
  N   N18       1.0  0.16157909007806376  0.1940035634305062  0.5046079264752095  1.0000
  N   N19       1.0  0.6615778467606361  0.6940024362850606  0.9953915575442166  1.0000
  N   N20       1.0  0.83841996072519  0.8059989910945685  0.4953926907285862  1.0000
  N   N21       1.0  0.35246000460432464  0.6693031899133641  0.9107301180666098  1.0000
  N   N22       1.0  0.14754099688521186  0.8306983593817774  0.41073005299247  1.0000
  N   N23       1.0  0.647540260724547  0.3306957209716472  0.0892699750180839  1.0000
  N   N24       1.0  0.8524604464287079  0.1693005504064544  0.5892695159710399  1.0000
  N   N25       1.0  0.6825283590621752  0.5605691382519921  0.8297472155816763  1.0000
  N   N26       1.0  0.8174695866674068  0.9394306951106584  0.3297471358619433  1.0000
  N   N27       1.0  0.3174703478000039  0.43942855991472374  0.1702534016247554  1.0000
  N   N28       1.0  0.1825290836537619  0.06057064560066997  0.6702529572208603  1.0000
  N   N29       1.0  0.69918610260585  0.4188722015662378  0.8064348986069234  1.0000
  N   N30       1.0  0.8008106020335504  0.08112783623072059  0.3064357385594931  1.0000
  N   N31       1.0  0.30081260425588846  0.5811254966017996  0.1935651944779551  1.0000
  N   N32       1.0  0.19918533183500384  0.9188722928617279  0.6935643545231258  1.0000
  N   N33       1.0  0.8835251336286801  0.6095910558595887  0.751377452492477  1.0000
  N   N34       1.0  0.6164769751247904  0.8904115967581203  0.2513767757449513  1.0000
  N   N35       1.0  0.1164778681532468  0.3904090666429738  0.24862316471395468  1.0000
  N   N36       1.0  0.3835216951963787  0.1095897439532081  0.7486233173378521  1.0000
  N   N37       1.0  0.8193978923665312  0.4478056290228451  0.7595994185266192  1.0000
  N   N38       1.0  0.6806014699014682  0.05219585640585931  0.2595996903171383  1.0000
  N   N39       1.0  0.18060237296278098  0.5521932818608376  0.2404011986796277  1.0000
  N   N40       1.0  0.31939328598336647  0.9478042737794038  0.740402499251317  1.0000
