data_image0
_chemical_formula_structural       Cu2H16C12N4O14
_chemical_formula_sum              "Cu2 H16 C12 N4 O14"
_cell_length_a       7.310908387274905
_cell_length_b       8.15988211955202
_cell_length_c       9.64365007556793
_cell_angle_alpha    64.96792819614036
_cell_angle_beta     79.82661023018873
_cell_angle_gamma    65.31885968397904

_space_group_name_H-M_alt    "P 1"
_space_group_IT_number       1

loop_
  _space_group_symop_operation_xyz
  'x, y, z'

loop_
  _atom_site_type_symbol
  _atom_site_label
  _atom_site_symmetry_multiplicity
  _atom_site_fract_x
  _atom_site_fract_y
  _atom_site_fract_z
  _atom_site_occupancy
  Cu  Cu1       1.0  0.44720948624642876  0.964897231605555  0.25658155277301387  1.0000
  Cu  Cu2       1.0  0.9471545320653405  0.2215833792654964  0.7433698511421625  1.0000
  H   H1        1.0  0.35355506010851895  0.26252991596965836  0.978112974944068  1.0000
  H   H2        1.0  0.8535661798359584  0.24076310436171167  0.021858351941794776  1.0000
  H   H3        1.0  0.16867067943302763  0.21810680260157517  0.09442615422231883  1.0000
  H   H4        1.0  0.6687023741488786  0.31258095204247394  0.9055401580585285  1.0000
  H   H5        1.0  0.4960196807437923  0.8299908415134355  0.05954936557630924  1.0000
  H   H6        1.0  0.9959240501284582  0.8896273383478431  0.9404420619770165  1.0000
  H   H7        1.0  0.29517622503627905  0.80528078394223  0.14655301301638707  1.0000
  H   H8        1.0  0.795075236104381  0.9518655488069715  0.853389634040255  1.0000
  H   H9        1.0  0.9635190597836997  0.06537472629489835  0.2749739476839892  1.0000
  H   H10       1.0  0.4635026167104786  0.3402201360817403  0.72510292945136  1.0000
  H   H11       1.0  0.9153234721251099  0.2924319342195787  0.22272880834407266  1.0000
  H   H12       1.0  0.41531927196675156  0.5150656041332483  0.7772785192186475  1.0000
  H   H13       1.0  0.4889514891680235  0.5085011926655058  0.3768014647524822  1.0000
  H   H14       1.0  0.9890078945152471  0.8852548014654856  0.6232797576081169  1.0000
  H   H15       1.0  0.4664290911683082  0.3654155847902416  0.19508622780409013  1.0000
  H   H16       1.0  0.966181350482401  0.5605379551780916  0.8049693478255122  1.0000
  C   C1        1.0  0.4259541579903399  0.8236312370005405  0.5756819220159812  1.0000
  C   C2        1.0  0.9259639985055018  0.3994821436757905  0.42430274940465307  1.0000
  C   C3        1.0  0.44251528491863457  0.017484873383267558  0.5264045626282937  1.0000
  C   C4        1.0  0.9423922097745815  0.5440921131180546  0.4735744507418929  1.0000
  C   C5        1.0  0.4466803551726528  0.09994229896068421  0.6262901287452465  1.0000
  C   C6        1.0  0.9466466597085844  0.7263982356580172  0.37371136127471516  1.0000
  C   C7        1.0  0.4754737669038178  0.3670792355249972  0.4198105041207044  1.0000
  C   C8        1.0  0.9755227914924662  0.7868502832978521  0.5802767736217262  1.0000
  C   C9        1.0  0.4662648672159476  0.28825525094293186  0.3187142398687257  1.0000
  C   C10       1.0  0.9661346123913716  0.6069968756382665  0.6813366145672007  1.0000
  C   C11       1.0  0.4219995122906965  0.010679495481824302  0.7983758914590879  1.0000
  C   C12       1.0  0.9219362730221551  0.8092429102173285  0.2016263595657081  1.0000
  N   N1        1.0  0.45258713164454883  0.11316629085530394  0.37428147254306054  1.0000
  N   N2        1.0  0.9524351823702517  0.48756517207396394  0.6256968336629143  1.0000
  N   N3        1.0  0.46549804252735066  0.27359048702491173  0.5715756997125467  1.0000
  N   N4        1.0  0.9655546963355733  0.8452636794461487  0.4284804438060092  1.0000
  O   O1        1.0  0.39517090784353576  0.7364316255806713  0.7140245211492556  1.0000
  O   O2        1.0  0.8951956930356388  0.45061979558551013  0.2858932222420946  1.0000
  O   O3        1.0  0.4451564298377519  0.7630575207302359  0.46802146451704374  1.0000
  O   O4        1.0  0.9452891770014419  0.2311869805824146  0.5319410616873768  1.0000
  O   O5        1.0  0.2452727223902115  0.06611598614037466  0.8485393982519441  1.0000
  O   O6        1.0  0.7452419578075861  0.9148463792446578  0.15144598284720692  1.0000
  O   O7        1.0  0.5805067824296869  0.900648505998696  0.8788744666263355  1.0000
  O   O8        1.0  0.08046736558079458  0.779637999339954  0.12113352761656422  1.0000
  O   O9        1.0  0.3047707612227698  0.22176549528085596  0.0871277757741424  1.0000
  O   O10       1.0  0.8047800623798763  0.30907156472015646  0.9128090347424235  1.0000
  O   O11       1.0  0.43076688492593723  0.795625510354924  0.1640894976323182  1.0000
  O   O12       1.0  0.9306575797625812  0.9598482886460786  0.8358784491256374  1.0000
  O   O13       1.0  0.952749785976643  0.18703248663045718  0.1818614902920288  1.0000
  O   O14       1.0  0.4527933910692  0.36878794419858  0.8181759332928066  1.0000
