data_image0
_chemical_formula_structural       Zn2H33C50N9O14
_chemical_formula_sum              "Zn2 H33 C50 N9 O14"
_cell_length_a       15.947253045054865
_cell_length_b       16.05748772856606
_cell_length_c       17.160703458246324
_cell_angle_alpha    86.95572728808064
_cell_angle_beta     89.05797170040121
_cell_angle_gamma    87.58223778499197

_space_group_name_H-M_alt    "P 1"
_space_group_IT_number       1

loop_
  _space_group_symop_operation_xyz
  'x, y, z'

loop_
  _atom_site_type_symbol
  _atom_site_label
  _atom_site_symmetry_multiplicity
  _atom_site_fract_x
  _atom_site_fract_y
  _atom_site_fract_z
  _atom_site_occupancy
  Zn  Zn1       1.0  0.4933805343646114  0.5923905302648579  0.49960378215381235  1.0000
  Zn  Zn2       1.0  0.5149079124413094  0.4179259312959118  0.4917585769048145  1.0000
  H   H1        1.0  0.08209685450118803  0.533051602760601  0.3821213896768754  1.0000
  H   H2        1.0  0.9365462620221623  0.5577355531352596  0.3821620415809192  1.0000
  H   H3        1.0  0.9177681166860057  0.3769948129636731  0.5285429815741765  1.0000
  H   H4        1.0  0.9252732979856264  0.40496062738772315  0.4280360535799303  1.0000
  H   H5        1.0  0.0710663624135108  0.38228506853332805  0.4337437045633266  1.0000
  H   H6        1.0  0.0641143540796065  0.35923982113297376  0.5352706971426072  1.0000
  H   H7        1.0  0.9354165330547489  0.5939129113432671  0.596043721166211  1.0000
  H   H8        1.0  0.9279299534394457  0.48804880676466667  0.6277244162159263  1.0000
  H   H9        1.0  0.08182760779958191  0.5791458838771391  0.5935846210951112  1.0000
  H   H10       1.0  0.9446423482657171  0.6340372592848807  0.451730056389188  1.0000
  H   H11       1.0  0.09077599886551012  0.6130849901560185  0.4477702239448718  1.0000
  H   H12       1.0  0.07441237977723603  0.47459302330004505  0.6298757567892821  1.0000
  H   H13       1.0  0.5698099805209652  0.5982684467030737  0.7397680511800573  1.0000
  H   H14       1.0  0.5706463064865661  0.5917845159265697  0.8867066681539413  1.0000
  H   H15       1.0  0.5151100996914623  0.6610860899106471  0.09478868935985929  1.0000
  H   H16       1.0  0.508984977379157  0.6618957910305882  0.24186698979968918  1.0000
  H   H17       1.0  0.4602050252570253  0.3583152775910534  0.7437712951764937  1.0000
  H   H18       1.0  0.492742290061564  0.3950370588855847  0.10815699322139949  1.0000
  H   H19       1.0  0.4599627512034347  0.3521397965082187  0.8906229763482683  1.0000
  H   H20       1.0  0.4905151444139691  0.3955480633246751  0.2545703113084556  1.0000
  H   H21       1.0  0.5399707688049986  0.7234685680495971  0.3998470094061659  1.0000
  H   H22       1.0  0.5370377507751841  0.8809369009205099  0.382979410949808  1.0000
  H   H23       1.0  0.4416041591652303  0.30133095108205044  0.5940074377609789  1.0000
  H   H24       1.0  0.4874763321385204  0.0864340672266479  0.3180614958888839  1.0000
  H   H25       1.0  0.5682600326590903  0.9997906871053035  0.22471397032211368  1.0000
  H   H26       1.0  0.7151626751935398  0.9505843417350378  0.25432297173860247  1.0000
  H   H27       1.0  0.7813678645380906  0.9898777816190221  0.3768801635354109  1.0000
  H   H28       1.0  0.7016345270309616  0.0789650242245159  0.4687455396089462  1.0000
  H   H29       1.0  0.47247069595268004  0.7624656052104158  0.7187338085083039  1.0000
  H   H30       1.0  0.39943253817857294  0.6829404026644923  0.8255044060352075  1.0000
  H   H31       1.0  0.2807737799048199  0.5946868880804175  0.7957993777807602  1.0000
  H   H32       1.0  0.23457014586087876  0.5869849173995122  0.6580277569103001  1.0000
  H   H33       1.0  0.3070236476415289  0.6663681361555334  0.5516230620267206  1.0000
  C   C1        1.0  0.501142134315103  0.5264527029790784  0.3438693791241504  1.0000
  C   C2        1.0  0.6651959917031718  0.5192214746459739  0.4951037466357917  1.0000
  C   C3        1.0  0.5079890939306895  0.4874904088341126  0.6466601260174442  1.0000
  C   C4        1.0  0.3438938719907654  0.47490991488223244  0.49553338727820057  1.0000
  C   C5        1.0  0.96276459432999  0.5692655996478848  0.4392006688486986  1.0000
  C   C6        1.0  0.9490503222989732  0.4186848007825716  0.4854853521713379  1.0000
  C   C7        1.0  0.04553430657900041  0.40561488590796557  0.4886721541877321  1.0000
  C   C8        1.0  0.25336085256888924  0.4746198383829779  0.5001249635754732  1.0000
  C   C9        1.0  0.9225012773280242  0.5101583786156001  0.5020645656568304  1.0000
  C   C10       1.0  0.05923341763490702  0.5549721363851956  0.43850926714761573  1.0000
  C   C11       1.0  0.08617061529165682  0.48900551540993575  0.5036742470905864  1.0000
  C   C12       1.0  0.053252409240172924  0.5196972898173796  0.5831443128268247  1.0000
  C   C13       1.0  0.9562286772230809  0.5299919250902221  0.582937792074631  1.0000
  C   C14       1.0  0.17708127232457832  0.4795444181916296  0.5032344825023072  1.0000
  C   C15       1.0  0.8316395358494904  0.5198781175323648  0.5006381571811785  1.0000
  C   C16       1.0  0.7554382004687741  0.5226514227478561  0.49791731922377375  1.0000
  C   C17       1.0  0.5001339042701076  0.528584410000306  0.2565496211156102  1.0000
  C   C18       1.0  0.4950725197806138  0.4532977790487323  0.21884813167791609  1.0000
  C   C19       1.0  0.49671904388444704  0.4527619666181835  0.1381820431521703  1.0000
  C   C20       1.0  0.5049023896528908  0.5281998790536165  0.09360875559998758  1.0000
  C   C21       1.0  0.5090188860973371  0.6036551141213096  0.1309685514381371  1.0000
  C   C22       1.0  0.5059606140094818  0.6038851447023815  0.21204352017241493  1.0000
  C   C23       1.0  0.5459862506517723  0.5417437503526088  0.8545361047402834  1.0000
  C   C24       1.0  0.5457525171297564  0.5449798956588124  0.7737221492545032  1.0000
  C   C25       1.0  0.5123813881899937  0.4728693919446912  0.8965159232281222  1.0000
  C   C26       1.0  0.5131809717818641  0.47977769623985017  0.7335748533428228  1.0000
  C   C27       1.0  0.4838384703363731  0.4092749676795435  0.7754600054467742  1.0000
  C   C28       1.0  0.4837166022960135  0.40563636824909827  0.8566147152298171  1.0000
  C   C29       1.0  0.4695280330956992  0.2556031179621101  0.5556487290592357  1.0000
  C   C30       1.0  0.4518374677451576  0.17210721011565513  0.5645108553981686  1.0000
  C   C31       1.0  0.48775088756419666  0.11330648153624881  0.5144807423372127  1.0000
  C   C32       1.0  0.5430033168570535  0.1424665955066473  0.4544239370048331  1.0000
  C   C33       1.0  0.5552698258038192  0.22844434537966413  0.45111919401895756  1.0000
  C   C34       1.0  0.5094676563262227  0.8491269751840633  0.4342294525736817  1.0000
  C   C35       1.0  0.5109882922073795  0.7629460524463313  0.4433688689179433  1.0000
  C   C36       1.0  0.4720421834115742  0.896153382939332  0.49280982361792514  1.0000
  C   C37       1.0  0.43767815847826347  0.7651986773574676  0.5629166625927977  1.0000
  C   C38       1.0  0.4375034510430426  0.8529546500169333  0.5579189767205719  1.0000
  C   C39       1.0  0.5891614756878244  0.08752498530410692  0.3995812400012966  1.0000
  C   C40       1.0  0.5518058476491989  0.06507276093649492  0.3306973845732699  1.0000
  C   C41       1.0  0.5972945269453335  0.0162262409785043  0.27857748310530883  1.0000
  C   C42       1.0  0.6797345473284367  0.9887510291931536  0.2951645611084216  1.0000
  C   C43       1.0  0.716983088221774  0.010828896519569803  0.36380939211689167  1.0000
  C   C44       1.0  0.672239365037335  0.060722626624830404  0.4156459106517829  1.0000
  C   C45       1.0  0.3944249292204064  0.7195614808116274  0.6281062945950351  1.0000
  C   C46       1.0  0.4197115626303899  0.7248190653536426  0.7056450761050569  1.0000
  C   C47       1.0  0.37855258847964995  0.6801099168596991  0.7655689033648514  1.0000
  C   C48       1.0  0.3120231737882336  0.6303996641111597  0.7487729605375931  1.0000
  C   C49       1.0  0.2861019486165334  0.6259958555123504  0.6718439344307825  1.0000
  C   C50       1.0  0.3267542189715585  0.6706889689972116  0.6115966032450826  1.0000
  N   N1        1.0  0.5102755947915656  0.5346182072657159  0.01128478871834909  1.0000
  N   N2        1.0  0.5052663938423906  0.4659883278984794  0.9786001132228889  1.0000
  N   N3        1.0  0.5210524005658713  0.2840138625823912  0.49827803794793357  1.0000
  N   N4        1.0  0.4803583052363366  0.027766197308118003  0.532700794476753  1.0000
  N   N5        1.0  0.46760549422074155  0.9834450370080177  0.47630960415315104  1.0000
  N   N6        1.0  0.474952484423362  0.7220795387897426  0.5051032448222158  1.0000
  N   N7        1.0  0.6109740478423408  0.2628054657386869  0.3878598996383927  1.0000
  N   N8        1.0  0.39073059504672614  0.14726699976262134  0.6252892642434701  1.0000
  N   N9        1.0  0.3911352827168957  0.8980684293325185  0.6191893722161977  1.0000
  O   O1        1.0  0.487782118840329  0.5946339112085468  0.3775363953160635  1.0000
  O   O2        1.0  0.516025982154261  0.454766652025306  0.3778346604094054  1.0000
  O   O3        1.0  0.6226732294496815  0.5876478040757648  0.48395997762007437  1.0000
  O   O4        1.0  0.6365167020236414  0.44615440926936156  0.5044433198892618  1.0000
  O   O5        1.0  0.514131424754517  0.5603305262518675  0.6145181055237287  1.0000
  O   O6        1.0  0.4968510422456733  0.421263508941614  0.6108699280805678  1.0000
  O   O7        1.0  0.37542833882790927  0.546044064370534  0.5010726821180072  1.0000
  O   O8        1.0  0.38457035690026947  0.40613060632426823  0.4865365853521623  1.0000
  O   O9        1.0  0.6835527267315417  0.27518695883542676  0.4061545209516025  1.0000
  O   O10       1.0  0.579316259114876  0.273803823430967  0.322868633337812  1.0000
  O   O11       1.0  0.34934257158167287  0.0858218291180819  0.6129629720141097  1.0000
  O   O12       1.0  0.38437479539627634  0.18997146766909626  0.6831898309280788  1.0000
  O   O13       1.0  0.3155587482885238  0.9120288728334601  0.608020900386208  1.0000
  O   O14       1.0  0.4311831457253776  0.9157411448762358  0.6765272602773463  1.0000
