data_image0
_chemical_formula_structural       Ba4H40C48N16O40
_chemical_formula_sum              "Ba4 H40 C48 N16 O40"
_cell_length_a       8.894690653021474
_cell_length_b       10.893692974055249
_cell_length_c       15.635734667082634
_cell_angle_alpha    89.99967564982634
_cell_angle_beta     89.99981738324301
_cell_angle_gamma    90.00017069813076

_space_group_name_H-M_alt    "P 1"
_space_group_IT_number       1

loop_
  _space_group_symop_operation_xyz
  'x, y, z'

loop_
  _atom_site_type_symbol
  _atom_site_label
  _atom_site_symmetry_multiplicity
  _atom_site_fract_x
  _atom_site_fract_y
  _atom_site_fract_z
  _atom_site_occupancy
  Ba  Ba1       1.0  0.39879660163170877  0.9787352449657052  0.5414836216861546  1.0000
  Ba  Ba2       1.0  0.8987933729075266  0.021262909944169902  0.4585167664378035  1.0000
  Ba  Ba3       1.0  0.898795061910107  0.4787347516791983  0.9585147591036502  1.0000
  Ba  Ba4       1.0  0.3987937883732613  0.521266157124181  0.0414837103340915  1.0000
  H   H1        1.0  0.7626049546968829  0.9610637667232141  0.8230498823500271  1.0000
  H   H2        1.0  0.26260680066182834  0.038927629112016915  0.1769552316989405  1.0000
  H   H3        1.0  0.26260842560574815  0.4610698538939958  0.676952654212883  1.0000
  H   H4        1.0  0.7626067025828503  0.5389270497507611  0.32304478509485796  1.0000
  H   H5        1.0  0.11584452659192117  0.7783605801423905  0.45833755734413734  1.0000
  H   H6        1.0  0.6158483081393697  0.2216378002192485  0.541663348079517  1.0000
  H   H7        1.0  0.6158486757573485  0.2783625687127086  0.0416637056593459  1.0000
  H   H8        1.0  0.11584753177451998  0.7216339757361824  0.9583352810830092  1.0000
  H   H9        1.0  0.0771620162116662  0.6619011520419352  0.745073948423489  1.0000
  H   H10       1.0  0.5771610676352664  0.33809437975745743  0.2549257486100913  1.0000
  H   H11       1.0  0.5771661047322995  0.1619069090287439  0.7549269048432379  1.0000
  H   H12       1.0  0.07716372472199849  0.8380922946335189  0.24507151305574132  1.0000
  H   H13       1.0  0.23563448241774407  0.6723171072303701  0.6076424409971395  1.0000
  H   H14       1.0  0.735636105288897  0.3276824842795563  0.3923569662991541  1.0000
  H   H15       1.0  0.7356400558732332  0.17231623556698145  0.892358081627876  1.0000
  H   H16       1.0  0.23563840170209013  0.8276833559603957  0.10763940697939492  1.0000
  H   H17       1.0  0.08944960308533467  0.6153310141598427  0.5413023436386197  1.0000
  H   H18       1.0  0.5894499397444976  0.3846663836342188  0.4586986100465822  1.0000
  H   H19       1.0  0.58945143514768  0.11533143734797592  0.9586993097201031  1.0000
  H   H20       1.0  0.0894514804913911  0.8846659604658598  0.041297806598358015  1.0000
  H   H21       1.0  0.38813621602275106  0.6948679269754977  0.3898859399476962  1.0000
  H   H22       1.0  0.8881421685688196  0.3051320377896829  0.6101119094116996  1.0000
  H   H23       1.0  0.8881422334011546  0.19487211115308875  0.1101145137321424  1.0000
  H   H24       1.0  0.3881428967854604  0.8051306074969631  0.8898858938581142  1.0000
  H   H25       1.0  0.4606843175907684  0.9954809044144711  0.0631913278972362  1.0000
  H   H26       1.0  0.9606896133666825  0.004520155877401101  0.9368051097034639  1.0000
  H   H27       1.0  0.9606873955428483  0.4954805881766546  0.43680781198833074  1.0000
  H   H28       1.0  0.4606899082007486  0.5045204721010849  0.5631931025335604  1.0000
  H   H29       1.0  0.6985391160388585  0.9488369672185331  0.2410626011300607  1.0000
  H   H30       1.0  0.19854339412701444  0.0511671233267066  0.7589343157320556  1.0000
  H   H31       1.0  0.1985443799329474  0.44883412405003054  0.25893975954091536  1.0000
  H   H32       1.0  0.6985437515446832  0.551167212594173  0.7410622738063425  1.0000
  H   H33       1.0  0.677813632191615  0.8129381009755221  0.021543301120864604  1.0000
  H   H34       1.0  0.17781605916160706  0.1870659388370585  0.9784549327555825  1.0000
  H   H35       1.0  0.17781093080902372  0.31293438537722557  0.4784596314248689  1.0000
  H   H36       1.0  0.6778165119946066  0.6870650646078147  0.5215418002656945  1.0000
  H   H37       1.0  0.73702207446334  0.947245015751349  0.07771687062685831  1.0000
  H   H38       1.0  0.23702432648260435  0.05275916896719219  0.9222825341229708  1.0000
  H   H39       1.0  0.2370241822505363  0.4472380864614253  0.4222847863931349  1.0000
  H   H40       1.0  0.7370233429446243  0.5527596725142274  0.5777165370501223  1.0000
  C   C1        1.0  0.7439819100564405  0.9798026831456569  0.682350365742984  1.0000
  C   C2        1.0  0.2439806577976071  0.020195092837511204  0.317656061465037  1.0000
  C   C3        1.0  0.24398572347520542  0.4798057868490276  0.8176546894864174  1.0000
  C   C4        1.0  0.7439802172038555  0.5201938250968753  0.18234342342699253  1.0000
  C   C5        1.0  0.8597350511043658  0.8815138366643185  0.683688413824683  1.0000
  C   C6        1.0  0.3597352869889932  0.11848146875000513  0.3163146039583395  1.0000
  C   C7        1.0  0.35973774769426825  0.38151786924356657  0.8163161764148443  1.0000
  C   C8        1.0  0.8597337146859303  0.6184829439618796  0.1836830039926767  1.0000
  C   C9        1.0  0.9150059083154858  0.81091773181069  0.7518554300400666  1.0000
  C   C10       1.0  0.41500453042477403  0.18907679091616097  0.24814684713653185  1.0000
  C   C11       1.0  0.41500898365548977  0.31092323832142915  0.7481480574127062  1.0000
  C   C12       1.0  0.9150070764329429  0.6890758742370905  0.2518510219466847  1.0000
  C   C13       1.0  0.8913319831497688  0.8135950220681709  0.8442905018106828  1.0000
  C   C14       1.0  0.39133448193596365  0.18640127865191397  0.1557105395194682  1.0000
  C   C15       1.0  0.39133782060411454  0.3136012824744583  0.6557130184002702  1.0000
  C   C16       1.0  0.891334265822792  0.686398690107126  0.3442867437963032  1.0000
  C   C17       1.0  0.0240634140356519  0.7566793309514709  0.6305067604653516  1.0000
  C   C18       1.0  0.5240648579993845  0.24331607089055046  0.3694936732043176  1.0000
  C   C19       1.0  0.5240679902651095  0.25668323556993766  0.8694957361609568  1.0000
  C   C20       1.0  0.024065903109331502  0.7433158381309681  0.1305040579357453  1.0000
  C   C21       1.0  0.13535458519002216  0.6991638603308203  0.5711203712933541  1.0000
  C   C22       1.0  0.635354783511616  0.3008336498197508  0.42887921934484313  1.0000
  C   C23       1.0  0.63535883145898  0.19916452671679968  0.9288808687405847  1.0000
  C   C24       1.0  0.13535840711299577  0.800833901413576  0.0711168032067846  1.0000
  C   C25       1.0  0.36954330012738984  0.6223906710512069  0.2711612655124753  1.0000
  C   C26       1.0  0.8695387374539507  0.3776064943030731  0.7288378969757119  1.0000
  C   C27       1.0  0.869538539463221  0.12239847671285993  0.22884078606175257  1.0000
  C   C28       1.0  0.3695390010632238  0.8776051143697574  0.7711590159785331  1.0000
  C   C29       1.0  0.469251359620678  0.720630331266591  0.2403885226193196  1.0000
  C   C30       1.0  0.9692552638460228  0.2793698320184533  0.7596104575641789  1.0000
  C   C31       1.0  0.9692475522330143  0.2206332961323767  0.2596148793505932  1.0000
  C   C32       1.0  0.469251201373325  0.7793714569469615  0.7403860195129113  1.0000
  C   C33       1.0  0.5472383683839297  0.810585960201152  0.2862364560450317  1.0000
  C   C34       1.0  0.0472422745489922  0.18941500615122217  0.7137607374388465  1.0000
  C   C35       1.0  0.047239386216809  0.31058807527767135  0.21376480577002613  1.0000
  C   C36       1.0  0.5472412567121125  0.6894165629084628  0.7862362250702901  1.0000
  C   C37       1.0  0.5527200867868416  0.8393251568607739  0.37826660809641777  1.0000
  C   C38       1.0  0.0527232757923244  0.16067582290190072  0.621731854487365  1.0000
  C   C39       1.0  0.05272274021827881  0.33932985844908364  0.12173580988915941  1.0000
  C   C40       1.0  0.5527217466300698  0.6606757111188912  0.8782645713664012  1.0000
  C   C41       1.0  0.589022143579065  0.8303916159577935  0.14721381004212472  1.0000
  C   C42       1.0  0.0890252054880918  0.16961128857010987  0.8527865048506555  1.0000
  C   C43       1.0  0.08902351323764177  0.3303880073619467  0.3527885766934986  1.0000
  C   C44       1.0  0.5890238358242996  0.6696139791983883  0.6472130173223077  1.0000
  C   C45       1.0  0.6412300214350211  0.8858672332929202  0.06512285124527752  1.0000
  C   C46       1.0  0.1412346746012503  0.11413763494973492  0.9348748099508128  1.0000
  C   C47       1.0  0.1412298107248802  0.3858629551776147  0.4348773033872889  1.0000
  C   C48       1.0  0.6412315124956011  0.6141373232361148  0.5651235556239484  1.0000
  N   N1        1.0  0.9280197493526784  0.8458587306765039  0.6091316433519793  1.0000
  N   N2        1.0  0.42801970029729824  0.1541385777901283  0.3908706100254022  1.0000
  N   N3        1.0  0.4280242802290886  0.34586123722234424  0.8908716830224962  1.0000
  N   N4        1.0  0.9280196665010861  0.6541406610719634  0.109128012099319  1.0000
  N   N5        1.0  0.017012859350522495  0.7315864752280844  0.7154180805824666  1.0000
  N   N6        1.0  0.5170114932892885  0.26840799139206695  0.2845823659817697  1.0000
  N   N7        1.0  0.51701790736049  0.2315910723785279  0.7845838879665692  1.0000
  N   N8        1.0  0.0170143151528919  0.7684070661058728  0.21541527946204306  1.0000
  N   N9        1.0  0.49693442814955807  0.7335427738596465  0.15448652818644604  1.0000
  N   N10       1.0  0.9969400568061175  0.2664602110708785  0.8455117618178108  1.0000
  N   N11       1.0  0.9969346405403667  0.2335422842372311  0.3455161328788279  1.0000
  N   N12       1.0  0.496936471609729  0.7664597827189966  0.6544840758121424  1.0000
  N   N13       1.0  0.6215560274770909  0.8782024869492279  0.2256468413295636  1.0000
  N   N14       1.0  0.12156160032304796  0.1218004972129521  0.7743521349595428  1.0000
  N   N15       1.0  0.12155670866003022  0.37820135397375054  0.2743546585025172  1.0000
  N   N16       1.0  0.6215597948702509  0.6218025481415808  0.7256462364676396  1.0000
  O   O1        1.0  0.6957527141133822  0.016181118027901703  0.6110054795645823  1.0000
  O   O2        1.0  0.19574331730877503  0.9838192937976377  0.3889997566994197  1.0000
  O   O3        1.0  0.19575232301361467  0.516181530919461  0.8889989272704142  1.0000
  O   O4        1.0  0.6957437084315288  0.48381979889972365  0.1109986342644689  1.0000
  O   O5        1.0  0.6991633497764909  0.023044138921619595  0.7551387606946278  1.0000
  O   O6        1.0  0.1991648472761511  0.9769471016281699  0.24486966714499667  1.0000
  O   O7        1.0  0.19916713230460908  0.523050317163289  0.7448668920447403  1.0000
  O   O8        1.0  0.6991644375919108  0.4769482671363717  0.2551300236863909  1.0000
  O   O9        1.0  0.8125805932980796  0.9070121571121988  0.8749605193198775  1.0000
  O   O10       1.0  0.3125806751692365  0.09298027899752981  0.1250445033607974  1.0000
  O   O11       1.0  0.3125832283613263  0.40701866765743944  0.6250427778155443  1.0000
  O   O12       1.0  0.8125814129358844  0.5929792762618222  0.3749545701239043  1.0000
  O   O13       1.0  0.9467018161250561  0.7339634971904729  0.8920395632152494  1.0000
  O   O14       1.0  0.4466958748656324  0.2660329390435905  0.1079594582107291  1.0000
  O   O15       1.0  0.4467034218197625  0.23397014703567723  0.6079622499757419  1.0000
  O   O16       1.0  0.9466965177080907  0.7660308790076726  0.3920380505603874  1.0000
  O   O17       1.0  0.18155438762747167  0.7863246969823193  0.5085877587514035  1.0000
  O   O18       1.0  0.6815572952261133  0.21367384420434388  0.4914123869782117  1.0000
  O   O19       1.0  0.6815627835155524  0.28632393539446355  0.9914149730259326  1.0000
  O   O20       1.0  0.1815612662695969  0.7136755237722882  0.008584533129955203  1.0000
  O   O21       1.0  0.32459626326960495  0.5428090017941187  0.21875842481247085  1.0000
  O   O22       1.0  0.8245860766972798  0.4571843816943615  0.781241459423221  1.0000
  O   O23       1.0  0.8245822173223588  0.0428191339368951  0.2812440216326523  1.0000
  O   O24       1.0  0.32458325866660687  0.9571825111920944  0.7187558626022224  1.0000
  O   O25       1.0  0.32792161783249435  0.6210234496550342  0.35074119337625115  1.0000
  O   O26       1.0  0.8279208750746179  0.37897544976043923  0.6492580451997938  1.0000
  O   O27       1.0  0.8279172993235235  0.12103098640142919  0.14926093966494852  1.0000
  O   O28       1.0  0.3279139509316379  0.8789734207743864  0.8507382989105567  1.0000
  O   O29       1.0  0.46394553163540303  0.7785722616445909  0.42788647896180987  1.0000
  O   O30       1.0  0.9639536403086524  0.22143247847405687  0.5721118713486109  1.0000
  O   O31       1.0  0.9639562572044794  0.27857033002244697  0.07211350723606101  1.0000
  O   O32       1.0  0.46395415739618073  0.7214344101021268  0.927886761745917  1.0000
  O   O33       1.0  0.6357640837509919  0.9237216838388989  0.4064965716996767  1.0000
  O   O34       1.0  0.1357671235446389  0.0762785812070419  0.5935023786212384  1.0000
  O   O35       1.0  0.13576239697157888  0.4237312054688972  0.09350728152599432  1.0000
  O   O36       1.0  0.6357643132653763  0.5762773212196565  0.9064948665858524  1.0000
  O   O37       1.0  0.5219658508907017  0.9497546890326661  0.0219563309488819  1.0000
  O   O38       1.0  0.021965535474024002  0.050251723234694616  0.9780409087325808  1.0000
  O   O39       1.0  0.0219687731485081  0.44975373071100233  0.4780431511312743  1.0000
  O   O40       1.0  0.5219671102671127  0.5502499276617742  0.5219572863545352  1.0000
