data_image0
_chemical_formula_structural       Zn8H32C80Br8O42
_chemical_formula_sum              "Zn8 H32 C80 Br8 O42"
_cell_length_a       23.860105417467135
_cell_length_b       23.86145930981658
_cell_length_c       23.859852975661624
_cell_angle_alpha    66.85629081748523
_cell_angle_beta     72.33829314484717
_cell_angle_gamma    107.66994803499702

_space_group_name_H-M_alt    "P 1"
_space_group_IT_number       1

loop_
  _space_group_symop_operation_xyz
  'x, y, z'

loop_
  _atom_site_type_symbol
  _atom_site_label
  _atom_site_symmetry_multiplicity
  _atom_site_fract_x
  _atom_site_fract_y
  _atom_site_fract_z
  _atom_site_occupancy
  Zn  Zn1       1.0  0.05778104551443858  0.9581949935639072  0.4840360682269419  1.0000
  Zn  Zn2       1.0  0.05777860491960498  0.0995900512294696  0.4581934885693926  1.0000
  Zn  Zn3       1.0  0.9422144033612552  0.9840344457605285  0.4581859184969304  1.0000
  Zn  Zn4       1.0  0.942230481080038  0.9581914539840284  0.59959053717602  1.0000
  Zn  Zn5       1.0  0.9422187863966224  0.5418066870584324  0.01596462814419654  1.0000
  Zn  Zn6       1.0  0.057787034542492594  0.5159672754062684  0.04181176091846334  1.0000
  Zn  Zn7       1.0  0.9422193925792822  0.4004099942147405  0.04181138014912018  1.0000
  Zn  Zn8       1.0  0.0577683248366368  0.5418056612177011  0.9004100380234734  1.0000
  H   H1        1.0  0.9233652209105185  0.6523199904066531  0.11243413264322302  1.0000
  H   H2        1.0  0.07663234993481172  0.6124224946159701  0.15235848744687527  1.0000
  H   H3        1.0  0.9233683168731015  0.8875706579654192  0.3476453182819128  1.0000
  H   H4        1.0  0.07658503784568182  0.8476129571515758  0.3876346571104176  1.0000
  H   H5        1.0  0.0766467579656903  0.46417935679809835  0.7710514870633318  1.0000
  H   H6        1.0  0.9233742671514378  0.27101340557526027  0.9642177057887691  1.0000
  H   H7        1.0  0.07658754929475713  0.22897711076014102  0.5357929375849296  1.0000
  H   H8        1.0  0.9233668203855318  0.0357989281817123  0.728970518369728  1.0000
  H   H9        1.0  0.7352343092274863  0.46419847290766814  0.11240067487430142  1.0000
  H   H10       1.0  0.7352274106280133  0.2710190584443382  0.152362268123305  1.0000
  H   H11       1.0  0.26477254526741223  0.22898345240690796  0.34763307245024316  1.0000
  H   H12       1.0  0.2647666834999924  0.03581695207693505  0.38752932702636406  1.0000
  H   H13       1.0  0.2647750673163639  0.6123856197093289  0.9641985687365351  1.0000
  H   H14       1.0  0.2647599242885973  0.6523543202367251  0.7710109901837895  1.0000
  H   H15       1.0  0.7352409715400509  0.8476422781342523  0.7289862221615806  1.0000
  H   H16       1.0  0.7352209366542294  0.8875447004332457  0.5358141005448899  1.0000
  H   H17       1.0  0.07988955947853052  0.7005712726717733  0.24212527156639396  1.0000
  H   H18       1.0  0.9200935351942902  0.7420829040094433  0.20058292846825043  1.0000
  H   H19       1.0  0.07983142057336304  0.7578195767976511  0.2995147548339503  1.0000
  H   H20       1.0  0.9201283141620489  0.7994484186799227  0.25785322156247054  1.0000
  H   H21       1.0  0.9201049449106904  0.17798837303058695  0.8793267679651746  1.0000
  H   H22       1.0  0.07990136389138043  0.3792931618351787  0.6780225087109103  1.0000
  H   H23       1.0  0.9201273484035111  0.12067529095859446  0.8220088493182659  1.0000
  H   H24       1.0  0.07983436729313093  0.3220072129013474  0.6206786321327868  1.0000
  H   H25       1.0  0.5573122224893082  0.17798732784196852  0.24214947537272025  1.0000
  H   H26       1.0  0.5573196489853556  0.37932022862332804  0.20052311533395792  1.0000
  H   H27       1.0  0.4426816752182959  0.12070329741436583  0.2993809601990947  1.0000
  H   H28       1.0  0.44268775425547335  0.32200951205376777  0.25786905036875396  1.0000
  H   H29       1.0  0.44267524072209563  0.7421446683317611  0.6779764729010226  1.0000
  H   H30       1.0  0.4426901936054364  0.7005073941301565  0.8793178013911171  1.0000
  H   H31       1.0  0.5573061149127196  0.7993951409193302  0.6207036343081285  1.0000
  H   H32       1.0  0.5573261202024395  0.7578778899343773  0.8220170698215838  1.0000
  C   C1        1.0  0.18268132508477916  0.09135211216656103  0.4086519908023618  1.0000
  C   C2        1.0  0.9999969634757729  0.13651720815178658  0.36348653531791103  1.0000
  C   C3        1.0  0.9999871244599488  0.9086545226979935  0.4086666897542274  1.0000
  C   C4        1.0  0.8173204425952247  0.9086482784928691  0.5913546562848068  1.0000
  C   C5        1.0  7.189538471850321e-06  0.8634873780884578  0.6365152538308009  1.0000
  C   C6        1.0  0.9999931410262661  0.09134284384068544  0.5913396640333346  1.0000
  C   C7        1.0  1.8154886161736583e-06  0.59132847883582  0.0913476026220365  1.0000
  C   C8        1.0  0.9999998990850327  0.3634835142291875  0.13651467125253447  1.0000
  C   C9        1.0  0.8173173108640551  0.40864906879590274  0.09133631057446222  1.0000
  C   C10       1.0  0.9999968466628602  0.40864332821411875  0.9086746067335196  1.0000
  C   C11       1.0  0.999995576705217  0.6365136942063786  0.8634829812461647  1.0000
  C   C12       1.0  0.18267970352641047  0.5913340442739426  0.9086458965028045  1.0000
  C   C13       1.0  3.5670639773758906e-06  0.805222469688687  0.694775743685703  1.0000
  C   C14       1.0  0.9999976371299154  0.6947775610024395  0.8052225367912201  1.0000
  C   C15       1.0  0.9569224830971588  0.7769544651275168  0.7661229050582679  1.0000
  C   C16       1.0  0.043079161142735085  0.7230460045943304  0.7338746499742328  1.0000
  C   C17       1.0  0.9569219040122973  0.7230469596251154  0.8200308629862293  1.0000
  C   C18       1.0  0.0430801802649016  0.7769539497091107  0.6799663854895781  1.0000
  C   C19       1.0  0.9999959567650618  0.19477670535479064  0.30522200333344784  1.0000
  C   C20       1.0  2.678948845805827e-06  0.305224491312643  0.19477760801201066  1.0000
  C   C21       1.0  0.9569210739499566  0.1799709155589113  0.2769453012517006  1.0000
  C   C22       1.0  0.04307751789936979  0.32003127693277383  0.22305351165998388  1.0000
  C   C23       1.0  0.9569227750821127  0.23387902072597194  0.22303592892956917  1.0000
  C   C24       1.0  0.043076586523774586  0.2661213390061406  0.27696253523671993  1.0000
  C   C25       1.0  0.9999991800966866  0.628881418667696  0.12890698150935265  1.0000
  C   C26       1.0  0.9566885408638226  0.6573226045674545  0.13484937680539807  1.0000
  C   C27       1.0  0.9566687095590676  0.6922057034162066  0.16973306960014148  1.0000
  C   C28       1.0  0.999991015069653  0.6991474208167857  0.1991823401052883  1.0000
  C   C29       1.0  0.04331713327315604  0.6697065606639614  0.19224671855440073  1.0000
  C   C30       1.0  0.04330341686896575  0.6348289388530973  0.1573592892872852  1.0000
  C   C31       1.0  0.9999951229257883  0.7345308063028  0.23455895386864264  1.0000
  C   C32       1.0  0.9999919580026239  0.7654360538307258  0.2654727098653638  1.0000
  C   C33       1.0  0.9999789708052161  0.8008060057324402  0.30086272986446966  1.0000
  C   C34       1.0  0.9566672293916691  0.8302656342597461  0.30777866876221055  1.0000
  C   C35       1.0  0.9566840925539352  0.8651500382575535  0.3426607948920618  1.0000
  C   C36       1.0  0.9999799685304607  0.8710892116243515  0.37112311612448673  1.0000
  C   C37       1.0  0.04327166337901611  0.8426244315559543  0.3652049795318889  1.0000
  C   C38       1.0  0.043283903601071795  0.8077311560373489  0.3303330458848777  1.0000
  C   C39       1.0  7.805709692754199e-06  0.3710849283460577  0.8711232754988956  1.0000
  C   C40       1.0  0.043320437049629755  0.40844203731322903  0.7993745214362773  1.0000
  C   C41       1.0  0.043337103164461155  0.3735786473729591  0.7644739581066988  1.0000
  C   C42       1.0  1.0857414707705027e-05  0.3008140869170434  0.8008546928649664  1.0000
  C   C43       1.0  0.9566858587052705  0.2644319606294233  0.8736209397244393  1.0000
  C   C44       1.0  0.9567017343448538  0.29933356331144256  0.9084831726696835  1.0000
  C   C45       1.0  1.6473609179116619e-06  0.2654422379137032  0.7654679508405805  1.0000
  C   C46       1.0  0.9999939148501296  0.23454352113794383  0.7345473426173116  1.0000
  C   C47       1.0  0.9999777745262431  0.1991673497391629  0.6991648222443418  1.0000
  C   C48       1.0  0.043284492507822785  0.23555252777086372  0.626395782589192  1.0000
  C   C49       1.0  0.04327198295793973  0.2006527275728232  0.5915318197877895  1.0000
  C   C50       1.0  0.9999812224213753  0.12889794258346415  0.6288942968444927  1.0000
  C   C51       1.0  0.9566814597331044  0.09153549632306829  0.7006488026327489  1.0000
  C   C52       1.0  0.9566643974107547  0.12639745315335915  0.7355521465037  1.0000
  C   C53       1.0  0.7422089419033853  0.3710986986998536  0.12889412052516028  1.0000
  C   C54       1.0  0.7078183989698275  0.4084608839323992  0.13482392444419122  1.0000
  C   C55       1.0  0.6380549408806713  0.3736002559208273  0.1696999702088746  1.0000
  C   C56       1.0  0.6016687225742884  0.300832171964025  0.1991592042601481  1.0000
  C   C57       1.0  0.638048568990868  0.2644426123056789  0.19223940508047113  1.0000
  C   C58       1.0  0.7078144516680921  0.2993420832510623  0.15735611283643175  1.0000
  C   C59       1.0  0.5309100266439868  0.26545941221357344  0.23453515569375585  1.0000
  C   C60       1.0  0.46909015163573997  0.23455889661305926  0.2654341908526304  1.0000
  C   C61       1.0  0.3983318295764136  0.19918284947144121  0.3007970752363036  1.0000
  C   C62       1.0  0.3619495619195944  0.2355648150191385  0.3077390425463449  1.0000
  C   C63       1.0  0.2921838107491083  0.20066236241763147  0.3426289189689625  1.0000
  C   C64       1.0  0.25779211515518335  0.12891008509824084  0.37107829603719006  1.0000
  C   C65       1.0  0.29218259346180986  0.09155456082881842  0.3651203196391961  1.0000
  C   C66       1.0  0.36194732795491547  0.12641749303182334  0.33023501579157266  1.0000
  C   C67       1.0  0.25778939246848137  0.6288857419321162  0.871093450197918  1.0000
  C   C68       1.0  0.2921853533581355  0.6348113880597525  0.9084567418090117  1.0000
  C   C69       1.0  0.3619489665254248  0.669684163241307  0.8735968158161995  1.0000
  C   C70       1.0  0.39832958927830475  0.6991475603817677  0.8008268765966448  1.0000
  C   C71       1.0  0.36194412475416  0.6922277272642461  0.7644361562926533  1.0000
  C   C72       1.0  0.2921766156518401  0.6573443497314245  0.7993379048555977  1.0000
  C   C73       1.0  0.46908956257767176  0.7345330506802342  0.7654539016843671  1.0000
  C   C74       1.0  0.530909305835557  0.7654365642234994  0.7345600112032784  1.0000
  C   C75       1.0  0.601669167669044  0.8008089283960232  0.6991838626969912  1.0000
  C   C76       1.0  0.6380589247874935  0.8077512576496205  0.7355669288696517  1.0000
  C   C77       1.0  0.7078237285518081  0.8426386910445344  0.7006623048806377  1.0000
  C   C78       1.0  0.7422109943474948  0.8710858958579522  0.6289091466628136  1.0000
  C   C79       1.0  0.7078120822772572  0.8651333712292628  0.591553992519067  1.0000
  C   C80       1.0  0.6380475000017326  0.8302513047998235  0.626417036774825  1.0000
  Br  Br1       1.0  0.8962192656479643  0.8088811831691703  0.7948956405280395  1.0000
  Br  Br2       1.0  0.10378545880953975  0.6911223667476776  0.7051018630462311  1.0000
  Br  Br3       1.0  0.8962212220263408  0.6911206312992846  0.9126622557702145  1.0000
  Br  Br4       1.0  0.10378359017773416  0.80888092580571  0.5873360068961303  1.0000
  Br  Br5       1.0  0.8962181827522996  0.08734235297325893  0.3088609515761362  1.0000
  Br  Br6       1.0  0.10377928707583088  0.41265923810877336  0.1911380190665426  1.0000
  Br  Br7       1.0  0.8962256864453833  0.2051071599085218  0.19109356636308672  1.0000
  Br  Br8       1.0  0.10377937312617279  0.2948942064983768  0.3088994226998594  1.0000
  O   O1        1.0  3.9693738099987396e-08  2.4364877261999176e-06  0.4999991357636873  1.0000
  O   O2        1.0  0.15366952070465348  0.02625749135207662  0.43235640300316897  1.0000
  O   O3        1.0  0.03980312432599926  0.15381426507257603  0.38597781092556727  1.0000
  O   O4        1.0  0.9585925462737633  0.9323546306673905  0.4139743698843929  1.0000
  O   O5        1.0  0.15366981006363992  0.12742666034677086  0.4139762166330314  1.0000
  O   O6        1.0  0.04138395378633642  0.9139772075416843  0.432363670631247  1.0000
  O   O7        1.0  0.9601799605253375  0.07421507527269013  0.3859920506741829  1.0000
  O   O8        1.0  0.8463297833018042  0.9323518596031946  0.5262564134025071  1.0000
  O   O9        1.0  0.9602144181106025  0.8859895178435339  0.6538140355485355  1.0000
  O   O10       1.0  0.8463380291782839  0.9139663045739895  0.627430107753227  1.0000
  O   O11       1.0  0.039809069029537285  0.8859859805360202  0.5742151427267786  1.0000
  O   O12       1.0  0.041384850084121155  0.1274219758943218  0.526249809269494  1.0000
  O   O13       1.0  0.9586077348520731  0.026246860814069226  0.6274237633780118  1.0000
  O   O14       1.0  0.9999999599792629  0.4999990843559202  1.192120905133788e-06  1.0000
  O   O15       1.0  0.9586036885956869  0.5860091816961698  0.06765177461821995  1.0000
  O   O16       1.0  0.03982003918246582  0.42578644324429166  0.11400660165949708  1.0000
  O   O17       1.0  0.8463275494638509  0.3725722175875959  0.08602218060218543  1.0000
  O   O18       1.0  0.0414026645933843  0.5676372321891209  0.08603159634058943  1.0000
  O   O19       1.0  0.8463309192579728  0.473744452235657  0.06763147058062904  1.0000
  O   O20       1.0  0.9601918593739284  0.34618641031188707  0.11402772200033696  1.0000
  O   O21       1.0  0.9586023527748464  0.37256583070371363  0.9737646934221686  1.0000
  O   O22       1.0  0.03978414590297755  0.6140078722649776  0.8461839898299316  1.0000
  O   O23       1.0  0.041384219357489316  0.4737373712420451  0.8725911290027353  1.0000
  O   O24       1.0  0.9601989775660726  0.6140203735057174  0.9257840214348362  1.0000
  O   O25       1.0  0.15367170552061524  0.5676364856336137  0.9737413584794937  1.0000
  O   O26       1.0  0.15366290929749457  0.586018888484432  0.872567816165734  1.0000
  O   O27       1.0  0.08591060670772757  0.6748927347644341  0.2195262070782888  1.0000
  O   O28       1.0  0.9140767528704854  0.7194793182567738  0.17490561696513396  1.0000
  O   O29       1.0  0.08586173377901923  0.7804340756414948  0.3251807330088423  1.0000
  O   O30       1.0  0.9140911382393992  0.8251020162142028  0.28047748026119723  1.0000
  O   O31       1.0  0.914088646778694  0.19456538945528482  0.9110281927171258  1.0000
  O   O32       1.0  0.08592503339561826  0.41098962070993406  0.6946053093257162  1.0000
  O   O33       1.0  0.9140903701928949  0.08898373092801386  0.8054214413099742  1.0000
  O   O34       1.0  0.08586441416881026  0.30542573724486033  0.5889815082176283  1.0000
  O   O35       1.0  0.6055907833609452  0.1945716490986271  0.2195341777529052  1.0000
  O   O36       1.0  0.6055977994056219  0.41101352201769703  0.1748641118435259  1.0000
  O   O37       1.0  0.39440312835557717  0.08900858661498029  0.32505405419953354  1.0000
  O   O38       1.0  0.3944098105580807  0.3054320257724826  0.2804651209775741  1.0000
  O   O39       1.0  0.3943961430179922  0.7195239542580723  0.6945626546014765  1.0000
  O   O40       1.0  0.3944114791764404  0.6748441990843619  0.9110133459661965  1.0000
  O   O41       1.0  0.6055847428300039  0.825070737101946  0.5890065797256979  1.0000
  O   O42       1.0  0.6056058973424211  0.7804779543904061  0.8054363087669216  1.0000
