data_image0
_chemical_formula_structural       H56Rh4C68N4O16
_chemical_formula_sum              "H56 Rh4 C68 N4 O16"
_cell_length_a       10.25667575959408
_cell_length_b       10.457802890318963
_cell_length_c       15.530608462068438
_cell_angle_alpha    78.73153124451193
_cell_angle_beta     81.40379161867493
_cell_angle_gamma    86.12234273430747

_space_group_name_H-M_alt    "P 1"
_space_group_IT_number       1

loop_
  _space_group_symop_operation_xyz
  'x, y, z'

loop_
  _atom_site_type_symbol
  _atom_site_label
  _atom_site_symmetry_multiplicity
  _atom_site_fract_x
  _atom_site_fract_y
  _atom_site_fract_z
  _atom_site_occupancy
  H   H1        1.0  0.11737924494785551  0.0446362336747868  0.0332035633528207  1.0000
  H   H2        1.0  0.882619364700659  0.9553610322044934  0.96679736056101  1.0000
  H   H3        1.0  0.22136857765335097  0.8476286306784363  0.9747108307471705  1.0000
  H   H4        1.0  0.7786309454313668  0.15237057139420074  0.025292328031618183  1.0000
  H   H5        1.0  0.3115211486439194  0.8689600464924754  0.8165522983501674  1.0000
  H   H6        1.0  0.6884775783866814  0.13103427776072613  0.1834515695075324  1.0000
  H   H7        1.0  0.28543515012808734  0.07924385031635241  0.7120467930369114  1.0000
  H   H8        1.0  0.714559705184243  0.9207485409686386  0.28795513292277514  1.0000
  H   H9        1.0  0.1780571298647615  0.27288390573249893  0.7696122174261573  1.0000
  H   H10       1.0  0.8219367359954008  0.7271085009169342  0.23038722909927145  1.0000
  H   H11       1.0  0.2665118192872598  0.488634562899833  0.22310923571591695  1.0000
  H   H12       1.0  0.7334917960078046  0.5113607496187457  0.7768908002164918  1.0000
  H   H13       1.0  0.4555734264001643  0.5591038544767529  0.2846541526971293  1.0000
  H   H14       1.0  0.5444270405729201  0.44089634016146584  0.7153455647789642  1.0000
  H   H15       1.0  0.6341715068205006  0.6826688636320386  0.18252896770599134  1.0000
  H   H16       1.0  0.365830934019705  0.3173313217113859  0.8174718430037584  1.0000
  H   H17       1.0  0.6259500443949975  0.7347348505859731  0.020674818850004273  1.0000
  H   H18       1.0  0.37405137318273773  0.26526630803905255  0.9793266115032252  1.0000
  H   H19       1.0  0.434417443465442  0.6665213362853423  0.9600261795183087  1.0000
  H   H20       1.0  0.5655838592488182  0.33348275324873106  0.03997423970848498  1.0000
  H   H21       1.0  0.46056042013393755  0.005152821492394802  0.19720674195194476  1.0000
  H   H22       1.0  0.5394380721324978  0.9948473860129712  0.8027912380180167  1.0000
  H   H23       1.0  0.3530610498673283  0.947015017972362  0.07699723495456816  1.0000
  H   H24       1.0  0.6469385813645873  0.05298128177000901  0.923001780770832  1.0000
  H   H25       1.0  0.14587260413622263  0.8235907653847366  0.11556445200798746  1.0000
  H   H26       1.0  0.8541259666647747  0.17640747984579264  0.8844357053487072  1.0000
  H   H27       1.0  0.0481975301330877  0.7581505503103118  0.271724383801768  1.0000
  H   H28       1.0  0.9518019144170611  0.24185061403716904  0.7282765975902805  1.0000
  H   H29       1.0  0.156893762475967  0.8152525959626544  0.39264977226286385  1.0000
  H   H30       1.0  0.8431045422691669  0.18475247972016015  0.6073495291012704  1.0000
  H   H31       1.0  0.4315103014865755  0.4577807010095043  0.4515099912120417  1.0000
  H   H32       1.0  0.5684940372047862  0.5422214265969246  0.5484916681620645  1.0000
  H   H33       1.0  0.3137196536168076  0.6654881638877016  0.48180292605324837  1.0000
  H   H34       1.0  0.68628077870644  0.3345129922400361  0.5181992462281073  1.0000
  H   H35       1.0  0.09197810204648252  0.6577663597256206  0.571739628230574  1.0000
  H   H36       1.0  0.9080233526997006  0.34223382669285485  0.4282612801348335  1.0000
  H   H37       1.0  0.9883617304755749  0.44513338650283896  0.6332274079570013  1.0000
  H   H38       1.0  0.011636724622412898  0.554867793209077  0.3667710940007892  1.0000
  H   H39       1.0  0.10926137820024452  0.23770402725504172  0.6055074545407138  1.0000
  H   H40       1.0  0.890739049085788  0.7622971503067718  0.3944908521057754  1.0000
  H   H41       1.0  0.710098830870429  0.444517090580753  0.18197739728558554  1.0000
  H   H42       1.0  0.2899026543279107  0.5554821522099544  0.8180178349121687  1.0000
  H   H43       1.0  0.5666650973468635  0.318209499710953  0.31307213682141105  1.0000
  H   H44       1.0  0.43333809818134483  0.6817965535202081  0.6869252654348654  1.0000
  H   H45       1.0  0.8838244557784237  0.06275945157468502  0.36786106510238165  1.0000
  H   H46       1.0  0.11617104439563523  0.9372417170730002  0.6321403069122695  1.0000
  H   H47       1.0  0.11175944262082281  0.2289266773176806  0.17096912380781498  1.0000
  H   H48       1.0  0.8882370056392759  0.7710754660338496  0.8290320282665318  1.0000
  H   H49       1.0  0.0854754359107659  0.07842368792569235  0.24557159242917947  1.0000
  H   H50       1.0  0.9145270024108357  0.921576508134777  0.7544272854631372  1.0000
  H   H51       1.0  0.1312200467296591  0.336431875272247  0.30254255887298587  1.0000
  H   H52       1.0  0.8687814831929473  0.663566363160783  0.6974579497892462  1.0000
  H   H53       1.0  0.2549657696280363  0.21151801748232665  0.2889355656729577  1.0000
  H   H54       1.0  0.7450358371500699  0.7884782658205584  0.7110658318310497  1.0000
  H   H55       1.0  0.1174853636863702  0.18060266501880318  0.3733587490676412  1.0000
  H   H56       1.0  0.8825161670757709  0.8193955698418803  0.6266424038670664  1.0000
  Rh  Rh1       1.0  0.9637436640382688  0.4349674216450553  0.07233710616721814  1.0000
  Rh  Rh2       1.0  0.036257749341785904  0.5650337548417073  0.9276611028236272  1.0000
  Rh  Rh3       1.0  0.5794343981335074  0.06378085052421771  0.4456433156054658  1.0000
  Rh  Rh4       1.0  0.42056500505051997  0.9362213038915429  0.5543549664120205  1.0000
  C   C1        1.0  0.09191781962130112  0.2887532441410913  0.9402876489604566  1.0000
  C   C2        1.0  0.9080817769607707  0.711244017090799  0.05971382157020593  1.0000
  C   C3        1.0  0.1443822910080144  0.17037091344759153  0.9052354027106018  1.0000
  C   C4        1.0  0.8556173064135919  0.8296263442119454  0.09476671209253597  1.0000
  C   C5        1.0  0.1545866663369253  0.05038401078080311  0.9631884590027936  1.0000
  C   C6        1.0  0.8454118672956316  0.9496152066562756  0.036812220341737034  1.0000
  C   C7        1.0  0.21324588599916444  0.941892870052094  0.9307728111407272  1.0000
  C   C8        1.0  0.786754659508489  0.058105362311295004  0.06922908372210654  1.0000
  C   C9        1.0  0.2623599282575669  0.9531613901450344  0.8409570315804299  1.0000
  C   C10       1.0  0.7376366348660142  0.046837822297455  0.15904513162035264  1.0000
  C   C11       1.0  0.2486823748329741  0.07144775293679831  0.7823187295959002  1.0000
  C   C12       1.0  0.7513115323933093  0.928543663644348  0.21768341630409785  1.0000
  C   C13       1.0  0.1890065127152027  0.17964739358525614  0.8142909974101613  1.0000
  C   C14       1.0  0.8109890998037272  0.8203508548704264  0.18570945291349258  1.0000
  C   C15       1.0  0.22208919137325012  0.5384447172506841  0.05394388944119297  1.0000
  C   C16       1.0  0.7779122980227698  0.46155450767828654  0.9460545641189523  1.0000
  C   C17       1.0  0.3396331450186736  0.5735590494706956  0.08827104060093657  1.0000
  C   C18       1.0  0.6603673599623932  0.4264401693886273  0.9117287991598104  1.0000
  C   C19       1.0  0.3462133157940386  0.5418827224934972  0.1796040009846678  1.0000
  C   C20       1.0  0.6537891596960037  0.4581165013604221  0.820394354919827  1.0000
  C   C21       1.0  0.4518412114879524  0.5813349668838583  0.21341540917418914  1.0000
  C   C22       1.0  0.5481602795871369  0.4186642509004131  0.7865843329309142  1.0000
  C   C23       1.0  0.5518997816738606  0.6510483576570752  0.15619470520233847  1.0000
  C   C24       1.0  0.4481036444208328  0.3489518301836513  0.8438053635792926  1.0000
  C   C25       1.0  0.546824915337382  0.6810912462130293  0.06498914799055906  1.0000
  C   C26       1.0  0.45317547813834846  0.3189108892659506  0.9350122577336676  1.0000
  C   C27       1.0  0.4405458314826305  0.6432136005441366  0.030858618725893888  1.0000
  C   C28       1.0  0.5594545974824713  0.3567875698729851  0.9691409764655532  1.0000
  C   C29       1.0  0.37933897095614116  0.9487231315718534  0.37341262538750897  1.0000
  C   C30       1.0  0.6206604710754108  0.05127804349266541  0.6265864231871062  1.0000
  C   C31       1.0  0.3147675734663338  0.9143187951477643  0.3019280345620743  1.0000
  C   C32       1.0  0.6852318305572354  0.08568335569565022  0.6980708917278945  1.0000
  C   C33       1.0  0.36995650969735283  0.9515721460013967  0.21294613619642888  1.0000
  C   C34       1.0  0.6300419834086172  0.0484280579316234  0.787052488046008  1.0000
  C   C35       1.0  0.30966442373041053  0.9186592647093125  0.14606517444317993  1.0000
  C   C36       1.0  0.6903331601370298  0.0813389851686139  0.85393443629669  1.0000
  C   C37       1.0  0.19395304316045528  0.8492010304386783  0.16750897589968616  1.0000
  C   C38       1.0  0.8060464377186067  0.1507991652745986  0.8324908392320649  1.0000
  C   C39       1.0  0.13869366138787603  0.8118948072097185  0.2560237018117846  1.0000
  C   C40       1.0  0.8613048333971633  0.18810538957860956  0.7439762109756101  1.0000
  C   C41       1.0  0.1987579644191726  0.8438024636982677  0.3233166009621016  1.0000
  C   C42       1.0  0.8012414024359487  0.156200659351704  0.676682847315689  1.0000
  C   C43       1.0  0.3520590051801734  0.21286039512273897  0.5127069917719567  1.0000
  C   C44       1.0  0.6479394524364184  0.787140773872139  0.4872934430032671  1.0000
  C   C45       1.0  0.27710909585074023  0.33573027064896627  0.526539006212431  1.0000
  C   C46       1.0  0.7228932698130422  0.6642718626799181  0.47346220420049406  1.0000
  C   C47       1.0  0.3341934569350684  0.45638896007339014  0.4909093135204969  1.0000
  C   C48       1.0  0.6658099336702535  0.5436121928291942  0.5090925657939065  1.0000
  C   C49       1.0  0.2683078024186827  0.5718601670899163  0.5077034259016955  1.0000
  C   C50       1.0  0.7316955873470975  0.428140989385014  0.49229780914023286  1.0000
  C   C51       1.0  0.1439269658980109  0.56744385661807  0.5589763205458808  1.0000
  C   C52       1.0  0.8560744905272418  0.43255632265572075  0.44102587636448476  1.0000
  C   C53       1.0  0.08589271543014831  0.44778633786804545  0.5938664626811841  1.0000
  C   C54       1.0  0.9141077143744881  0.5522148289767301  0.40613377678273815  1.0000
  C   C55       1.0  0.1523303825637257  0.3320215157936418  0.5781636772823119  1.0000
  C   C56       1.0  0.8476690611468954  0.6679796521261852  0.4218366598372611  1.0000
  C   C57       1.0  0.7494396637222424  0.3600918453153384  0.22462167690221682  1.0000
  C   C58       1.0  0.25056182483424294  0.6399073831859781  0.7753761323854461  1.0000
  C   C59       1.0  0.6701958139085564  0.29049567104549123  0.2958789962519147  1.0000
  C   C60       1.0  0.32980650954956303  0.709507455924019  0.704118870513966  1.0000
  C   C61       1.0  0.8461996653222672  0.15016999220157604  0.3266937240766054  1.0000
  C   C62       1.0  0.1537987154388318  0.8498331319234467  0.6733058218568289  1.0000
  C   C63       1.0  0.9284616456802796  0.22097970220502827  0.2556692844193975  1.0000
  C   C64       1.0  0.0715379500622575  0.7790175625992007  0.7443315418387825  1.0000
  C   C65       1.0  0.0727253137997295  0.1849264369277677  0.23909684758461217  1.0000
  C   C66       1.0  0.9272761772753668  0.8150727808565037  0.7609028945204839  1.0000
  C   C67       1.0  0.148469650721843  0.23101874072823134  0.3049584362840179  1.0000
  C   C68       1.0  0.8515308939462757  0.7689794952075034  0.6950428143063405  1.0000
  N   N1        1.0  0.877485473073705  0.3248761056463324  0.20281067910899955  1.0000
  N   N2        1.0  0.1225140449738049  0.6751231178603876  0.7971886140349226  1.0000
  N   N3        1.0  0.7177842296202499  0.18244567965464142  0.3462071695437884  1.0000
  N   N4        1.0  0.2822171854388813  0.8175554896874292  0.6537923279920077  1.0000
  O   O1        1.0  0.03913762201045762  0.2738808107476629  0.021636710385138286  1.0000
  O   O2        1.0  0.9608649328536885  0.7261164472590736  0.9783644671785793  1.0000
  O   O3        1.0  0.10594637110668972  0.3980909253557527  0.8858715899383468  1.0000
  O   O4        1.0  0.8940540206899713  0.6019112172679187  0.11412852724092194  1.0000
  O   O5        1.0  0.140349790077174  0.4642345625173263  0.10871691132360436  1.0000
  O   O6        1.0  0.8596546567613856  0.5357646627588437  0.8912806049971137  1.0000
  O   O7        1.0  0.2089971265208419  0.5875496486363831  0.9731014224187078  1.0000
  O   O8        1.0  0.7910023129920988  0.4124515371451737  0.026895693338474237  1.0000
  O   O9        1.0  0.4788980102538147  0.021844125087859812  0.3503536913184746  1.0000
  O   O10       1.0  0.5211024938877175  0.978155097343816  0.649645504169797  1.0000
  O   O11       1.0  0.330548630163058  0.9013541964488921  0.4535615463392446  1.0000
  O   O12       1.0  0.6694507738605041  0.09864795439452932  0.546437379950717  1.0000
  O   O13       1.0  0.45866410565191273  0.22425457311093325  0.4572789795220017  1.0000
  O   O14       1.0  0.541334349446075  0.7757466066009827  0.5427195224357888  1.0000
  O   O15       1.0  0.3070517673919612  0.10502059909591574  0.5584761112956682  1.0000
  O   O16       1.0  0.6929486244046998  0.8949815435277559  0.4415240058836005  1.0000
