data_image0
_chemical_formula_structural       Hg2H32C36N4Cl4O4
_chemical_formula_sum              "Hg2 H32 C36 N4 Cl4 O4"
_cell_length_a       9.080051190280699
_cell_length_b       10.335393471750407
_cell_length_c       10.893255454281826
_cell_angle_alpha    86.07720884033708
_cell_angle_beta     67.400160091076
_cell_angle_gamma    73.2781207921568

_space_group_name_H-M_alt    "P 1"
_space_group_IT_number       1

loop_
  _space_group_symop_operation_xyz
  'x, y, z'

loop_
  _atom_site_type_symbol
  _atom_site_label
  _atom_site_symmetry_multiplicity
  _atom_site_fract_x
  _atom_site_fract_y
  _atom_site_fract_z
  _atom_site_occupancy
  Hg  Hg1       1.0  0.13972965499384313  0.3171493073159866  0.3168270664307968  1.0000
  Hg  Hg2       1.0  0.8602680393962884  0.6828505097345997  0.6831753163450217  1.0000
  H   H1        1.0  0.38397435782994177  0.42737982712363726  0.08187832738196478  1.0000
  H   H2        1.0  0.6160245212246452  0.5726199869945175  0.9181227510252082  1.0000
  H   H3        1.0  0.591820716571135  0.3818464339046201  0.8445851407702776  1.0000
  H   H4        1.0  0.4081790217325434  0.6181543825248214  0.15541651094434875  1.0000
  H   H5        1.0  0.6115934709325329  0.1801416084428951  0.7165487626425672  1.0000
  H   H6        1.0  0.388409674716037  0.819856167926055  0.28345013652374007  1.0000
  H   H7        1.0  0.42413960835343534  0.0349429883442269  0.8282091041618712  1.0000
  H   H8        1.0  0.5758611576712483  0.9650547969669959  0.17179148887217355  1.0000
  H   H9        1.0  0.2102427295208216  0.040863085407124786  0.18015119405960428  1.0000
  H   H10       1.0  0.7897599337689484  0.9591326680197484  0.8198498284708434  1.0000
  H   H11       1.0  0.06259024602724136  0.13359963185803994  0.11118418918029249  1.0000
  H   H12       1.0  0.937408297317006  0.8664011905812499  0.8888178520334405  1.0000
  H   H13       1.0  0.9840168251644319  0.9620063437039049  0.25208965380127757  1.0000
  H   H14       1.0  0.0159809952841812  0.0379965107647138  0.7479097386778619  1.0000
  H   H15       1.0  0.8501216647377632  0.783507581243768  0.3333434079741194  1.0000
  H   H16       1.0  0.14987924793537388  0.21649323533065973  0.6666560245023305  1.0000
  H   H17       1.0  0.13868252282760096  0.559410284788619  0.956490825737262  1.0000
  H   H18       1.0  0.861319269684614  0.4405915279422742  0.04351100978572478  1.0000
  H   H19       1.0  0.27942081670499147  0.7422074105250189  0.8747708918313393  1.0000
  H   H20       1.0  0.7205746550047039  0.25779544365364154  0.12523293912416722  1.0000
  H   H21       1.0  0.6847096567511386  0.6413470605005925  0.32585126015065674  1.0000
  H   H22       1.0  0.3152943790314993  0.3586517089474057  0.6741509569317187  1.0000
  H   H23       1.0  0.8428685278327208  0.5770512761947941  0.39261709522369864  1.0000
  H   H24       1.0  0.15713412516206654  0.42294448030949633  0.6073830124372107  1.0000
  H   H25       1.0  0.5070034933896178  0.5048439337548061  0.34160241510775086  1.0000
  H   H26       1.0  0.4930000728478063  0.49515588402068295  0.6583888714771574  1.0000
  H   H27       1.0  0.4378918563694326  0.28630535109640926  0.4003383256954649  1.0000
  H   H28       1.0  0.5621098331928776  0.7136964924086017  0.599654361132117  1.0000
  H   H29       1.0  0.6501245324397329  0.08830412521117381  0.4412189636045126  1.0000
  H   H30       1.0  0.349870384846234  0.9116967275672963  0.5587805866283587  1.0000
  H   H31       1.0  0.9257795054983262  0.11781303291228801  0.41227057205180984  1.0000
  H   H32       1.0  0.07421577838294979  0.8821868023128089  0.5877307599831311  1.0000
  C   C1        1.0  0.39765448585242763  0.34212113235446406  0.020692049242924785  1.0000
  C   C2        1.0  0.6023491730399043  0.6578786577243249  0.9793074711678427  1.0000
  C   C3        1.0  0.5111011357356432  0.31710259905978694  0.8896555675186448  1.0000
  C   C4        1.0  0.4889008149534886  0.6828951833190049  0.11034372114676226  1.0000
  C   C5        1.0  0.5218437036647855  0.20527501762865094  0.81868467698866  1.0000
  C   C6        1.0  0.4781613701338471  0.7947207176237113  0.18131739628266533  1.0000
  C   C7        1.0  0.41865343665410376  0.12335015619201072  0.8803404287524542  1.0000
  C   C8        1.0  0.5813461344111417  0.8766476351290532  0.11966055378069027  1.0000
  C   C9        1.0  0.3079460050014475  0.1547514667899605  0.012412389743943136  1.0000
  C   C10       1.0  0.6920552742670052  0.8452483322310941  0.987588824534569  1.0000
  C   C11       1.0  0.19274368107352297  0.0714819726692895  0.08622400779628239  1.0000
  C   C12       1.0  0.807256392940495  0.9285178354390241  0.9137766811117912  1.0000
  C   C13       1.0  0.14162722586005558  0.8637485827452879  0.05747831384585567  1.0000
  C   C14       1.0  0.8583706151785365  0.13625426556850329  0.9425229083723677  1.0000
  C   C15       1.0  0.019619774564091693  0.8750572533999159  0.18547861407359525  1.0000
  C   C16       1.0  0.9803792408439517  0.1249455950588612  0.8145203889064447  1.0000
  C   C17       1.0  0.9415385908760426  0.7725745196423404  0.23164727636866184  1.0000
  C   C18       1.0  0.05846110624767675  0.22742630909675648  0.7683507158678039  1.0000
  C   C19       1.0  0.9866068383618084  0.6586706864806471  0.1494283582906135  1.0000
  C   C20       1.0  0.013390866323320011  0.3413291274925285  0.8505749393547432  1.0000
  C   C21       1.0  0.10728375356988107  0.6480715527361837  0.020021990062538457  1.0000
  C   C22       1.0  0.8927123998554902  0.3519292817227893  0.9799808301493939  1.0000
  C   C23       1.0  0.1841403969053985  0.749873541411162  0.9745443560980078  1.0000
  C   C24       1.0  0.8158601903523817  0.2501282804069831  0.025456954054533208  1.0000
  C   C25       1.0  0.7965380121192568  0.5582772729965555  0.317400612133518  1.0000
  C   C26       1.0  0.2034651335293134  0.44172050337238744  0.682598287032782  1.0000
  C   C27       1.0  0.7534311422603964  0.426336491439315  0.3434201964704755  1.0000
  C   C28       1.0  0.24657046242339922  0.5736623023380216  0.6565791401319457  1.0000
  C   C29       1.0  0.597766392145182  0.4171441668938129  0.35705519699565985  1.0000
  C   C30       1.0  0.4022353283021048  0.5828576673789598  0.6429402344405445  1.0000
  C   C31       1.0  0.5585372595704641  0.2950899360276225  0.39088830737179586  1.0000
  C   C32       1.0  0.4414632556223879  0.704911907332409  0.6091065986939697  1.0000
  C   C33       1.0  0.6756539743424881  0.18502041032090935  0.4121977702263776  1.0000
  C   C34       1.0  0.3243421276079206  0.8149804395251291  0.5878004756378559  1.0000
  C   C35       1.0  0.829749890838478  0.20016624082844464  0.39540206142400075  1.0000
  C   C36       1.0  0.17024810837703094  0.7998325771332446  0.6045966139366356  1.0000
  N   N1        1.0  0.29898099662094063  0.2625731161491771  0.08084170271715149  1.0000
  N   N2        1.0  0.7010202723525153  0.7374266859492878  0.9191585966918224  1.0000
  N   N3        1.0  0.8677707293132357  0.31715555831284087  0.359985134986857  1.0000
  N   N4        1.0  0.13222968041112185  0.6828432414743374  0.6400145911146565  1.0000
  Cl  Cl1       1.0  0.20257504981123728  0.523234746795957  0.3510723227810004  1.0000
  Cl  Cl2       1.0  0.7974243630770917  0.4767670748772159  0.6489312066097239  1.0000
  Cl  Cl3       1.0  0.24422704677654386  0.0997379519269046  0.4128251645967892  1.0000
  Cl  Cl4       1.0  0.7557718528680154  0.9002618560364296  0.5871777435494678  1.0000
  O   O1        1.0  0.22865500301124803  0.9565523997637725  0.003957410941701763  1.0000
  O   O2        1.0  0.7713450504127904  0.0434474144993686  0.996041448227295  1.0000
  O   O3        1.0  0.9221926583308147  0.549530884152361  0.18653285015049895  1.0000
  O   O4        1.0  0.07780981589707638  0.45046890885885194  0.8134679746289136  1.0000
