data_image0
_chemical_formula_structural       Cd2H52C44N8O8
_chemical_formula_sum              "Cd2 H52 C44 N8 O8"
_cell_length_a       7.606125897637741
_cell_length_b       9.998759607838982
_cell_length_c       15.01284906006215
_cell_angle_alpha    89.99991913537761
_cell_angle_beta     90.00032769401948
_cell_angle_gamma    102.96868493345978

_space_group_name_H-M_alt    "P 1"
_space_group_IT_number       1

loop_
  _space_group_symop_operation_xyz
  'x, y, z'

loop_
  _atom_site_type_symbol
  _atom_site_label
  _atom_site_symmetry_multiplicity
  _atom_site_fract_x
  _atom_site_fract_y
  _atom_site_fract_z
  _atom_site_occupancy
  Cd  Cd1       1.0  0.259845336914985  0.8589297945303469  0.5556060451818683  1.0000
  Cd  Cd2       1.0  0.7401553851982355  0.1410721182255728  0.0556053703415742  1.0000
  H   H1        1.0  0.24856848587264577  0.6647905306052307  0.3826436118618446  1.0000
  H   H2        1.0  0.7514262133656543  0.33520515411637325  0.8826395232045385  1.0000
  H   H3        1.0  0.0083721776420305  0.6359034792037123  0.24036182469563983  1.0000
  H   H4        1.0  0.9916178867178331  0.36409532266257116  0.7403584014220146  1.0000
  H   H5        1.0  0.7513707283157982  0.9114370719549928  0.4692846728478486  1.0000
  H   H6        1.0  0.24863264209714936  0.08856679691125183  0.9692820268326799  1.0000
  H   H7        1.0  0.8311964518048001  0.025491804513713103  0.38011691019586646  1.0000
  H   H8        1.0  0.1688072267748524  0.9745120843716893  0.8801145521627306  1.0000
  H   H9        1.0  0.9669893498736498  0.0281559677589485  0.4767043675272689  1.0000
  H   H10       1.0  0.033015418593592444  0.9718478979570336  0.9767029529534739  1.0000
  H   H11       1.0  0.7383858369668843  0.9046420984312676  0.2617970586410152  1.0000
  H   H12       1.0  0.26160841225838277  0.0953566941818877  0.761797108160259  1.0000
  H   H13       1.0  0.7864128431771744  0.7763129535129353  0.1914221370056381  1.0000
  H   H14       1.0  0.21358455490545228  0.22368585187110313  0.6914199319435355  1.0000
  H   H15       1.0  0.4723533773856942  0.7144868312004108  0.2499582371025824  1.0000
  H   H16       1.0  0.5276454827033348  0.2855057995943185  0.7499575460396601  1.0000
  H   H17       1.0  0.5535208281617228  0.7274977428350481  0.3609206306326129  1.0000
  H   H18       1.0  0.44647878705822547  0.2725020481908729  0.8609197177038441  1.0000
  H   H19       1.0  0.6416746094324566  0.5252543716626406  0.22282381168773926  1.0000
  H   H20       1.0  0.3583386103297741  0.4747433834445971  0.7228184623778234  1.0000
  H   H21       1.0  0.7005288262556064  0.5322848802813382  0.33701274526781333  1.0000
  H   H22       1.0  0.2994760809818473  0.4677159373003193  0.8370059006706969  1.0000
  H   H23       1.0  0.3736292076925238  0.47249561213212127  0.3785067575714862  1.0000
  H   H24       1.0  0.6263726255586022  0.5275021193324038  0.878505462403183  1.0000
  H   H25       1.0  0.3143249505615699  0.4651801727174742  0.26441240911835007  1.0000
  H   H26       1.0  0.6856854045954176  0.5348196291260477  0.7644126102697655  1.0000
  H   H27       1.0  0.5460228592057773  0.2853275593366149  0.35137633220988823  1.0000
  H   H28       1.0  0.4539833161581726  0.7146681205523038  0.8513763666947727  1.0000
  H   H29       1.0  0.4635137738455626  0.2708612745327842  0.24086488446650386  1.0000
  H   H30       1.0  0.5364881251342409  0.7291375148797457  0.7408658094308153  1.0000
  H   H31       1.0  0.28139846524612727  0.09213716613386679  0.33798217973331657  1.0000
  H   H32       1.0  0.718606853725163  0.9078605709403291  0.8379847972590326  1.0000
  H   H33       1.0  0.23680165409164286  0.2164609748315556  0.412321045958393  1.0000
  H   H34       1.0  0.7632072285563324  0.7835326350951705  0.9123205757456321  1.0000
  H   H35       1.0  0.012604470151181593  0.3603217526048327  0.3688825328601055  1.0000
  H   H36       1.0  0.9874044351608615  0.6396780269196185  0.8688781780434953  1.0000
  H   H37       1.0  0.7700421182485966  0.3398322963193935  0.22796367919306704  1.0000
  H   H38       1.0  0.22995569214024403  0.6601665002996171  0.7279571235543473  1.0000
  H   H39       1.0  0.038220497712494306  0.9740487717704129  0.1261355588768964  1.0000
  H   H40       1.0  0.9617669634189312  0.025950058866371296  0.6261343586851071  1.0000
  H   H41       1.0  0.18590358376098942  0.9765527059984294  0.21830481806908614  1.0000
  H   H42       1.0  0.8140853181373232  0.023443022255158003  0.7183031947466675  1.0000
  H   H43       1.0  0.2532541872722973  0.0904048550023475  0.1283283968929396  1.0000
  H   H44       1.0  0.7467373377891349  0.9095898644226423  0.628327097307654  1.0000
  H   H45       1.0  0.7983244820560101  0.6611806116108455  0.5417108151144986  1.0000
  H   H46       1.0  0.20168042698465877  0.33881822009350776  0.0417110717045119  1.0000
  H   H47       1.0  0.9627507921277496  0.4730722654811074  0.5519330489290583  1.0000
  H   H48       1.0  0.03724937568120616  0.5269234889789871  0.0519293284785292  1.0000
  H   H49       1.0  0.7866704604891412  0.22773793632485004  0.5630620414562415  1.0000
  H   H50       1.0  0.21332124169220618  0.7722598776597565  0.0630599349433325  1.0000
  H   H51       1.0  0.29215700872090616  0.36679158682373725  0.5552785986051845  1.0000
  H   H52       1.0  0.7078415938908762  0.6332164879285501  0.05527804445974031  1.0000
  C   C1        1.0  0.14102918551199656  0.7165487549302372  0.3691136894801517  1.0000
  C   C2        1.0  0.8589629407571169  0.28345206865282796  0.8691159530434123  1.0000
  C   C3        1.0  0.023353654500425536  0.7008409890199516  0.2989269826108155  1.0000
  C   C4        1.0  0.9766412220003816  0.29916292756279017  0.7989255741551275  1.0000
  C   C5        1.0  0.9631123702594946  0.8582828392051951  0.39234757383543684  1.0000
  C   C6        1.0  0.03688851315551739  0.1417200231856768  0.8923456011853619  1.0000
  C   C7        1.0  0.8728722636797384  0.9612913308821829  0.43179627112303365  1.0000
  C   C8        1.0  0.1271323987973005  0.0387094653323956  0.9317959853021023  1.0000
  C   C9        1.0  0.754882597908086  0.798349336028096  0.2604449561933606  1.0000
  C   C10       1.0  0.24512074009703613  0.2016535538927684  0.7604415300291479  1.0000
  C   C11       1.0  0.5838038998923449  0.6991048111597992  0.2926771449903214  1.0000
  C   C12       1.0  0.4161972693922279  0.30089396719466066  0.7926754526353861  1.0000
  C   C13       1.0  0.5966968746195394  0.5488180103655439  0.2896924560618857  1.0000
  C   C14       1.0  0.40331113712312583  0.45118178815488363  0.7896885901613686  1.0000
  C   C15       1.0  0.418592882848472  0.44918145642405716  0.3116134675072573  1.0000
  C   C16       1.0  0.5814134528863234  0.5508162856055635  0.8116126874856492  1.0000
  C   C17       1.0  0.4330147057235507  0.2991332903932146  0.3091616575401304  1.0000
  C   C18       1.0  0.5669877555888972  0.7008603497604043  0.8091613641593298  1.0000
  C   C19       1.0  0.2642395126626766  0.19809902077461317  0.3421551983038498  1.0000
  C   C20       1.0  0.7357636254751085  0.8018956377656608  0.8421552982611973  1.0000
  C   C21       1.0  0.9947892186851985  0.29730949517107064  0.3094355669345462  1.0000
  C   C22       1.0  0.005212235900891856  0.7026851725887227  0.8094316552653353  1.0000
  C   C23       1.0  0.8745091826916251  0.28480954796253133  0.24050511205802394  1.0000
  C   C24       1.0  0.12548522698362768  0.7151861694850938  0.7404988709999856  1.0000
  C   C25       1.0  0.049427601607860076  0.14257657377229546  0.2124520184303194  1.0000
  C   C26       1.0  0.9505674051186473  0.8574222293078151  0.7124486895836172  1.0000
  C   C27       1.0  0.13668511852306858  0.0408770510355225  0.16924120555091093  1.0000
  C   C28       1.0  0.8633051531223401  0.9591207402195252  0.6692388640545418  1.0000
  C   C29       1.0  0.43027962441465917  0.6363310659918683  0.5476598666554865  1.0000
  C   C30       1.0  0.5697307211350021  0.3636769982556914  0.0476571640725965  1.0000
  C   C31       1.0  0.5347016026900347  0.5256471555413283  0.5490768543001466  1.0000
  C   C32       1.0  0.4653002638565623  0.4743588639855147  0.04907574745517001  1.0000
  C   C33       1.0  0.7237330427618572  0.5548976055678024  0.5468310371305876  1.0000
  C   C34       1.0  0.2762679810862706  0.4451012290190732  0.04683207700653471  1.0000
  C   C35       1.0  0.8153753097106102  0.4484299952908728  0.5521126939217496  1.0000
  C   C36       1.0  0.18462223149032297  0.5515657618664065  0.0521113736568068  1.0000
  C   C37       1.0  0.7182143442194542  0.3123954986649835  0.5583426131808765  1.0000
  C   C38       1.0  0.2817786190380146  0.6876023150813141  0.058341447776634005  1.0000
  C   C39       1.0  0.5286113012680714  0.2819896722197441  0.5584003044152367  1.0000
  C   C40       1.0  0.4713802521088938  0.7180122494578003  0.058400323353417605  1.0000
  C   C41       1.0  0.43893886822014844  0.3891851545353902  0.5542017223628621  1.0000
  C   C42       1.0  0.5610604275183633  0.6108208665024151  0.054202764249836805  1.0000
  C   C43       1.0  0.4199916606859587  0.1371484680527288  0.5630782073361118  1.0000
  C   C44       1.0  0.579994688190929  0.8628534579835617  0.0630804043385993  1.0000
  N   N1        1.0  0.10370508225152973  0.8147385649935545  0.4264857786851906  1.0000
  N   N2        1.0  0.8962952727948447  0.18526121030473772  0.9264842434492524  1.0000
  N   N3        1.0  0.9119616040566  0.7904222726513978  0.3144282772889255  1.0000
  N   N4        1.0  0.0880384001336196  0.20958060843051388  0.814427721812166  1.0000
  N   N5        1.0  0.10447138223828739  0.20753083055581104  0.2908895446747408  1.0000
  N   N6        1.0  0.8955310812010138  0.7924679468571371  0.790888115258767  1.0000
  N   N7        1.0  0.9082549627034809  0.1880566284626397  0.1810221585417437  1.0000
  N   N8        1.0  0.09173807052130196  0.8119411572259311  0.6810190618250332  1.0000
  O   O1        1.0  0.2633463324908547  0.6045197736521857  0.5672202184932332  1.0000
  O   O2        1.0  0.7366648428447391  0.3954903385052972  0.06721996585188351  1.0000
  O   O3        1.0  0.5125661902535725  0.7589508466214171  0.5276150993107649  1.0000
  O   O4        1.0  0.48744756754651053  0.24105619202270395  0.027610274096737403  1.0000
  O   O5        1.0  0.5023153972167904  0.0421219703796964  0.5809011025565239  1.0000
  O   O6        1.0  0.49767378142227153  0.9578799486406382  0.08090364116963401  1.0000
  O   O7        1.0  0.250626169355435  0.1137477221747645  0.5484218619590068  1.0000
  O   O8        1.0  0.7493595171543673  0.8862613942266507  0.0484185304819675  1.0000
