data_image0
_chemical_formula_structural       Zn4H58C84N16O16
_chemical_formula_sum              "Zn4 H58 C84 N16 O16"
_cell_length_a       16.562567386137285
_cell_length_b       17.94586427533791
_cell_length_c       31.133827160504527
_cell_angle_alpha    90.28302919434434
_cell_angle_beta     89.83597956176837
_cell_angle_gamma    89.95428816698715

_space_group_name_H-M_alt    "P 1"
_space_group_IT_number       1

loop_
  _space_group_symop_operation_xyz
  'x, y, z'

loop_
  _atom_site_type_symbol
  _atom_site_label
  _atom_site_symmetry_multiplicity
  _atom_site_fract_x
  _atom_site_fract_y
  _atom_site_fract_z
  _atom_site_occupancy
  Zn  Zn1       1.0  0.5804033716682967  0.501210468835751  0.5039916552902923  1.0000
  Zn  Zn2       1.0  0.4108025254162798  0.49404732683299113  0.5019036920947357  1.0000
  Zn  Zn3       1.0  0.41955556068084127  0.5034189416034707  0.9249833189800895  1.0000
  Zn  Zn4       1.0  0.5892507875654972  0.4963267885838506  0.9270078550127534  1.0000
  H   H1        1.0  0.2860951822993842  0.573357048354879  0.54491938056659  1.0000
  H   H2        1.0  0.1351453443804331  0.5832098371430376  0.5491930836597518  1.0000
  H   H3        1.0  0.12312894738231253  0.4032470476940376  0.456346934765932  1.0000
  H   H4        1.0  0.866013691865888  0.5925844074654308  0.5513636563366758  1.0000
  H   H5        1.0  0.7065754531292401  0.42857773454295517  0.4573423181195508  1.0000
  H   H6        1.0  0.8575674523983211  0.4185828877090785  0.45471944405407067  1.0000
  H   H7        1.0  0.6163623053878456  0.7345032517657516  0.5023981358537455  1.0000
  H   H8        1.0  0.6223395609938863  0.8733502056309348  0.5030224659958193  1.0000
  H   H9        1.0  0.3621421929997127  0.8803365212730373  0.49908088846450477  1.0000
  H   H10       1.0  0.6333033091212671  0.11442711752338401  0.4993215584790676  1.0000
  H   H11       1.0  0.38277740109018055  0.2655439989262831  0.5048863313865368  1.0000
  H   H12       1.0  0.37326269416196584  0.12650984407757454  0.5032450029383071  1.0000
  H   H13       1.0  0.39655860852614216  0.5050528110393557  0.7862474666926431  1.0000
  H   H14       1.0  0.653634335564384  0.5018607450576057  0.7963618560750589  1.0000
  H   H15       1.0  0.603230785838008  0.5045973269628022  0.642742156695597  1.0000
  H   H16       1.0  0.3461524777397429  0.5013460431884199  0.6326070660976766  1.0000
  H   H17       1.0  0.3770918223750286  0.5017028147742977  0.06204456929998509  1.0000
  H   H18       1.0  0.3699754871815699  0.5093465409195019  0.1421596417622908  1.0000
  H   H19       1.0  0.6301325401650004  0.5131407123790337  0.1463462738171799  1.0000
  H   H20       1.0  0.3696894438000129  0.5113845866218298  0.2827443097351007  1.0000
  H   H21       1.0  0.6229232442891546  0.49943562188575213  0.36681981424804627  1.0000
  H   H22       1.0  0.6298793311028348  0.5083207402599115  0.2867934773351237  1.0000
  H   H23       1.0  0.7138061942816878  0.5750123510103862  0.8841351155678367  1.0000
  H   H24       1.0  0.8647291839162464  0.5847592549431225  0.8798359407132634  1.0000
  H   H25       1.0  0.8770996829983349  0.4057488845641403  0.9722721523801353  1.0000
  H   H26       1.0  0.1339410162959638  0.5941261367724022  0.8775119170388878  1.0000
  H   H27       1.0  0.29335862842093263  0.4312745773379874  0.9714169192079254  1.0000
  H   H28       1.0  0.14236189485980333  0.4212817544300052  0.9738629053614146  1.0000
  H   H29       1.0  0.3835772112385529  0.7369227270068778  0.9257198129612545  1.0000
  H   H30       1.0  0.3776122716072621  0.8757449091421918  0.9242936974520857  1.0000
  H   H31       1.0  0.6378410104905613  0.8824383908026406  0.9276947844328729  1.0000
  H   H32       1.0  0.367012241917891  0.11675179518142188  0.928017257517247  1.0000
  H   H33       1.0  0.6173442943153163  0.2677813326370071  0.9233370265382632  1.0000
  H   H34       1.0  0.6270350499735785  0.1287249902230982  0.9240716315508378  1.0000
  H   H35       1.0  0.3437658015870895  0.3979086696198522  0.4456480437712003  1.0000
  H   H36       1.0  0.25292196352693  0.36145777873166207  0.42804373787784294  1.0000
  H   H37       1.0  0.6459291186627709  0.6178583423636823  0.5467219771894563  1.0000
  H   H38       1.0  0.7357463749779073  0.6457901332963304  0.5713437488469992  1.0000
  H   H39       1.0  0.3416115430208181  0.6798225367801295  0.4904795491702387  1.0000
  H   H40       1.0  0.29142984079410894  0.7657522911155327  0.4897159246863723  1.0000
  H   H41       1.0  0.6601596464778795  0.3149580431898116  0.5031361173018638  1.0000
  H   H42       1.0  0.7079327823237949  0.2276351163585773  0.5052009052695823  1.0000
  H   H43       1.0  0.6549897708092658  0.5065449030170582  0.0313354563622639  1.0000
  H   H44       1.0  0.7010599358959128  0.5231726803402026  0.08073676750787227  1.0000
  H   H45       1.0  0.3451308655998206  0.502744352608424  0.39769174366460897  1.0000
  H   H46       1.0  0.2988047341935243  0.5199733743923359  0.3485180833637074  1.0000
  H   H47       1.0  0.6564644798916179  0.4008436610929992  0.9831035646031978  1.0000
  H   H48       1.0  0.7473171070424274  0.36452786791118547  0.0006458312319921003  1.0000
  H   H49       1.0  0.35399750395184537  0.6194177430310364  0.8823700253212436  1.0000
  H   H50       1.0  0.2641971287284763  0.6470396953524614  0.8577011175458222  1.0000
  H   H51       1.0  0.6584050786424811  0.6822918823557843  0.9376707281494275  1.0000
  H   H52       1.0  0.7085404911833281  0.7681640937650798  0.9378054593553315  1.0000
  H   H53       1.0  0.33994745287741074  0.31732465258208015  0.925615854129539  1.0000
  H   H54       1.0  0.2922186398065351  0.23004357215151575  0.923022117127118  1.0000
  H   H55       1.0  0.309611113634837  0.4764900445418618  0.7456374614392658  1.0000
  H   H56       1.0  0.26868178618678235  0.4845627432410781  0.6963569172753026  1.0000
  H   H57       1.0  0.6901831601577159  0.47619753706480594  0.6832333806967129  1.0000
  H   H58       1.0  0.7311093794023266  0.48449315081339955  0.7325461356663892  1.0000
  C   C1        1.0  0.4893658172538764  0.6456868739972492  0.5001106711265422  1.0000
  C   C2        1.0  0.48334860349130804  0.5043511784886477  0.5861894432187142  1.0000
  C   C3        1.0  0.5105232573982051  0.351600526349131  0.5042507067431714  1.0000
  C   C4        1.0  0.49557500266308824  0.493995769433269  0.41774694001173157  1.0000
  C   C5        1.0  0.5106575466072699  0.6479990637851359  0.9284185589103016  1.0000
  C   C6        1.0  0.5164921729155053  0.505237088279543  0.8427784273564567  1.0000
  C   C7        1.0  0.48948608673001104  0.35384690336608327  0.9245337469025542  1.0000
  C   C8        1.0  0.5045689516916669  0.4971631110851007  0.0111377403340356  1.0000
  C   C9        1.0  0.2470759794436718  0.5374372753721703  0.5257040784658074  1.0000
  C   C10       1.0  0.1640807190003457  0.542563810404829  0.5282090136959567  1.0000
  C   C11       1.0  0.11756583304867974  0.4933715351293843  0.5025358425855657  1.0000
  C   C12       1.0  0.1574355114554535  0.4419403582838158  0.4762469770413133  1.0000
  C   C13       1.0  0.24273653402594425  0.44031930502534783  0.4753674834606088  1.0000
  C   C14       1.0  0.03213966721362032  0.496727210695859  0.5033236872092957  1.0000
  C   C15       1.0  0.9586615029784724  0.5008758862251457  0.5039771530791413  1.0000
  C   C16       1.0  0.8732371869916025  0.5047747492930765  0.5037980155043087  1.0000
  C   C17       1.0  0.832448046169418  0.5552493276416828  0.5302729061504576  1.0000
  C   C18       1.0  0.7471350731626815  0.5586221161826757  0.5292442865476941  1.0000
  C   C19       1.0  0.7447429920655042  0.46355542023675894  0.4775786942038707  1.0000
  C   C20       1.0  0.8277912702853243  0.457864650197763  0.476227224071252  1.0000
  C   C21       1.0  0.48734746282276137  0.7282792642182231  0.5004502224123684  1.0000
  C   C22       1.0  0.5609890428613441  0.7673048756235514  0.5020333592063153  1.0000
  C   C23       1.0  0.5647087823266972  0.8442370432834992  0.5022820853563204  1.0000
  C   C24       1.0  0.4919683784349473  0.885846238827064  0.5012442247419031  1.0000
  C   C25       1.0  0.4180231905115123  0.8481346724707425  0.4997519875558325  1.0000
  C   C26       1.0  0.41382856634699294  0.7697076365755678  0.4989562267331777  1.0000
  C   C27       1.0  0.4946933821066822  0.9647236920150778  0.5013757530589444  1.0000
  C   C28       1.0  0.49933197611404995  0.032662062185025306  0.501354610553328  1.0000
  C   C29       1.0  0.503364173254454  0.11150879982594829  0.5014871428630627  1.0000
  C   C30       1.0  0.5781896630955075  0.1477441706085045  0.500548324113737  1.0000
  C   C31       1.0  0.5842629662550468  0.2261277728893703  0.5007314276095086  1.0000
  C   C32       1.0  0.5116028629463544  0.26890809799976273  0.5026254876008734  1.0000
  C   C33       1.0  0.4370659694700549  0.2313017936780283  0.5034003676563188  1.0000
  C   C34       1.0  0.4315562092514824  0.15447078685532037  0.5026513897731988  1.0000
  C   C35       1.0  0.4545932741604021  0.5032879810945445  0.7697701911202657  1.0000
  C   C36       1.0  0.6006752409340097  0.5023594382456906  0.7756232895177959  1.0000
  C   C37       1.0  0.6094425711636192  0.50063176930923  0.7313098156788769  1.0000
  C   C38       1.0  0.5390259435468823  0.5019779651785756  0.7044072166552056  1.0000
  C   C39       1.0  0.5451880452536884  0.5029485108545089  0.659204413475372  1.0000
  C   C40       1.0  0.39911848581569853  0.501995257069119  0.6533434859676105  1.0000
  C   C41       1.0  0.39034769577276063  0.5005667303434366  0.6976519225411835  1.0000
  C   C42       1.0  0.46074872858455523  0.5020479641070992  0.7245638644884309  1.0000
  C   C43       1.0  0.523514216228172  0.5039422120905286  0.7948881467004653  1.0000
  C   C44       1.0  0.4762758273528435  0.5034466404714024  0.6340782176647152  1.0000
  C   C45       1.0  0.5059679590771681  0.5012937104045889  0.05877680147523279  1.0000
  C   C46       1.0  0.4320445825664836  0.5036564109057978  0.08117729037190462  1.0000
  C   C47       1.0  0.4278375365075818  0.508361718222602  0.1254906433539631  1.0000
  C   C48       1.0  0.5003583170691784  0.5117582420785709  0.14946606010861524  1.0000
  C   C49       1.0  0.5744373146597753  0.510645336884899  0.1277482712703062  1.0000
  C   C50       1.0  0.5792916198330504  0.5048751772204554  0.0827265392377896  1.0000
  C   C51       1.0  0.4993294379382789  0.5144012911627485  0.19492399953063708  1.0000
  C   C52       1.0  0.5004338479878713  0.5139984672926162  0.23414532048587935  1.0000
  C   C53       1.0  0.4994679709758145  0.5104884715235088  0.27956491919584175  1.0000
  C   C54       1.0  0.42542392214316044  0.5087215791231045  0.30129247305914925  1.0000
  C   C55       1.0  0.4206774969773832  0.5021934578932915  0.34624688376352697  1.0000
  C   C56       1.0  0.49405598912243687  0.4985502967696008  0.3701352545061667  1.0000
  C   C57       1.0  0.5679285485802269  0.5014930519551373  0.3477294388562129  1.0000
  C   C58       1.0  0.5720427887926078  0.5069005289081902  0.3034677139098321  1.0000
  C   C59       1.0  0.7528796820131378  0.5392802520752937  0.9032612462352316  1.0000
  C   C60       1.0  0.835858185948425  0.5443439013066182  0.9007335193333147  1.0000
  C   C61       1.0  0.8824646833775704  0.4954010146671593  0.9262803285383824  1.0000
  C   C62       1.0  0.842720410156602  0.4442586556740836  0.9524761455482461  1.0000
  C   C63       1.0  0.7574195166180291  0.4427307962515741  0.9534065037213537  1.0000
  C   C64       1.0  0.9678666548154741  0.49878565161923677  0.92544719036961  1.0000
  C   C65       1.0  0.041320493156831624  0.5030311543386149  0.9247273819432278  1.0000
  C   C66       1.0  0.12674025877358733  0.5069157974246823  0.924927523384163  1.0000
  C   C67       1.0  0.16752031291515124  0.5570432531016536  0.8985599575577226  1.0000
  C   C68       1.0  0.2528295319207245  0.5604331632104902  0.8996830333396061  1.0000
  C   C69       1.0  0.2552078644157731  0.4659978242617269  0.9512015602802251  1.0000
  C   C70       1.0  0.1721785867678847  0.4603002670438626  0.952457698153374  1.0000
  C   C71       1.0  0.5126295764219223  0.7305630599469097  0.9274976162821886  1.0000
  C   C72       1.0  0.4389732457709244  0.7696319392265495  0.925778585683446  1.0000
  C   C73       1.0  0.43524712686251393  0.8465593747602399  0.9250794670279915  1.0000
  C   C74       1.0  0.5079989482837918  0.8881008924564996  0.9257701058894838  1.0000
  C   C75       1.0  0.581945937475844  0.8503218781181163  0.9273112757686519  1.0000
  C   C76       1.0  0.5861426903479696  0.7719309705233854  0.9286039802094663  1.0000
  C   C77       1.0  0.5053482030866904  0.9669671469871943  0.9254233882793841  1.0000
  C   C78       1.0  0.5009584887627696  0.034923365807330214  0.9255499914983785  1.0000
  C   C79       1.0  0.49693690864340584  0.1137722587936736  0.925773315197965  1.0000
  C   C80       1.0  0.42207807212968634  0.1500503804685351  0.9269911070761692  1.0000
  C   C81       1.0  0.4159140247454261  0.22842582136593143  0.9273401342389036  1.0000
  C   C82       1.0  0.4885132946713073  0.27115818631390454  0.9256726792596055  1.0000
  C   C83       1.0  0.5631008536556695  0.23353389760755766  0.9246039878049146  1.0000
  C   C84       1.0  0.5686970112298867  0.1566929795329912  0.9248539675135419  1.0000
  N   N1        1.0  0.2862104676110562  0.4883842462308862  0.4999553091393665  1.0000
  N   N2        1.0  0.7045907525571595  0.5114802464488193  0.5035414407638257  1.0000
  N   N3        1.0  0.7138558273421225  0.49053583662657024  0.9289301201179254  1.0000
  N   N4        1.0  0.29535330091894724  0.5136426374425368  0.9253689485556577  1.0000
  N   N5        1.0  0.2834518663627393  0.3904238249958852  0.4506652734428015  1.0000
  N   N6        1.0  0.7052601070249056  0.6075524785423311  0.5538848694497743  1.0000
  N   N7        1.0  0.34008155339239476  0.7351215116539933  0.49812873115255474  1.0000
  N   N8        1.0  0.65882826311438  0.25879078340779677  0.4983054909113491  1.0000
  N   N9        1.0  0.6544312468281819  0.501521892452587  0.0638677617538193  1.0000
  N   N10       1.0  0.34560183392031263  0.49819120678519374  0.36510625091343474  1.0000
  N   N11       1.0  0.7167678671013606  0.3931677156061398  0.9780373868401069  1.0000
  N   N12       1.0  0.2946815818160645  0.6090651171795542  0.875165934547226  1.0000
  N   N13       1.0  0.6599177658601791  0.7372698573416587  0.9295615807983494  1.0000
  N   N14       1.0  0.3413290395622397  0.26113755715844184  0.9300767836299569  1.0000
  N   N15       1.0  0.3138433692347959  0.5005575716636841  0.7163040098393338  1.0000
  N   N16       1.0  0.685950679261218  0.5004458950344458  0.7126581766929192  1.0000
  O   O1        1.0  0.5569387786672025  0.6140732452578561  0.5085092134882885  1.0000
  O   O2        1.0  0.42481600993082946  0.6093806510540675  0.49133600666618077  1.0000
  O   O3        1.0  0.41765465130662  0.5138649127391588  0.5653767423128784  1.0000
  O   O4        1.0  0.5528646087077221  0.4954294453819871  0.569337119185505  1.0000
  O   O5        1.0  0.4422099514072216  0.38361161950302153  0.5087700835024762  1.0000
  O   O6        1.0  0.5779623244219112  0.38686005615732455  0.5009973101552632  1.0000
  O   O7        1.0  0.5618440227190292  0.5040942726841422  0.4373934523553514  1.0000
  O   O8        1.0  0.4279020652126563  0.4803280959302114  0.4369575181981488  1.0000
  O   O9        1.0  0.4430734545904969  0.6161396430650754  0.9202834756254459  1.0000
  O   O10       1.0  0.5752451534068258  0.6119670954092058  0.93738460947867  1.0000
  O   O11       1.0  0.5822054464215897  0.5149697634828171  0.8635765529839856  1.0000
  O   O12       1.0  0.4470177901966467  0.4964453602045681  0.8596331916645353  1.0000
  O   O13       1.0  0.5577471073042517  0.3858184694840149  0.9201679565654287  1.0000
  O   O14       1.0  0.42200083136438593  0.38913542725666167  0.9279755567825418  1.0000
  O   O15       1.0  0.4383117130622055  0.5072653963387098  0.9915188733908875  1.0000
  O   O16       1.0  0.5723556809968642  0.48375215897350926  0.9918846622981261  1.0000
