data_image0
_chemical_formula_structural       Ag4H28C28N8O16
_chemical_formula_sum              "Ag4 H28 C28 N8 O16"
_cell_length_a       7.756230043389651
_cell_length_b       10.476751671101157
_cell_length_c       12.3175609396483
_cell_angle_alpha    115.13457106996195
_cell_angle_beta     108.09890117913338
_cell_angle_gamma    90.00706378713056

_space_group_name_H-M_alt    "P 1"
_space_group_IT_number       1

loop_
  _space_group_symop_operation_xyz
  'x, y, z'

loop_
  _atom_site_type_symbol
  _atom_site_label
  _atom_site_symmetry_multiplicity
  _atom_site_fract_x
  _atom_site_fract_y
  _atom_site_fract_z
  _atom_site_occupancy
  Ag  Ag1       1.0  0.3356303008378915  0.515477124625406  0.543708239980127  1.0000
  Ag  Ag2       1.0  0.16444916543188262  0.9721223182413393  0.45639756110978863  1.0000
  Ag  Ag3       1.0  0.6643712468825882  0.4845220637267715  0.45629086610002634  1.0000
  Ag  Ag4       1.0  0.8355510257891368  0.027876869582151197  0.5436012776540196  1.0000
  H   H1        1.0  0.9300012702629558  0.3627060567450116  0.2940862422969913  1.0000
  H   H2        1.0  0.5696438326429815  0.0682506285380313  0.7058892409491193  1.0000
  H   H3        1.0  0.06999912315517777  0.6372942183835021  0.7059162723096931  1.0000
  H   H4        1.0  0.43035635662274513  0.9317485643728886  0.29411041110800795  1.0000
  H   H5        1.0  0.5975309309872187  0.9324084131531052  0.06603791943012284  1.0000
  H   H6        1.0  0.902489403506429  0.8659990541245502  0.933902554250835  1.0000
  H   H7        1.0  0.4024687438073541  0.06759504196295298  0.9339623426957715  1.0000
  H   H8        1.0  0.0975096353675298  0.13400121538784757  0.06609887974618539  1.0000
  H   H9        1.0  0.6320362217061015  0.7108048749204412  0.09089467719715566  1.0000
  H   H10       1.0  0.8681051468758979  0.6192865387539966  0.9089940419265756  1.0000
  H   H11       1.0  0.36796083647948297  0.28919217793504254  0.9091027815947397  1.0000
  H   H12       1.0  0.13189389590863235  0.38071372058354297  0.09100576548380696  1.0000
  H   H13       1.0  0.6830717663615926  0.761496286425874  0.25479110172518904  1.0000
  H   H14       1.0  0.8168250495407037  0.5062979552032658  0.7450531947770855  1.0000
  H   H15       1.0  0.31692863878824074  0.2385039581780787  0.7452065331215891  1.0000
  H   H16       1.0  0.18317713018981857  0.4937044289274368  0.2549463660185722  1.0000
  H   H17       1.0  0.970553805975271  0.6686053266836536  0.12220581411684604  1.0000
  H   H18       1.0  0.5294090343684416  0.546086178687183  0.8777067061926755  1.0000
  H   H19       1.0  0.029449306307640193  0.3313949342399595  0.8777947952425791  1.0000
  H   H20       1.0  0.4705905287530924  0.4539098031829382  0.12229005126898329  1.0000
  H   H21       1.0  0.841296532077237  0.5571492778840434  0.15572442995252075  1.0000
  H   H22       1.0  0.6585449758261247  0.40107655729055114  0.8442746560676396  1.0000
  H   H23       1.0  0.1587040752697176  0.4428520540249251  0.8442768807371408  1.0000
  H   H24       1.0  0.34145751031258686  0.5989204925922634  0.15572305869632425  1.0000
  H   H25       1.0  0.9998306314824958  0.7068634972281415  0.28231821953830394  1.0000
  H   H26       1.0  0.5001463390484702  0.4243008584061698  0.7176158394999347  1.0000
  H   H27       1.0  0.00016768290204539  0.2931399675340812  0.717683401857883  1.0000
  H   H28       1.0  0.49985479254606685  0.5756961858605221  0.2823807946543581  1.0000
  C   C1        1.0  0.9448342841192315  0.12933486409242073  0.31259113104542285  1.0000
  C   C2        1.0  0.5550271771679858  0.8164023026858513  0.687397637259643  1.0000
  C   C3        1.0  0.05516726164596255  0.8706643293471854  0.6874087883280493  1.0000
  C   C4        1.0  0.4449734282236902  0.18359903431055355  0.3126044867233303  1.0000
  C   C5        1.0  0.7987661329320868  0.11702215984524135  0.20630300482685723  1.0000
  C   C6        1.0  0.701053848022468  0.9103176197225051  0.7936700532087  1.0000
  C   C7        1.0  0.2012344744148748  0.8829791720637273  0.7936983058628044  1.0000
  C   C8        1.0  0.29894696543217236  0.08968478931663529  0.20633330673720707  1.0000
  C   C9        1.0  0.802578970002095  0.908473520100614  0.21455073968223812  1.0000
  C   C10       1.0  0.69751000243059  0.693530517611073  0.785422436242044  1.0000
  C   C11       1.0  0.19742257771837754  0.09152566825156329  0.7854483663979082  1.0000
  C   C12       1.0  0.3024890383986474  0.3064697468138958  0.21457818446165786  1.0000
  C   C13       1.0  0.08692761613049525  0.25203939183542445  0.41315611558172083  1.0000
  C   C14       1.0  0.41288576235436375  0.8385578520886195  0.5867604577838818  1.0000
  C   C15       1.0  0.913073717661156  0.7479587397362977  0.5868441944154554  1.0000
  C   C16       1.0  0.587114634974334  0.1614424128650356  0.4132404302361721  1.0000
  C   C17       1.0  0.7266147250678898  0.21742191086693194  0.15475742098462314  1.0000
  C   C18       1.0  0.7731150616424429  0.0622280529527544  0.8451927942699626  1.0000
  C   C19       1.0  0.2733874487967825  0.7825804885260508  0.8452445796909983  1.0000
  C   C20       1.0  0.22688418920505163  0.9377732784275278  0.15480824910335395  1.0000
  C   C21       1.0  0.7435068964895705  0.7582655394082991  0.18377436638677835  1.0000
  C   C22       1.0  0.7565698867298778  0.5740401629962334  0.8161298354412735  1.0000
  C   C23       1.0  0.25649214825023847  0.2417347148418116  0.8162246277302856  1.0000
  C   C24       1.0  0.24343030253584882  0.4259590299146792  0.18386981661585364  1.0000
  C   C25       1.0  0.8982636594996904  0.6674872558662555  0.18560656648977403  1.0000
  C   C26       1.0  0.6017072791788393  0.48154147135593195  0.8143449360993315  1.0000
  C   C27       1.0  0.10173559525837556  0.3325140653391684  0.8143928502968975  1.0000
  C   C28       1.0  0.39829406047866905  0.5184566449535096  0.18565293401789515  1.0000
  N   N1        1.0  0.944698261844756  0.9992578261500493  0.3149639195096226  1.0000
  N   N2        1.0  0.5553356794688112  0.6839455730767057  0.6850221242208078  1.0000
  N   N3        1.0  0.055301717402720385  0.0007402998055568001  0.6850353098778896  1.0000
  N   N4        1.0  0.4446633613604263  0.31605469134826336  0.31497849648289383  1.0000
  N   N5        1.0  0.713570954954065  0.9775006845748633  0.14763255991829274  1.0000
  N   N6        1.0  0.7864141875196393  0.8294441355548157  0.8523270994190922  1.0000
  N   N7        1.0  0.2864298643664327  0.022501709201996796  0.8523683601476575  1.0000
  N   N8        1.0  0.21358485330960514  0.17055612887015303  0.14767352128461647  1.0000
  O   O1        1.0  0.2056405036219147  0.24010878540512684  0.5022090629034963  1.0000
  O   O2        1.0  0.2943499734134889  0.7376063731061818  0.4976579304977874  1.0000
  O   O3        1.0  0.7943617705432543  0.7598872026098036  0.4977890424841717  1.0000
  O   O4        1.0  0.705650213896959  0.26239282489216004  0.5023425348526516  1.0000
  O   O5        1.0  0.08235545646045486  0.369566989366703  0.4003701095275574  1.0000
  O   O6        1.0  0.4173734456868558  0.9688896365743388  0.5996194820821188  1.0000
  O   O7        1.0  0.9176447288947073  0.630432213719068  0.5996311691162006  1.0000
  O   O8        1.0  0.5826271616600989  0.031111695334637094  0.40038182860754284  1.0000
  O   O9        1.0  0.8150895131896192  0.34907359032714413  0.21449882078284332  1.0000
  O   O10       1.0  0.684542682128942  0.13416657780139465  0.785480082242465  1.0000
  O   O11       1.0  0.18491088022851435  0.6509266848013694  0.7855036938238412  1.0000
  O   O12       1.0  0.3154590736545089  0.8658336825935252  0.21452025980061507  1.0000
  O   O13       1.0  0.5858985186435812  0.1796949909549709  0.059137746926481216  1.0000
  O   O14       1.0  0.9138653554973074  0.12003301252637746  0.9407602498106371  1.0000
  O   O15       1.0  0.41410073220391297  0.8203063404253114  0.9408632964468282  1.0000
  O   O16       1.0  0.0861338973054727  0.8799683137664827  0.05923998026935344  1.0000
