data_image0
_chemical_formula_structural       Ni2P4H36C40N6O12
_chemical_formula_sum              "Ni2 P4 H36 C40 N6 O12"
_cell_length_a       10.801791915724001
_cell_length_b       10.942296820181625
_cell_length_c       11.226279687192472
_cell_angle_alpha    64.02657178127235
_cell_angle_beta     66.2472660472222
_cell_angle_gamma    72.53970546019156

_space_group_name_H-M_alt    "P 1"
_space_group_IT_number       1

loop_
  _space_group_symop_operation_xyz
  'x, y, z'

loop_
  _atom_site_type_symbol
  _atom_site_label
  _atom_site_symmetry_multiplicity
  _atom_site_fract_x
  _atom_site_fract_y
  _atom_site_fract_z
  _atom_site_occupancy
  Ni  Ni1       1.0  0.06803816478277722  0.026020593284158594  0.24572559132177924  1.0000
  Ni  Ni2       1.0  0.9319608190246953  0.9739832420486109  0.7542736936516684  1.0000
  P   P1        1.0  0.8568084218501255  0.679361640629196  0.004004537804824618  1.0000
  P   P2        1.0  0.14319245857986831  0.32063600519149554  0.9959931087366339  1.0000
  P   P3        1.0  0.8795735187605658  0.8415212477735282  0.5673710289687288  1.0000
  P   P4        1.0  0.12042301947195712  0.1584784882947332  0.43263007966496736  1.0000
  H   H1        1.0  0.04650543982864262  0.546019193561058  0.05568682168456712  1.0000
  H   H2        1.0  0.9534990444616939  0.4539815103238852  0.9443072170020339  1.0000
  H   H3        1.0  0.8963978573933885  0.6583146779216376  0.761969263578649  1.0000
  H   H4        1.0  0.10359969103891592  0.3416850451583784  0.23802967618493645  1.0000
  H   H5        1.0  0.31530522585352116  0.8405896163246354  0.3416763789732114  1.0000
  H   H6        1.0  0.6846933421874155  0.15941012640010394  0.6583283911872397  1.0000
  H   H7        1.0  0.4154182123867827  0.5920459337608506  0.36948110363248765  1.0000
  H   H8        1.0  0.5845766037082143  0.4079517791116487  0.6305268897073258  1.0000
  H   H9        1.0  0.35479907335330546  0.4854779825991288  0.24563325715308076  1.0000
  H   H10       1.0  0.6451993403294694  0.51452276658231  0.754365795487217  1.0000
  H   H11       1.0  0.2120884252506556  0.6306970391184662  0.09019139383058675  1.0000
  H   H12       1.0  0.7879102634310511  0.3693088562642046  0.9098080105993058  1.0000
  H   H13       1.0  0.6357528556214901  0.20549115144185487  0.11711698796938204  1.0000
  H   H14       1.0  0.36424583201478816  0.7945147403149306  0.8828815276530687  1.0000
  H   H15       1.0  0.5022928238788253  0.3112584032749695  0.2981794650482213  1.0000
  H   H16       1.0  0.49770616306492593  0.6887454429354563  0.7018224863475595  1.0000
  H   H17       1.0  0.6158428641437225  0.3093599655879728  0.45351246883811286  1.0000
  H   H18       1.0  0.38415355553888736  0.6906336250741277  0.5464957831410329  1.0000
  H   H19       1.0  0.8611714633277643  0.19648743111117986  0.42503448887902073  1.0000
  H   H20       1.0  0.13882710262232223  0.8035123043617957  0.5749685036665466  1.0000
  H   H21       1.0  0.6517100344833722  0.7958780201083329  0.6670648499750126  1.0000
  H   H22       1.0  0.3482909950776473  0.2041186011262326  0.33293407004939  1.0000
  H   H23       1.0  0.666107810240014  0.9553370319285576  0.5273289977047282  1.0000
  H   H24       1.0  0.3338888729418272  0.044661665050036  0.4726698291821448  1.0000
  H   H25       1.0  0.8566101861290958  0.6025721440646307  0.5250409623938737  1.0000
  H   H26       1.0  0.14339069743718366  0.3974255126337169  0.4749593505699108  1.0000
  H   H27       1.0  0.5754186564722303  0.9553317846804037  0.3695004068183887  1.0000
  H   H28       1.0  0.4245874102334355  0.04467199961940338  0.6304934729461419  1.0000
  H   H29       1.0  0.8577821494813946  0.50568070086031  0.36355373059094376  1.0000
  H   H30       1.0  0.14222320215026227  0.49432103637783337  0.6364421985872537  1.0000
  H   H31       1.0  0.5800180256879486  0.860765401280581  0.20316447207891744  1.0000
  H   H32       1.0  0.4199915200555823  0.1392352739220044  0.7968276103315401  1.0000
  H   H33       1.0  0.6270031401445451  0.6493877712749165  0.14563102043182835  1.0000
  H   H34       1.0  0.37300075493967466  0.35061705633572876  0.8543641459750968  1.0000
  H   H35       1.0  0.7460443780728382  0.506610418764943  0.2089622755125048  1.0000
  H   H36       1.0  0.25395895002296237  0.4933913335720277  0.791035324983596  1.0000
  C   C1        1.0  0.2992723330197648  0.7891125366290692  0.28614803121889293  1.0000
  C   C2        1.0  0.700721741601818  0.21089031367758793  0.7138571499359753  1.0000
  C   C3        1.0  0.35318224701839546  0.6524030927736105  0.30088624199038333  1.0000
  C   C4        1.0  0.6468115599222486  0.34759463671301216  0.6991248090269904  1.0000
  C   C5        1.0  0.3212797392214455  0.5940005614285653  0.23045292004535856  1.0000
  C   C6        1.0  0.6787165080670121  0.4060012491931388  0.7695518632745572  1.0000
  C   C7        1.0  0.24205533810492602  0.6745468483527898  0.14302781361651995  1.0000
  C   C8        1.0  0.7579411789553204  0.3254600903407265  0.8569728774557742  1.0000
  C   C9        1.0  0.19499888900602264  0.8118581563236732  0.13081576011338547  1.0000
  C   C10       1.0  0.8049993839091415  0.18814364645097464  0.8691891295035172  1.0000
  C   C11       1.0  0.10009722529358095  0.9063722715317654  0.052854624336823905  1.0000
  C   C12       1.0  0.8999078576117086  0.0936243412604512  0.9471462858964371  1.0000
  C   C13       1.0  0.9093386762041362  0.08159377628678038  0.07325945133259629  1.0000
  C   C14       1.0  0.09066060377453067  0.9184080026219659  0.9267406029918627  1.0000
  C   C15       1.0  0.8207439997378999  0.15276886930537603  0.17085654583275553  1.0000
  C   C16       1.0  0.1792557244975654  0.8472298249673428  0.829144662518203  1.0000
  C   C17       1.0  0.6837567881195169  0.20928646084563948  0.18374076242175608  1.0000
  C   C18       1.0  0.31624293402509807  0.7907122261753087  0.8162586683143114  1.0000
  C   C19       1.0  0.6093865844008733  0.26733715119205925  0.28516428672275385  1.0000
  C   C20       1.0  0.39060968719613953  0.7326574676820456  0.7148435805808968  1.0000
  C   C21       1.0  0.6722190160678636  0.2656107939192153  0.3726470177671429  1.0000
  C   C22       1.0  0.32777871312200796  0.7343807382082731  0.6273625011152146  1.0000
  C   C23       1.0  0.808200151540163  0.2041083455085442  0.35685743365091566  1.0000
  C   C24       1.0  0.19180102715188244  0.7958872511399023  0.6431427598564311  1.0000
  C   C25       1.0  0.7128836501514826  0.8466292228558671  0.5580517311673032  1.0000
  C   C26       1.0  0.28711490848061066  0.15337048723591104  0.44194503972616406  1.0000
  C   C27       1.0  0.7140054182142634  0.7850860040690578  0.4610431071930631  1.0000
  C   C28       1.0  0.2859943007940657  0.2149126720742345  0.5389536571206788  1.0000
  C   C29       1.0  0.7927062963164958  0.6579701989143416  0.4574196519331577  1.0000
  C   C30       1.0  0.2072939896802524  0.34203155250262535  0.5425746782914157  1.0000
  C   C31       1.0  0.6367768189389693  0.8559405089367758  0.36906039004173125  1.0000
  C   C32       1.0  0.3632269534136228  0.14405815876416742  0.6309383644808687  1.0000
  C   C33       1.0  0.7930810972421085  0.6033792552852475  0.36600689806462566  1.0000
  C   C34       1.0  0.2069236853102723  0.3966193994274505  0.6339896875878634  1.0000
  C   C35       1.0  0.6378957403870658  0.8022514505404459  0.27645630536347426  1.0000
  C   C36       1.0  0.3621077326580532  0.1977492627068571  0.723539013385796  1.0000
  C   C37       1.0  0.7155996053563028  0.6746439536916142  0.2741652323741944  1.0000
  C   C38       1.0  0.284403006620053  0.32535574795781486  0.7258335287281381  1.0000
  C   C39       1.0  0.7231211624369748  0.6193691837628634  0.1701406263142004  1.0000
  C   C40       1.0  0.2768843362348505  0.38063152163738323  0.8298547987320571  1.0000
  N   N1        1.0  0.22033203233839782  0.8659419042612339  0.20517014853972884  1.0000
  N   N2        1.0  0.7796656735883545  0.13405682323973883  0.7948371751663427  1.0000
  N   N3        1.0  0.010668295485721941  0.9900820532031391  0.11895619471681569  1.0000
  N   N4        1.0  0.9893303890142705  0.0099238276759976  0.881039654483302  1.0000
  N   N5        1.0  0.8806443487249139  0.1495576426150862  0.25823350850013327  1.0000
  N   N6        1.0  0.11935320388909794  0.8504420949684715  0.7417689864932197  1.0000
  O   O1        1.0  0.8214123552166724  0.833330181034839  0.9370612279507848  1.0000
  O   O2        1.0  0.17859010762865773  0.1666705452007093  0.0629362596686036  1.0000
  O   O3        1.0  0.8499305934982357  0.9375681633125483  0.6440202667814386  1.0000
  O   O4        1.0  0.15006740128172416  0.0624284823832042  0.35598160462353673  1.0000
  O   O5        1.0  0.9847990959394296  0.869169495450869  0.4235877784759335  1.0000
  O   O6        1.0  0.015201640586674602  0.1308291930853756  0.5764130386197974  1.0000
  O   O7        1.0  0.9935884843614391  0.6448976424997993  0.0411490204073031  1.0000
  O   O8        1.0  0.006417012219529291  0.3551030556486765  0.9588446270240706  1.0000
  O   O9        1.0  0.8683285918119523  0.5934638330371129  0.9207721302105721  1.0000
  O   O10       1.0  0.1316709822470585  0.40653588219583975  0.0792269158500005  1.0000
  O   O11       1.0  0.9262018004787008  0.6858576060519894  0.6557486294569868  1.0000
  O   O12       1.0  0.07379184269493777  0.3141410972583643  0.34424870477324265  1.0000
