data_image0
_chemical_formula_structural       Mn2H56C56N16Cl4
_chemical_formula_sum              "Mn2 H56 C56 N16 Cl4"
_cell_length_a       7.657365475176014
_cell_length_b       12.63478426
_cell_length_c       14.2575
_cell_angle_alpha    90.0
_cell_angle_beta     105.7968089410088
_cell_angle_gamma    90.0

_space_group_name_H-M_alt    "P 1"
_space_group_IT_number       1

loop_
  _space_group_symop_operation_xyz
  'x, y, z'

loop_
  _atom_site_type_symbol
  _atom_site_label
  _atom_site_symmetry_multiplicity
  _atom_site_fract_x
  _atom_site_fract_y
  _atom_site_fract_z
  _atom_site_occupancy
  Mn  Mn1       1.0  4.0715667708e-06  7.914658298000002e-07  0.9999998939042387  1.0000
  Mn  Mn2       1.0  0.0  0.5000006228836043  0.5  1.0000
  H   H1        1.0  0.1901896697469567  0.8053077749979709  0.15358567659018973  1.0000
  H   H2        1.0  0.8098142726154265  0.30531110944350814  0.3464169338259495  1.0000
  H   H3        1.0  0.8098088438597344  0.19469188783758545  0.846414035950943  1.0000
  H   H4        1.0  0.1901923841248063  0.6946901363237077  0.6535839692941323  1.0000
  H   H5        1.0  0.0979157520502625  0.766415935621204  0.3296397828415323  1.0000
  H   H6        1.0  0.9020854759342711  0.2664153127375997  0.1703624307149596  1.0000
  H   H7        1.0  0.9020827615564286  0.23358451868018196  0.6703599296996003  1.0000
  H   H8        1.0  0.0979225379948829  0.7335835586321267  0.8296393722201858  1.0000
  H   H9        1.0  0.7143048165259245  0.9735939883788731  0.14870392761256576  1.0000
  H   H10       1.0  0.28569776864753743  0.4735949484269213  0.35129848437375  1.0000
  H   H11       1.0  0.2856950542696878  0.0264080488541723  0.8512973861288629  1.0000
  H   H12       1.0  0.7143048165259245  0.5264086717377765  0.6487039276125657  1.0000
  H   H13       1.0  0.7565418930035719  0.8001244652831119  0.35971320926527994  1.0000
  H   H14       1.0  0.24345933498096875  0.30012542533116726  0.1402883029059723  1.0000
  H   H15       1.0  0.24345933498096875  0.199875989018274  0.6402876015207327  1.0000
  H   H16       1.0  0.7565459645703426  0.6998766119018782  0.8597124017842859  1.0000
  H   H17       1.0  0.651851053848894  0.9179349454123555  0.30328872130030504  1.0000
  H   H18       1.0  0.3481501741356468  0.41793590546041065  0.1967113881004749  1.0000
  H   H19       1.0  0.3481501741356468  0.08206550888903051  0.696713492256187  1.0000
  H   H20       1.0  0.651851053848894  0.5820685061701241  0.803287318529833  1.0000
  H   H21       1.0  0.8488728126350364  0.09186543878509922  0.3453458519359955  1.0000
  H   H22       1.0  0.151122986593812  0.5918660616687106  0.15465556790119453  1.0000
  H   H23       1.0  0.1511257009716545  0.9081350155162868  0.6546559647608492  1.0000
  H   H24       1.0  0.8488741698239579  0.40813518409850513  0.8453453489805797  1.0000
  H   H25       1.0  0.966659167709281  0.8049840654738674  0.5138340336522873  1.0000
  H   H26       1.0  0.0333366315195676  0.3049842340560858  0.9861680875701353  1.0000
  H   H27       1.0  0.0333420602752597  0.1950155973616887  0.4861681799041975  1.0000
  H   H28       1.0  0.966659167709281  0.6950162202453003  0.013832630881822216  1.0000
  H   H29       1.0  0.44662508802225176  0.09015428966255713  0.05368103905739473  1.0000
  H   H30       1.0  0.5533883546625944  0.5901438320245589  0.4463173492856427  1.0000
  H   H31       1.0  0.5533883546625944  0.9098580366262611  0.9463180506708755  1.0000
  H   H32       1.0  0.4466128733219463  0.4098589966743162  0.5536841628856166  1.0000
  H   H33       1.0  0.6206777814728424  0.17179082407221102  0.23520442166674374  1.0000
  H   H34       1.0  0.3793220893227698  0.6717835322975247  0.2647940865337404  1.0000
  H   H35       1.0  0.3793248037006194  0.8282167534216356  0.7647965875490998  1.0000
  H   H36       1.0  0.6206737099060717  0.3282153390722016  0.73520663191821  1.0000
  H   H37       1.0  0.0778578569548927  0.0962826095773792  0.22616361488892525  1.0000
  H   H38       1.0  0.9221460854074905  0.5962840239268132  0.27382987751914817  1.0000
  H   H39       1.0  0.9221501569742612  0.9037154703265174  0.7738332783495707  1.0000
  H   H40       1.0  0.07784835663242967  0.40371405597708343  0.7261671355768016  1.0000
  H   H41       1.0  0.2608992126435652  0.20669921593105303  0.37033944126423535  1.0000
  H   H42       1.0  0.7390979437742047  0.7066950900196859  0.12965376037995216  1.0000
  H   H43       1.0  0.7391006581520472  0.7932996554386734  0.6296576641657765  1.0000
  H   H44       1.0  0.2608910695100306  0.2932942837600905  0.8703396534557515  1.0000
  H   H45       1.0  0.4905735797320006  0.23755213688151852  0.37960510323134866  1.0000
  H   H46       1.0  0.5094249338746906  0.737546428038492  0.12039180376883961  1.0000
  H   H47       1.0  0.5094262910636118  0.7624514832831792  0.6203948077396078  1.0000
  H   H48       1.0  0.4905667937873872  0.26244611160459647  0.879604111082223  1.0000
  H   H49       1.0  0.6033247639013268  0.1842073399993325  0.5456008416635498  1.0000
  H   H50       1.0  0.3966669637607509  0.6842016311563057  0.9543978787284504  1.0000
  H   H51       1.0  0.3966764640832139  0.815794697233713  0.4543992677372303  1.0000
  H   H52       1.0  0.6033139063899426  0.31578774262347054  0.045601358380650936  1.0000
  H   H53       1.0  0.3072485715583894  0.9600092688879799  0.33349476627092406  1.0000
  H   H54       1.0  0.6927458704815379  0.4600031057435744  0.16650575375119567  1.0000
  H   H55       1.0  0.6927540136150725  0.03999276834505851  0.6665048401744471  1.0000
  H   H56       1.0  0.3072404284248478  0.5399862680362091  0.8334949784624472  1.0000
  C   C1        1.0  0.0770381148453012  0.8327882600505918  0.1793041525429757  1.0000
  C   C2        1.0  0.9229644703281605  0.33278842863281005  0.3206982594433399  1.0000
  C   C3        1.0  0.9229617559503109  0.167212985716624  0.8206957584279808  1.0000
  C   C4        1.0  0.07703947203422247  0.6672112342027461  0.6793029482023343  1.0000
  C   C5        1.0  0.0337370022518968  0.8134321717338153  0.2653933787085521  1.0000
  C   C6        1.0  0.9662669401104862  0.313431548850204  0.23460923170758724  1.0000
  C   C7        1.0  0.9662628685437156  0.18656828256757055  0.7346065322624045  1.0000
  C   C8        1.0  0.0337397166297464  0.6865673225195223  0.7653930741829671  1.0000
  C   C9        1.0  0.8308004849342439  0.9214862525875845  0.17204390756193533  1.0000
  C   C10       1.0  0.1692007430502969  0.4214864211698029  0.32795760460931683  1.0000
  C   C11       1.0  0.1691993858613685  0.0785165761112907  0.8279574061794934  1.0000
  C   C12       1.0  0.8308018421231651  0.5785164075290652  0.6720420018360542  1.0000
  C   C13       1.0  0.7830518642396453  0.8796105870350672  0.3359482482924961  1.0000
  C   C14       1.0  0.2169493637448952  0.37961154708311545  0.16405326387875627  1.0000
  C   C15       1.0  0.2169493637448952  0.1203898672663186  0.6640525624935236  1.0000
  C   C16       1.0  0.7830545786174881  0.6203896986841002  0.8359472423816713  1.0000
  C   C17       1.0  0.8938717685713087  0.942276476986713  0.42128357444052983  1.0000
  C   C18       1.0  0.10612945941322487  0.4422774370347682  0.07871723634549  1.0000
  C   C19       1.0  0.10612945941322487  0.05772318584884321  0.5787179377307227  1.0000
  C   C20       1.0  0.8938717685713087  0.5577238087324474  0.9212835744405299  1.0000
  C   C21       1.0  0.9155664335080189  0.0515078046928181  0.41334132475808627  1.0000
  C   C22       1.0  0.0844320800986793  0.5515084275764295  0.08666049193875841  1.0000
  C   C23       1.0  0.0844347944765218  0.948491858142738  0.5866601874131732  1.0000
  C   C24       1.0  0.9155664335080189  0.4484920267249564  0.9133413247580793  1.0000
  C   C25       1.0  0.9793203831734303  0.8906974403692731  0.5084244455353331  1.0000
  C   C26       1.0  0.020678130433260798  0.3906976089514985  0.9915773711615118  1.0000
  C   C27       1.0  0.020680844811103292  0.1093030139321129  0.49157706663592654  1.0000
  C   C28       1.0  0.9793190259845089  0.6093028453498874  0.008424247105502046  1.0000
  C   C29       1.0  0.3941697361421389  0.10219802518416543  0.11628421445610833  1.0000
  C   C30       1.0  0.6058355634091726  0.6021899419436565  0.3837136846932055  1.0000
  C   C31       1.0  0.6058369205980937  0.8978111352413409  0.8837145845082688  1.0000
  C   C32       1.0  0.3941629501975186  0.39781130382355917  0.6162874306183994  1.0000
  C   C33       1.0  0.4836777028134307  0.14237995386238822  0.20635630615079492  1.0000
  C   C34       1.0  0.5163262395489525  0.6423718706218724  0.2936406931834555  1.0000
  C   C35       1.0  0.5163289539268021  0.8576276236314586  0.7936424928135823  1.0000
  C   C36       1.0  0.483669559679889  0.35762700074785414  0.7063593238832554  1.0000
  C   C37       1.0  0.20018536616602484  0.10436426715844502  0.20247197636348352  1.0000
  C   C38       1.0  0.7998199333852796  0.6043617241787375  0.29752311724489294  1.0000
  C   C39       1.0  0.7998226477631292  0.895638561540423  0.7975256182602521  1.0000
  C   C40       1.0  0.200175865843562  0.3956363557251593  0.7024747956661201  1.0000
  C   C41       1.0  0.3892214253282944  0.1737014225836901  0.36232980822251193  1.0000
  C   C42       1.0  0.610778445467318  0.6736972966723229  0.137667297207507  1.0000
  C   C43       1.0  0.6107825170340887  0.8263006146493552  0.6376699966526901  1.0000
  C   C44       1.0  0.3892119250058386  0.32629445150494263  0.862329821984197  1.0000
  C   C45       1.0  0.4488264484556197  0.08221034713575652  0.431940118256165  1.0000
  C   C46       1.0  0.5511707079621502  0.5822062212243893  0.06805869446991152  1.0000
  C   C47       1.0  0.5511774939067706  0.9177901071656295  0.5680589852338046  1.0000
  C   C48       1.0  0.4488128765663859  0.417783152555387  0.9319416408840839  1.0000
  C   C49       1.0  0.5567107531464898  0.1033646458162778  0.5261592338525816  1.0000
  C   C50       1.0  0.443282331704509  0.603358936973251  0.9738389835840098  1.0000
  C   C51       1.0  0.4432904748380508  0.8966365999509378  0.4738401741629589  1.0000
  C   C52       1.0  0.5567012528240269  0.39663122827235503  0.026161351769985738  1.0000
  C   C53       1.0  0.3925899682355762  0.9783348686952565  0.40633274415541354  1.0000
  C   C54       1.0  0.6074017594264944  0.4783302884825034  0.0936680803922982  1.0000
  C   C55       1.0  0.6074099025600359  0.0216663770719592  0.5936671668155428  1.0000
  C   C56       1.0  0.3925791107241919  0.5216598767631027  0.9063318581020426  1.0000
  N   N1        1.0  0.9498544544627165  0.9003406600311834  0.12172320916368312  1.0000
  N   N2        1.0  0.0501508450885879  0.4003400371475721  0.3782795996822799  1.0000
  N   N3        1.0  0.0501467735218171  0.09966216866769172  0.8782783030075693  1.0000
  N   N4        1.0  0.9498530972737953  0.5996612086196365  0.6217209065781546  1.0000
  N   N5        1.0  0.87616452469085  0.8700203955837083  0.2591098805635283  1.0000
  N   N6        1.0  0.1238380604826119  0.3700205641659268  0.24089253142278721  1.0000
  N   N7        1.0  0.12383534610476227  0.1299800587176776  0.7408907317926607  1.0000
  N   N8        1.0  0.8761658818797713  0.6299790986696294  0.7591086762228869  1.0000
  N   N9        1.0  0.2174976680698464  0.0787840915615305  0.11499087297917752  1.0000
  N   N10       1.0  0.7825103458593077  0.5787791741843337  0.385003214718374  1.0000
  N   N11       1.0  0.7825130602371502  0.9212226944664934  0.8850050143484938  1.0000
  N   N12       1.0  0.2174881677473834  0.4212220715828821  0.6149964978227587  1.0000
  N   N13       1.0  0.3580847970531735  0.14377530811911043  0.2602463071902079  1.0000
  N   N14       1.0  0.6419164309313672  0.6437703907419134  0.23975099666962765  1.0000
  N   N15       1.0  0.6419191453092097  0.8562283120455876  0.7397527962997544  1.0000
  N   N16       1.0  0.3580766539196318  0.35622610623032364  0.7602479221521962  1.0000
  Cl  Cl1       1.0  0.7705494398795025  0.1363078280214367  0.02399721962875393  1.0000
  Cl  Cl2       1.0  0.2294572168607303  0.6363076594392112  0.4760029821060955  1.0000
  Cl  Cl3       1.0  0.2294572168607303  0.8636918348141194  0.976003683491328  1.0000
  Cl  Cl4       1.0  0.7705412967459608  0.3636935863280044  0.5239960290497977  1.0000
