data_image0
_chemical_formula_structural       Zn6H32C16N40F4
_chemical_formula_sum              "Zn6 H32 C16 N40 F4"
_cell_length_a       7.309845194001059
_cell_length_b       11.641175281001765
_cell_length_c       11.641180403000298
_cell_angle_alpha    89.99997956460007
_cell_angle_beta     89.9999839464102
_cell_angle_gamma    89.99994040240439

_space_group_name_H-M_alt    "P 1"
_space_group_IT_number       1

loop_
  _space_group_symop_operation_xyz
  'x, y, z'

loop_
  _atom_site_type_symbol
  _atom_site_label
  _atom_site_symmetry_multiplicity
  _atom_site_fract_x
  _atom_site_fract_y
  _atom_site_fract_z
  _atom_site_occupancy
  Zn  Zn1       1.0  0.9999999799932978  0.7499995037873434  0.24999933962891419  1.0000
  Zn  Zn2       1.0  0.9999996261544623  0.2500003971678595  0.7500003589412285  1.0000
  Zn  Zn3       1.0  0.5000003352674298  0.749999666872121  0.2499993838254042  1.0000
  Zn  Zn4       1.0  0.49999927088033036  0.25000023408307476  0.7500003147447387  1.0000
  Zn  Zn5       1.0  0.7500000466150636  0.7500003552262624  0.7499993444177875  1.0000
  Zn  Zn6       1.0  0.24999955953269645  0.2499995457289401  0.2500003541523483  1.0000
  H   H1        1.0  0.13970956739505164  0.646970628435156  0.4733736890685734  1.0000
  H   H2        1.0  0.13970867527989128  0.026626875687405495  0.6469704566209487  1.0000
  H   H3        1.0  0.1397096270636027  0.4733729684906223  0.8530293775435424  1.0000
  H   H4        1.0  0.36029162929681746  0.6469697770992511  0.02662687758225959  1.0000
  H   H5        1.0  0.3602913592220247  0.8530296477823001  0.4733736328059592  1.0000
  H   H6        1.0  0.13970812768459237  0.8530297993609892  0.026626860315431596  1.0000
  H   H7        1.0  0.3602902675069117  0.47337293327319674  0.6469703574153698  1.0000
  H   H8        1.0  0.3602892242209847  0.02662676701137199  0.853029437753534  1.0000
  H   H9        1.0  0.8602914067698321  0.3530301315392422  0.5266268685207081  1.0000
  H   H10       1.0  0.860290930867869  0.9733730252677971  0.3530292419491872  1.0000
  H   H11       1.0  0.8602913471021834  0.526626932464133  0.14697032102647967  1.0000
  H   H12       1.0  0.6397093448696795  0.35302926483570474  0.9733728209879117  1.0000
  H   H13       1.0  0.6397096149435696  0.14697025317230578  0.5266269247834785  1.0000
  H   H14       1.0  0.8602928464811939  0.1469701015937659  0.9733728382545833  1.0000
  H   H15       1.0  0.639709338641559  0.5266261086622136  0.35302934115492224  1.0000
  H   H16       1.0  0.6397090139094599  0.9733722749244793  0.1469702608168788  1.0000
  H   H17       1.0  0.07708847987272796  0.6844616836965045  0.6140991077852149  1.0000
  H   H18       1.0  0.0770882971979745  0.8859009539929161  0.6844622112897127  1.0000
  H   H19       1.0  0.07708849349899792  0.6140984773866336  0.8155383145464156  1.0000
  H   H20       1.0  0.4229110645896482  0.6844606634318282  0.8859022698885396  1.0000
  H   H21       1.0  0.42291101623622046  0.8155385423539131  0.614098194810957  1.0000
  H   H22       1.0  0.07708831082334197  0.8155386067026812  0.8859022770701798  1.0000
  H   H23       1.0  0.42291116766563147  0.6140992469735307  0.6844613701963524  1.0000
  H   H24       1.0  0.4229109131590008  0.8859016768519581  0.8155382354834301  1.0000
  H   H25       1.0  0.9229111262748402  0.3155382172585419  0.38590144980434354  1.0000
  H   H26       1.0  0.922911308949594  0.11409894696213028  0.3155383462998387  1.0000
  H   H27       1.0  0.9229111126480515  0.38590228258836135  0.1844613840235709  1.0000
  H   H28       1.0  0.5770885415586304  0.3155383785034189  0.11409828770116799  1.0000
  H   H29       1.0  0.5770885899115397  0.18446135860128982  0.3859015037591789  1.0000
  H   H30       1.0  0.9229112953244182  0.18446129425251453  0.11409742149996302  1.0000
  H   H31       1.0  0.577088438481411  0.3859015130014639  0.31553832837363416  1.0000
  H   H32       1.0  0.5770886929887594  0.1140982241032447  0.1844614630867127  1.0000
  C   C1        1.0  0.8825104665843071  0.7100885798398335  0.4945329784219438  1.0000
  C   C2        1.0  0.8825096350438245  0.005467246574411899  0.7100885644218594  1.0000
  C   C3        1.0  0.882510579760158  0.4945329720647749  0.7899119974450244  1.0000
  C   C4        1.0  0.6174899148725856  0.7100878944361565  0.005466618293617399  1.0000
  C   C5        1.0  0.6174897400879827  0.7899122216848367  0.4945321285865276  1.0000
  C   C6        1.0  0.8825105089744338  0.7899122224174845  0.005465721606086  1.0000
  C   C7        1.0  0.6174899371847714  0.4945322137151392  0.7100876415701977  1.0000
  C   C8        1.0  0.6174889570212373  0.005467318787879099  0.7899121081293856  1.0000
  C   C9        1.0  0.11749050758057678  0.2899121801345642  0.5054675791673375  1.0000
  C   C10       1.0  0.11748997110374398  0.9945326543806345  0.28991199316769917  1.0000
  C   C11       1.0  0.11749039440472589  0.5054677879096159  0.210088560144257  1.0000
  C   C12       1.0  0.38251105929320056  0.2899120065185912  0.9945330802764047  1.0000
  C   C13       1.0  0.38251123407708576  0.21008853828971039  0.5054675699833382  1.0000
  C   C14       1.0  0.1174904651908335  0.21008853755721188  0.994533117944364  1.0000
  C   C15       1.0  0.38251103698172534  0.5054668282198236  0.2899120569999738  1.0000
  C   C16       1.0  0.3825092811090157  0.9945317231478159  0.2100884494604429  1.0000
  N   N1        1.0  0.7500000873988737  0.7500003879677806  0.5663126454770975  1.0000
  N   N2        1.0  0.7499998942842864  0.9336879940070943  0.7499993116445579  1.0000
  N   N3        1.0  0.7500001989463667  0.5663118574254823  0.7500002362105889  1.0000
  N   N4        1.0  0.7500000058308768  0.750000322484439  0.9336877613973087  1.0000
  N   N5        1.0  0.24999951874869447  0.24999951298726586  0.4336879121124537  1.0000
  N   N6        1.0  0.25000107988240217  0.06631104792801781  0.24999952790619767  1.0000
  N   N7        1.0  0.24999940720068278  0.43368890254951253  0.24999946235939768  1.0000
  N   N8        1.0  0.24999960031688317  0.24999957847076362  0.06631193717282709  1.0000
  N   N9        1.0  0.8366189476772588  0.7231302531143626  0.38354681248878814  1.0000
  N   N10       1.0  0.8366180073749943  0.11645261669402632  0.7231301814615492  1.0000
  N   N11       1.0  0.8366191419612148  0.38354763188201696  0.7768703885183185  1.0000
  N   N12       1.0  0.6633814121484534  0.7231303572279802  0.1164519205534731  1.0000
  N   N13       1.0  0.6633813082789927  0.7768705879757931  0.3835476772329542  1.0000
  N   N14       1.0  0.8366189624137093  0.7768705790798197  0.11645189565222579  1.0000
  N   N15       1.0  0.6633801910434298  0.3835476979663498  0.7231301491199175  1.0000
  N   N16       1.0  0.663380400611615  0.1164526636200378  0.7768695924666531  1.0000
  N   N17       1.0  0.16338065846979077  0.27687050686063225  0.6164528860811984  1.0000
  N   N18       1.0  0.16338159877276584  0.8835472842611695  0.2768695171085938  1.0000
  N   N19       1.0  0.16338183220437938  0.6164522690725818  0.2231301690711121  1.0000
  N   N20       1.0  0.3366181939987812  0.2768704027471712  0.8835469189970977  1.0000
  N   N21       1.0  0.336618297867865  0.22313017199904547  0.616452880356448  1.0000
  N   N22       1.0  0.16338064373333339  0.22313018089517553  0.8835478029177608  1.0000
  N   N23       1.0  0.33661941510342785  0.6164530620084888  0.2768704084694917  1.0000
  N   N24       1.0  0.3366192055361452  0.8835472373351578  0.22313010610348977  1.0000
  N   N25       1.0  0.03974025728498279  0.6610929359846551  0.5321821646558007  1.0000
  N   N26       1.0  0.039741342316354206  0.9678179569827067  0.6610925767429022  1.0000
  N   N27       1.0  0.03974029608763629  0.5321823577800872  0.8389070966761878  1.0000
  N   N28       1.0  0.4602593259363487  0.6610927211736595  0.967816644298381  1.0000
  N   N29       1.0  0.46025790718145726  0.8389073192687279  0.5321829547790173  1.0000
  N   N30       1.0  0.039740013101877  0.83890651975895  0.9678166497441437  1.0000
  N   N31       1.0  0.4602595009425697  0.5321822523142429  0.6610926172973989  1.0000
  N   N32       1.0  0.4602591001932693  0.9678177881276966  0.8389069817798784  1.0000
  N   N33       1.0  0.9602593488627773  0.3389069649705476  0.4678175339143351  1.0000
  N   N34       1.0  0.960259631849432  0.0321819439720485  0.33890712182711263  1.0000
  N   N35       1.0  0.9602579420426166  0.4678166841556077  0.1610934609136407  1.0000
  N   N36       1.0  0.5397402802115961  0.3389071797816925  0.0321821952523393  1.0000
  N   N37       1.0  0.5397403309480779  0.1610925816867663  0.4678176028106619  1.0000
  N   N38       1.0  0.9602582250283759  0.16109252217675157  0.0321839078456847  1.0000
  N   N39       1.0  0.53974010520448  0.46781850766075184  0.3389070812725876  1.0000
  N   N40       1.0  0.5397405059544907  0.0321821128275062  0.1610927167902574  1.0000
  F   F1        1.0  0.049372350120663086  0.7500005837497029  0.7500002653678165  1.0000
  F   F2        1.0  0.4506284536580693  0.7499995938522873  0.7500002298997259  1.0000
  F   F3        1.0  0.9506286240444053  0.25000017622484455  0.2499994332020492  1.0000
  F   F4        1.0  0.5493725205084276  0.24999944808266863  0.2499994686704454  1.0000
