data_image0
_chemical_formula_structural       Cd2H28C32N24O4
_chemical_formula_sum              "Cd2 H28 C32 N24 O4"
_cell_length_a       7.411148496989755
_cell_length_b       10.188606105936227
_cell_length_c       11.501519669012788
_cell_angle_alpha    90.00013648254762
_cell_angle_beta     89.9998907604594
_cell_angle_gamma    92.69927643625611

_space_group_name_H-M_alt    "P 1"
_space_group_IT_number       1

loop_
  _space_group_symop_operation_xyz
  'x, y, z'

loop_
  _atom_site_type_symbol
  _atom_site_label
  _atom_site_symmetry_multiplicity
  _atom_site_fract_x
  _atom_site_fract_y
  _atom_site_fract_z
  _atom_site_occupancy
  Cd  Cd1       1.0  3.77654757188482e-07  0.9999993520216464  1.8710479570000026e-07  1.0000
  Cd  Cd2       1.0  0.49999972098368767  5.861219775994254e-07  0.4999997076481222  1.0000
  H   H1        1.0  0.0884947553479307  0.3377839737921563  0.9981701384448484  1.0000
  H   H2        1.0  0.41150268756187103  0.6622182522627186  0.4981693992278693  1.0000
  H   H3        1.0  0.9115024527753306  0.662217563807829  0.0018303334091811993  1.0000
  H   H4        1.0  0.5884932572186301  0.3377842832303558  0.5018293337273434  1.0000
  H   H5        1.0  0.22069449419873166  0.5542106005264459  0.9258650581843283  1.0000
  H   H6        1.0  0.27930576229559273  0.4457904249656651  0.425868371087148  1.0000
  H   H7        1.0  0.7793106332272403  0.4457888795289763  0.07413367476202379  1.0000
  H   H8        1.0  0.7206902672897756  0.5542130929871051  0.5741321007696952  1.0000
  H   H9        1.0  0.24232390003378157  0.6021211494990342  0.7169631356945485  1.0000
  H   H10       1.0  0.2576740744202581  0.3978774010013453  0.2169672433447118  1.0000
  H   H11       1.0  0.7576797944324127  0.39787736353684267  0.2830355972516543  1.0000
  H   H12       1.0  0.7423231337030032  0.6021241365986401  0.7830332285093176  1.0000
  H   H13       1.0  0.12492681557470321  0.43917371389932924  0.5695607749132278  1.0000
  H   H14       1.0  0.3750698834902835  0.5608205405061286  0.0695624744923506  1.0000
  H   H15       1.0  0.8750728344340573  0.5608248454502701  0.4304379580355117  1.0000
  H   H16       1.0  0.6249297665172618  0.4391780188445866  0.9304371279067067  1.0000
  H   H17       1.0  0.8518768913033626  0.0027433470144231  0.7125470597231425  1.0000
  H   H18       1.0  0.6481194082800028  0.9972570653201558  0.21254300439324678  1.0000
  H   H19       1.0  0.1481189686649813  0.9972582060257127  0.28745515103238256  1.0000
  H   H20       1.0  0.3518830228410081  0.0027424456110765006  0.7874557285547821  1.0000
  H   H21       1.0  0.7885318056054232  0.21060453891512756  0.0908286057364762  1.0000
  H   H22       1.0  0.7114729230926502  0.7893954656035835  0.5908266705743584  1.0000
  H   H23       1.0  0.21147466997059888  0.7893949257046484  0.9091718661096734  1.0000
  H   H24       1.0  0.2885282446819629  0.21060504322411336  0.4091729318258288  1.0000
  H   H25       1.0  0.9420166356460908  0.1959867909339081  0.18955892764661542  1.0000
  H   H26       1.0  0.5579863841396742  0.8040125022298594  0.6895580811450797  1.0000
  H   H27       1.0  0.05798714362375528  0.8040127045627943  0.8104424136515431  1.0000
  H   H28       1.0  0.4420133506739532  0.1959870395794283  0.31044239070529034  1.0000
  C   C1        1.0  0.04065584436396111  0.26638785921786484  0.8231297448279519  1.0000
  C   C2        1.0  0.45934048520882703  0.7336109816337884  0.323129097779244  1.0000
  C   C3        1.0  0.9593398459922257  0.7336117289051317  0.17687072702494785  1.0000
  C   C4        1.0  0.5406554595704662  0.2663915538604087  0.6768705046262937  1.0000
  C   C5        1.0  0.10130963469373457  0.3592174673162348  0.905764103368753  1.0000
  C   C6        1.0  0.398689329833509  0.6407835215591221  0.4057650734822572  1.0000
  C   C7        1.0  0.8986888367759249  0.6407830723872792  0.0942354990331182  1.0000
  C   C8        1.0  0.6013079630982574  0.359218998497177  0.5942345289224278  1.0000
  C   C9        1.0  0.1727944612292518  0.47910682211824723  0.864561804790874  1.0000
  C   C10       1.0  0.3272059666073801  0.5208940446285909  0.3645652176242962  1.0000
  C   C11       1.0  0.8272093180442398  0.5208926733750728  0.1354369281563166  1.0000
  C   C12       1.0  0.6727900629792033  0.4791094733230564  0.6354343847822221  1.0000
  C   C13       1.0  0.18369676153214698  0.5073517731244765  0.7450150167781615  1.0000
  C   C14       1.0  0.31630104970947315  0.49264586755926143  0.24501925275213668  1.0000
  C   C15       1.0  0.8163069329340474  0.49264673991140756  0.25498371616804144  1.0000
  C   C16       1.0  0.6836961584149961  0.507355670039594  0.7549803496515679  1.0000
  C   C17       1.0  0.12120524569366609  0.4169172050827755  0.6618902919126626  1.0000
  C   C18       1.0  0.37879119531047667  0.5830772884109763  0.1618920339564482  1.0000
  C   C19       1.0  0.8787929713528867  0.5830803872495309  0.33811017993657794  1.0000
  C   C20       1.0  0.6212086243104409  0.4169232358557551  0.8381084378949027  1.0000
  C   C21       1.0  0.05017595424707369  0.29677087636235916  0.7032508298985005  1.0000
  C   C22       1.0  0.44982054077125605  0.7032256891477857  0.20325099977576133  1.0000
  C   C23       1.0  0.9498236109531744  0.7032267005309196  0.2967487724995763  1.0000
  C   C24       1.0  0.5501792788508767  0.2967748351178231  0.7967486026252715  1.0000
  C   C25       1.0  0.9188342772058674  0.09710564587974353  0.73165763646125  1.0000
  C   C26       1.0  0.5811644108394347  0.9028918377003378  0.23165868058521968  1.0000
  C   C27       1.0  0.08115897126724998  0.9028969204913863  0.2683428353962896  1.0000
  C   C28       1.0  0.41883667212788117  0.09710768866992231  0.7683409218139798  1.0000
  C   C29       1.0  0.9394445449602814  0.17148013406179535  0.5280967758962233  1.0000
  C   C30       1.0  0.5605533638860578  0.8285168378319415  0.028096818696319296  1.0000
  C   C31       1.0  0.06055401131545319  0.8285213881002775  0.47190369595696063  1.0000
  C   C32       1.0  0.43944898242644836  0.17148169064297042  0.9719027837010471  1.0000
  N   N1        1.0  0.9602092849561146  0.1400808472986199  0.8370411218766163  1.0000
  N   N2        1.0  0.5397892781584588  0.8599188740867943  0.3370412565071135  1.0000
  N   N3        1.0  0.039790534663595216  0.8599196769692345  0.16296021942505937  1.0000
  N   N4        1.0  0.4602105414648889  0.14008165017768456  0.6629574764435943  1.0000
  N   N5        1.0  0.9707399140214577  0.18645258600066944  0.646856731139934  1.0000
  N   N6        1.0  0.529259095848424  0.8135456604449943  0.14685851960130947  1.0000
  N   N7        1.0  0.02925830302508808  0.813545006331637  0.3531437407093064  1.0000
  N   N8        1.0  0.4707420719249811  0.18645484838383203  0.853141952249203  1.0000
  N   N9        1.0  0.04321766249698559  0.2281793749483327  0.444653629700447  1.0000
  N   N10       1.0  0.4567822022619552  0.771817769359977  0.9446513564080162  1.0000
  N   N11       1.0  0.9567834204679073  0.7718201514241798  0.5553477115994027  1.0000
  N   N12       1.0  0.5432188807053677  0.22818175701028315  0.055348245991190495  1.0000
  N   N13       1.0  0.9600384369413391  0.1901829431007371  0.3444888720010652  1.0000
  N   N14       1.0  0.5399613687045103  0.8098157996730037  0.8444871904269532  1.0000
  N   N15       1.0  0.03996264602476882  0.8098165832706461  0.6555115998484595  1.0000
  N   N16       1.0  0.4600397142628054  0.1901837266972564  0.15551241197224638  1.0000
  N   N17       1.0  0.817370334090178  0.11344922921692564  0.3668276656207112  1.0000
  N   N18       1.0  0.6826294939248996  0.8865505538619021  0.8668268405957065  1.0000
  N   N19       1.0  0.18263083368321992  0.8865512796119007  0.6331728062298012  1.0000
  N   N20       1.0  0.317370240889943  0.11344898794625641  0.13317276180433876  1.0000
  N   N21       1.0  0.7993848667160179  0.09954313175852293  0.4828401575625349  1.0000
  N   N22       1.0  0.7006130344688232  0.9004540198025667  0.9828402093037951  1.0000
  N   N23       1.0  0.20061486809882467  0.9004564100496423  0.5171594448375102  1.0000
  N   N24       1.0  0.2993867851533095  0.09954650446304211  0.017159393097237796  1.0000
  O   O1        1.0  0.9131116723650549  0.1834278802034035  0.10549612755695388  1.0000
  O   O2        1.0  0.5868930153358249  0.8165721622984068  0.6054952721280955  1.0000
  O   O3        1.0  0.08689480321096711  0.8165715844163659  0.8945043442891958  1.0000
  O   O4        1.0  0.41310680428631497  0.18342836196720216  0.39450433027293735  1.0000
