data_image0
_chemical_formula_structural       Tb8H120C192N48O48
_chemical_formula_sum              "Tb8 H120 C192 N48 O48"
_cell_length_a       14.612459515429997
_cell_length_b       19.77944395100065
_cell_length_c       30.768069214516597
_cell_angle_alpha    90.0000205357496
_cell_angle_beta     102.34181418250482
_cell_angle_gamma    89.99997500887092

_space_group_name_H-M_alt    "P 1"
_space_group_IT_number       1

loop_
  _space_group_symop_operation_xyz
  'x, y, z'

loop_
  _atom_site_type_symbol
  _atom_site_label
  _atom_site_symmetry_multiplicity
  _atom_site_fract_x
  _atom_site_fract_y
  _atom_site_fract_z
  _atom_site_occupancy
  Tb  Tb1       1.0  0.3201783056314725  0.7555424877477251  0.23761679926022342  1.0000
  Tb  Tb2       1.0  0.1798215379749664  0.25554225103688577  0.7623834335191831  1.0000
  Tb  Tb3       1.0  0.6798214047166979  0.2444569244703914  0.7623832457615337  1.0000
  Tb  Tb4       1.0  0.8201788723860731  0.7444576667566097  0.23761700781727774  1.0000
  Tb  Tb5       1.0  0.09009401549378991  0.7383944270709791  0.2667641749521223  1.0000
  Tb  Tb6       1.0  0.4099058373689957  0.23839409986448606  0.7332357298051378  1.0000
  Tb  Tb7       1.0  0.9099056943304334  0.26160549072261574  0.7332361950286882  1.0000
  Tb  Tb8       1.0  0.5900931724422379  0.7616058179291088  0.2667642438610187  1.0000
  H   H1        1.0  0.1754826800168132  0.08899108567154461  0.8613386947242957  1.0000
  H   H2        1.0  0.3245172484043906  0.5889912657900281  0.1386615083043736  1.0000
  H   H3        1.0  0.8245177308681734  0.9110083265464725  0.13866142165311154  1.0000
  H   H4        1.0  0.6754831630041596  0.4110091575786754  0.8613382831141223  1.0000
  H   H5        1.0  0.14582699286047074  0.011870132172369102  0.920835428741519  1.0000
  H   H6        1.0  0.35417227377329413  0.5118702695380151  0.07916501411451551  1.0000
  H   H7        1.0  0.8541713158899995  0.9881302911967964  0.07916479852803347  1.0000
  H   H8        1.0  0.645828137635256  0.48813015383068864  0.9208347773039733  1.0000
  H   H9        1.0  0.852460976417433  0.005337966497279501  0.8573872750916819  1.0000
  H   H10       1.0  0.647538020333734  0.5053371947726857  0.14261344298031992  1.0000
  H   H11       1.0  0.14753733285698442  0.9946619512964077  0.14261262721882423  1.0000
  H   H12       1.0  0.35246239002755425  0.49466171187004443  0.8573869983560485  1.0000
  H   H13       1.0  0.8831328661129945  0.08313942462045529  0.7990347396250712  1.0000
  H   H14       1.0  0.6168667920789447  0.5831392009137846  0.20096573874116072  1.0000
  H   H15       1.0  0.11686684423504802  0.9168604931730471  0.20096530539673554  1.0000
  H   H16       1.0  0.38313361932973317  0.41686071687953324  0.7990340526772854  1.0000
  H   H17       1.0  0.0446932232874175  0.8566145765831975  0.0267862552069289  1.0000
  H   H18       1.0  0.4553065683249642  0.35661487415121945  0.9732143205858463  1.0000
  H   H19       1.0  0.95530648653655  0.14338635236116906  0.973214114773967  1.0000
  H   H20       1.0  0.5446945425727564  0.6433855492175768  0.026786192106307297  1.0000
  H   H21       1.0  0.1756505190695847  0.8266834990864355  0.08990166211820141  1.0000
  H   H22       1.0  0.324349288832579  0.3266838037060538  0.9100982584100308  1.0000
  H   H23       1.0  0.8243491912783298  0.1733169242824459  0.9100983829036479  1.0000
  H   H24       1.0  0.6756511215283256  0.6733166196628276  0.08990218292646554  1.0000
  H   H25       1.0  0.9821617399592882  0.7222952146552402  0.1538120021152949  1.0000
  H   H26       1.0  0.5178392494897466  0.22229608810239648  0.8461879939014665  1.0000
  H   H27       1.0  0.0178393719861987  0.27770470313798507  0.8461878606588016  1.0000
  H   H28       1.0  0.48216046085830305  0.777703829691106  0.1538120511203402  1.0000
  H   H29       1.0  0.8527118403365606  0.7509350526871403  0.0918183480301309  1.0000
  H   H30       1.0  0.6472877324066104  0.2509359189436039  0.9081821603092308  1.0000
  H   H31       1.0  0.14728857054842592  0.24906435953088393  0.9081817683472766  1.0000
  H   H32       1.0  0.35271267847824833  0.749063998849806  0.0918179560682262  1.0000
  H   H33       1.0  0.6687013123406159  0.13892769449231682  0.8484913501340687  1.0000
  H   H34       1.0  0.8312976189998623  0.6389283851635882  0.15150776700593846  1.0000
  H   H35       1.0  0.3312977000895928  0.8610727288762092  0.15150699873711196  1.0000
  H   H36       1.0  0.16870209239556996  0.3610725437805015  0.8484916280979463  1.0000
  H   H37       1.0  0.7351723675524938  0.0488407373119841  0.9014000882183171  1.0000
  H   H38       1.0  0.7648259080799278  0.5488399031949028  0.0985995913918387  1.0000
  H   H39       1.0  0.2648266443536329  0.9511606972074063  0.09859858561195271  1.0000
  H   H40       1.0  0.23517380279194103  0.45116001459850724  0.9014001286709572  1.0000
  H   H41       1.0  0.5166339260305506  0.9129944712232644  0.8375113007215519  1.0000
  H   H42       1.0  0.9833683673798959  0.4129963298562347  0.1624888720708597  1.0000
  H   H43       1.0  0.48336718434373444  0.087004435419459  0.16248953692947046  1.0000
  H   H44       1.0  0.016633445102151305  0.5870045990876633  0.8375110620589794  1.0000
  H   H45       1.0  0.44942208330706995  0.004751038155866601  0.784448664076109  1.0000
  H   H46       1.0  0.05057858959643371  0.5047538774252516  0.215550945342784  1.0000
  H   H47       1.0  0.5505769270284944  0.9952468573360991  0.215550984630859  1.0000
  H   H48       1.0  0.9494218212881621  0.49524705151892323  0.7844491710347583  1.0000
  H   H49       1.0  0.826868654818142  0.1309218285469669  0.6541415880486952  1.0000
  H   H50       1.0  0.6731309800885157  0.6309221730756605  0.3458582489348601  1.0000
  H   H51       1.0  0.17313175606658865  0.8690785948218293  0.34585852832879743  1.0000
  H   H52       1.0  0.32686873025939894  0.3690782502932279  0.6541417960869893  1.0000
  H   H53       1.0  0.8355428311329192  0.0360460415671184  0.6028008298507359  1.0000
  H   H54       1.0  0.6644568520886696  0.5360454063791736  0.39719899018524535  1.0000
  H   H55       1.0  0.16445757975181147  0.9639543818016778  0.3971992865267637  1.0000
  H   H56       1.0  0.3355442593331262  0.4639540058387582  0.6028011975478123  1.0000
  H   H57       1.0  0.699363744653077  0.905730796816904  0.6820167189012808  1.0000
  H   H58       1.0  0.8006371519070045  0.40573077883492914  0.31798298492316235  1.0000
  H   H59       1.0  0.3006352662055392  0.0942701321272779  0.3179826048469607  1.0000
  H   H60       1.0  0.19936326054905615  0.594270150108983  0.6820161565773617  1.0000
  H   H61       1.0  0.6887812467787454  0.0024480892901336997  0.7329227991030793  1.0000
  H   H62       1.0  0.8112184535519519  0.5024488508988796  0.26707701493148767  1.0000
  H   H63       1.0  0.3112177630324808  0.9975518285034611  0.2670771745630773  1.0000
  H   H64       1.0  0.18877705567023642  0.49755207804558677  0.7329213021204952  1.0000
  H   H65       1.0  0.7746608977909377  0.7187785412668504  0.42460334840063757  1.0000
  H   H66       1.0  0.7253400934489919  0.21877919672807175  0.5753966469879259  1.0000
  H   H67       1.0  0.22533881150997806  0.28121935422529276  0.575397346538992  1.0000
  H   H68       1.0  0.2746603184837682  0.7812197099143887  0.42460281947142425  1.0000
  H   H69       1.0  0.832995649030643  0.7005934716850318  0.35600430339326283  1.0000
  H   H70       1.0  0.667006052006542  0.2005946898049018  0.6439957601026336  1.0000
  H   H71       1.0  0.16700336025766663  0.29940290708095313  0.6439959952315776  1.0000
  H   H72       1.0  0.3329964604890137  0.7994042168374591  0.3560045703416749  1.0000
  H   H73       1.0  0.06443870336703132  0.8338415411216503  0.40468729323373503  1.0000
  H   H74       1.0  0.4355611019379211  0.33384062313498936  0.5953119786550048  1.0000
  H   H75       1.0  0.935557505344079  0.16616039897367327  0.5953117450919905  1.0000
  H   H76       1.0  0.5644421116178792  0.6661598002333449  0.40468809818607815  1.0000
  H   H77       1.0  0.007097504891518702  0.8520508783991898  0.4741379936056519  1.0000
  H   H78       1.0  0.4929029911533576  0.3520504087501167  0.5258616778504859  1.0000
  H   H79       1.0  0.9929008043830267  0.1479485338191182  0.5258619087048048  1.0000
  H   H80       1.0  0.5070988218527646  0.6479495090429241  0.4741379313202573  1.0000
  H   H81       1.0  0.2023739290701627  0.0170774484039171  0.5582499338208751  1.0000
  H   H82       1.0  0.29762603702017293  0.5170773006714882  0.441749606443949  1.0000
  H   H83       1.0  0.7976257812777519  0.9829229749649644  0.4417501112009746  1.0000
  H   H84       1.0  0.702374374388505  0.4829226171218294  0.5582501849744972  1.0000
  H   H85       1.0  0.29288265752273196  0.10368150025328761  0.6087026977627019  1.0000
  H   H86       1.0  0.20711866501490314  0.6036818591594796  0.3912973256423911  1.0000
  H   H87       1.0  0.7071184538989357  0.896318417540023  0.3912974899703983  1.0000
  H   H88       1.0  0.7928817458699556  0.3963180586339305  0.6087027907350591  1.0000
  H   H89       1.0  0.096087119927212  0.0900269757419565  0.693868768631468  1.0000
  H   H90       1.0  0.40391210795372257  0.5900262124985218  0.30613103826750176  1.0000
  H   H91       1.0  0.9039125898968835  0.9099734476270173  0.30613160134938516  1.0000
  H   H92       1.0  0.5960876023944479  0.40997319971959467  0.6938690067542552  1.0000
  H   H93       1.0  0.0046988534052375  0.0033304038982251  0.6439871663543855  1.0000
  H   H94       1.0  0.49530041914900386  0.5033296389890083  0.356012300099124  1.0000
  H   H95       1.0  0.9953001564057332  0.9966705250461416  0.35601280731185625  1.0000
  H   H96       1.0  0.5046992922468121  0.4966697732289236  0.6439870950046257  1.0000
  H   H97       1.0  0.0455701138281697  0.9499162435889521  0.9506211648554912  1.0000
  H   H98       1.0  0.45442893025815323  0.44991653174567864  0.049379031288935914  1.0000
  H   H99       1.0  0.9544295965198729  0.050083674204550704  0.049378880166308634  1.0000
  H   H100      1.0  0.5455714811502689  0.5500843971984041  0.9506207601296027  1.0000
  H   H101      1.0  0.7993997138029061  0.8038824362950905  0.025884083434107225  1.0000
  H   H102      1.0  0.7005998314536939  0.3038823109741742  0.9741167593220653  1.0000
  H   H103      1.0  0.20059929548437344  0.19611798707397554  0.9741162151911027  1.0000
  H   H104      1.0  0.29940127892032825  0.6961176068193283  0.025884078329049504  1.0000
  H   H105      1.0  0.616049431336073  0.8908386457929679  0.911831131472141  1.0000
  H   H106      1.0  0.8839514722840534  0.39083796717448394  0.08816889465109062  1.0000
  H   H107      1.0  0.3839509795482671  0.10916329430197892  0.0881689849054936  1.0000
  H   H108      1.0  0.11604893912449651  0.6091624561942199  0.9118308967673983  1.0000
  H   H109      1.0  0.7176647978532531  0.8753654095425746  0.6063741611546831  1.0000
  H   H110      1.0  0.782334712048858  0.3753654396556385  0.39362604445236127  1.0000
  H   H111      1.0  0.2823349114471442  0.12463450825110563  0.3936265337851239  1.0000
  H   H112      1.0  0.2176664004204554  0.6246344781374943  0.6063734933627317  1.0000
  H   H113      1.0  0.08647063952115272  0.9422849686692916  0.543798376374909  1.0000
  H   H114      1.0  0.4135291089880795  0.442285496928541  0.4562018897620277  1.0000
  H   H115      1.0  0.9135290703030708  0.05771494912430341  0.45620199360590163  1.0000
  H   H116      1.0  0.5864713018967792  0.5577144208648689  0.5437982266154222  1.0000
  H   H117      1.0  0.7834506053975974  0.7772347009392391  0.4902086227398783  1.0000
  H   H118      1.0  0.716550357121811  0.2772348170695764  0.5097907331725438  1.0000
  H   H119      1.0  0.21654980339236124  0.2227637001283753  0.5097927934734514  1.0000
  H   H120      1.0  0.28345075639527556  0.7227645951479859  0.4902081547244919  1.0000
  C   C1        1.0  0.047298131731246015  0.14196628741013484  0.7932720444100241  1.0000
  C   C2        1.0  0.45270176866501544  0.6419669697086121  0.2067288179995543  1.0000
  C   C3        1.0  0.9527015786167966  0.8580336303833676  0.20672800061177554  1.0000
  C   C4        1.0  0.5472986416960167  0.3580329480848832  0.7932716233368993  1.0000
  C   C5        1.0  0.031178884584989002  0.0911554674184814  0.8263457010040085  1.0000
  C   C6        1.0  0.4688196411365838  0.5911556204938008  0.17365468465897752  1.0000
  C   C7        1.0  0.9688208257631884  0.908843944799635  0.17365434401774854  1.0000
  C   C8        1.0  0.5311786681379617  0.4088437917245002  0.8263452176514791  1.0000
  C   C9        1.0  0.10515929442840391  0.07006488228257268  0.8606970290192637  1.0000
  C   C10       1.0  0.39483994204623235  0.5700655456441764  0.1393037491910505  1.0000
  C   C11       1.0  0.8948383143093325  0.9299345299358279  0.13930280193554978  1.0000
  C   C12       1.0  0.6051618699121236  0.42993487772442773  0.8606965098977426  1.0000
  C   C13       1.0  0.08822594292535511  0.02713547709689121  0.8937365149042833  1.0000
  C   C14       1.0  0.411773315934539  0.5271361165669219  0.1062639306786224  1.0000
  C   C15       1.0  0.9117730668858783  0.9728644406967036  0.10626345876186598  1.0000
  C   C16       1.0  0.5882277960105642  0.4728653179524613  0.8937359320956091  1.0000
  C   C17       1.0  0.9967746701676461  0.0039304313277668  0.8931941330403108  1.0000
  C   C18       1.0  0.5032250283606673  0.5039306973464621  0.10680633117700472  1.0000
  C   C19       1.0  0.0032236391070271002  0.9960684753151484  0.1068057692701032  1.0000
  C   C20       1.0  0.49677608358456393  0.49607023159753527  0.8931935315971771  1.0000
  C   C21       1.0  0.9229235537745951  0.023346550580370704  0.8581766986396744  1.0000
  C   C22       1.0  0.5770747332687807  0.5233468123016748  0.14182395129360972  1.0000
  C   C23       1.0  0.07707475550007813  0.9766523560625444  0.14182320367073936  1.0000
  C   C24       1.0  0.42292497655544276  0.4766531054919198  0.8581764186871936  1.0000
  C   C25       1.0  0.9408561427018683  0.06675473559741359  0.825504853773559  1.0000
  C   C26       1.0  0.5591449243836382  0.5667545157518034  0.1744960893362091  1.0000
  C   C27       1.0  0.059143567646174205  0.9332451821960889  0.1744951912482406  1.0000
  C   C28       1.0  0.4408568865273281  0.43324489646621356  0.8255048196705062  1.0000
  C   C29       1.0  0.9082016869198244  0.9338736886718664  0.9391715681568726  1.0000
  C   C30       1.0  0.5917977921395803  0.43387460579617715  0.0608292978194882  1.0000
  C   C31       1.0  0.0917980234284741  0.06612521797086401  0.060828476864841705  1.0000
  C   C32       1.0  0.4082019171608239  0.5661253119975101  0.9391713971203189  1.0000
  C   C33       1.0  0.7532287971299214  0.9137477655629664  0.9278203990516901  1.0000
  C   C34       1.0  0.7467713942871157  0.4137471222885978  0.0721795598081059  1.0000
  C   C35       1.0  0.2467709137416847  0.0862531633812154  0.0721793210111983  1.0000
  C   C36       1.0  0.2532290160737887  0.5862533010802836  0.9278208815283975  1.0000
  C   C37       1.0  0.8521753685819321  0.8638601144723096  0.9853156486707135  1.0000
  C   C38       1.0  0.647824146655381  0.3638599766315025  0.014684879840153472  1.0000
  C   C39       1.0  0.14782364122904568  0.13614081447205714  0.014684324995535299  1.0000
  C   C40       1.0  0.3521762642294775  0.6361399411619076  0.9853152365372965  1.0000
  C   C41       1.0  0.94005183944941  0.8056342403539033  0.05471210358805217  1.0000
  C   C42       1.0  0.5599470043780244  0.3056351554875648  0.9452886681254853  1.0000
  C   C43       1.0  0.05994716983786931  0.1943661830151626  0.9452881950371507  1.0000
  C   C44       1.0  0.4400541065198241  0.6943647623058455  0.05471184456662571  1.0000
  C   C45       1.0  0.032135259635907715  0.8263275872361008  0.054286635512923516  1.0000
  C   C46       1.0  0.46786524846050537  0.3263278654136458  0.9457136812663905  1.0000
  C   C47       1.0  0.967865151248816  0.17367283613269544  0.9457134808645762  1.0000
  C   C48       1.0  0.5321358624372153  0.6736725579551434  0.0542868314257632  1.0000
  C   C49       1.0  0.10469463442134241  0.8093741259705993  0.08957681067495568  1.0000
  C   C50       1.0  0.39530518229548056  0.3093744078769021  0.9104231067613355  1.0000
  C   C51       1.0  0.8953050769740827  0.19062680297349036  0.9104225844289289  1.0000
  C   C52       1.0  0.6046959286022401  0.6906260154918871  0.08957740593081102  1.0000
  C   C53       1.0  0.08847049966360741  0.772110704957818  0.1259952127397383  1.0000
  C   C54       1.0  0.4115300365658571  0.2721119724675489  0.8740047693959881  1.0000
  C   C55       1.0  0.9115299112211163  0.22788971841097805  0.8740049036377542  1.0000
  C   C56       1.0  0.5884696737818018  0.7278894620521044  0.12599527562594656  1.0000
  C   C57       1.0  0.9969654246904086  0.7504951883048534  0.12579543908231025  1.0000
  C   C58       1.0  0.5030355498741983  0.2504960821548893  0.8742048869307625  1.0000
  C   C59       1.0  0.003034986718269299  0.24950472948846422  0.8742043523361362  1.0000
  C   C60       1.0  0.4969655610233873  0.749504846789286  0.1257956257614268  1.0000
  C   C61       1.0  0.9238333788948127  0.7666912977765818  0.09065331525569324  1.0000
  C   C62       1.0  0.5761668879331622  0.2666911764796538  0.9093462923767177  1.0000
  C   C63       1.0  0.0761670330374287  0.23330963116741538  0.9093461512038417  1.0000
  C   C64       1.0  0.42383352347538766  0.7333092468890501  0.09065349904177113  1.0000
  C   C65       1.0  0.16699696386160673  0.7603950045129081  0.16411724702992103  1.0000
  C   C66       1.0  0.33300357833410743  0.2603957705218677  0.8358827330130083  1.0000
  C   C67       1.0  0.83300274648618  0.23960592443136622  0.8358827979919711  1.0000
  C   C68       1.0  0.6669975330871765  0.739605663997601  0.1641174547202269  1.0000
  C   C69       1.0  0.5128838661537359  0.1320063740894355  0.782104642545093  1.0000
  C   C70       1.0  0.9871157687242302  0.6320075570875544  0.2178948696732661  1.0000
  C   C71       1.0  0.48711444469240217  0.8679925325532097  0.2178942848883096  1.0000
  C   C72       1.0  0.012883941623684302  0.36799286628133376  0.7821051753485833  1.0000
  C   C73       1.0  0.5546742594318488  0.07762769864272201  0.8129649059526545  1.0000
  C   C74       1.0  0.945326804211753  0.5776283723369388  0.18703473926338893  1.0000
  C   C75       1.0  0.44532475195084953  0.9223722191506029  0.187034092836484  1.0000
  C   C76       1.0  0.05467430668583971  0.42237255660724327  0.8129657734288075  1.0000
  C   C77       1.0  0.6351867309518084  0.0895147833516035  0.84607863658578  1.0000
  C   C78       1.0  0.8648129271362279  0.5895154645545305  0.1539198931653232  1.0000
  C   C79       1.0  0.3648122809547091  0.910485134441629  0.1539200372443617  1.0000
  C   C80       1.0  0.13518678478327933  0.4104844532386949  0.8460791769794654  1.0000
  C   C81       1.0  0.672803658919115  0.039022466268768596  0.8758718979970085  1.0000
  C   C82       1.0  0.8271988249339303  0.539022131841108  0.124128207993266  1.0000
  C   C83       1.0  0.3271974535499425  0.9609784626751364  0.12412763981817682  1.0000
  C   C84       1.0  0.17280298702455352  0.4609777859521103  0.8758720510954845  1.0000
  C   C85       1.0  0.6303280079709951  0.9749527263063488  0.8731377341385881  1.0000
  C   C86       1.0  0.8696714527882534  0.47495409617778966  0.12686151438066418  1.0000
  C   C87       1.0  0.3696710034116962  0.0250471914869763  0.1268612646505574  1.0000
  C   C88       1.0  0.13032825755940544  0.5250473383418636  0.8731385306412704  1.0000
  C   C89       1.0  0.5494842313165622  0.9628194264203528  0.8399600310743054  1.0000
  C   C90       1.0  0.9505187372580225  0.4628202831361038  0.1600402219738015  1.0000
  C   C91       1.0  0.4505175811654851  0.037181502523552006  0.1600399030555266  1.0000
  C   C92       1.0  0.049482374163389416  0.5371806458079789  0.8399599657593839  1.0000
  C   C93       1.0  0.5120642976608423  0.013717920283554005  0.8102556226314592  1.0000
  C   C94       1.0  0.9879360979909394  0.5137206040420423  0.18974393981303456  1.0000
  C   C95       1.0  0.48793611374822643  0.9862804807836056  0.18974416878685224  1.0000
  C   C96       1.0  0.012062211807041501  0.48628032490232437  0.8102556375385604  1.0000
  C   C97       1.0  0.7486233596384368  0.13034398850541612  0.7258610929971283  1.0000
  C   C98       1.0  0.7513769755754824  0.6303442677860146  0.27413914019785324  1.0000
  C   C99       1.0  0.2513770507225956  0.869655929288086  0.2741393483393253  1.0000
  C   C100      1.0  0.24862133422262636  0.3696561555829732  0.7258604371536919  1.0000
  C   C101      1.0  0.7571531715149008  0.0725931138652101  0.6967007284097733  1.0000
  C   C102      1.0  0.7428478946924887  0.5725939177373363  0.3032989159069644  1.0000
  C   C103      1.0  0.24284653830919473  0.9274073095037706  0.30329964157107975  1.0000
  C   C104      1.0  0.25715041615300993  0.4274075167822318  0.6967000115266658  1.0000
  C   C105      1.0  0.798330929666996  0.08166564725407711  0.6599090265813814  1.0000
  C   C106      1.0  0.7016701308728842  0.5816654737825644  0.34009126927389133  1.0000
  C   C107      1.0  0.20166948121786282  0.9183342705393256  0.3400910897960756  1.0000
  C   C108      1.0  0.2983309800250922  0.4183339384354595  0.6599092434181699  1.0000
  C   C109      1.0  0.8036005676147014  0.0285048921926503  0.6312079911031888  1.0000
  C   C110      1.0  0.6964005199967006  0.5285052420048331  0.3687922952561209  1.0000
  C   C111      1.0  0.19639984222238382  0.9714955311763231  0.3687927751923183  1.0000
  C   C112      1.0  0.30360129248547457  0.4714951813636857  0.6312076388736686  1.0000
  C   C113      1.0  0.7682160835280812  0.9645443583011966  0.6389864704025359  1.0000
  C   C114      1.0  0.7317875857528905  0.46454388095930443  0.3610132043912132  1.0000
  C   C115      1.0  0.23178572895396604  0.03545657064270101  0.3610134637272964  1.0000
  C   C116      1.0  0.2682149283138672  0.5354560368335513  0.6389861511761694  1.0000
  C   C117      1.0  0.726502336684007  0.9553954831138751  0.6757720040446813  1.0000
  C   C118      1.0  0.7734992330262787  0.4553954773716524  0.3242290798429437  1.0000
  C   C119      1.0  0.2734980742005888  0.0446054458303067  0.324228112332861  1.0000
  C   C120      1.0  0.2265004773216361  0.5446049459972286  0.6757709651789057  1.0000
  C   C121      1.0  0.7209122964794403  0.0090149948125955  0.7043229591620985  1.0000
  C   C122      1.0  0.7790888026282518  0.5090162883152943  0.295676348838839  1.0000
  C   C123      1.0  0.27908811545305673  0.9909849229806298  0.29567650729734396  1.0000
  C   C124      1.0  0.22090880820437775  0.49098464062889485  0.7043221822800944  1.0000
  C   C125      1.0  0.8327231535870112  0.8990273237261377  0.5832629139951635  1.0000
  C   C126      1.0  0.6672763458369316  0.39902740385377206  0.4167363209615545  1.0000
  C   C127      1.0  0.1672758562243502  0.1009720884920711  0.41673705967094316  1.0000
  C   C128      1.0  0.3327247666323815  0.600972513939361  0.5832632168535312  1.0000
  C   C129      1.0  0.8714241255777679  0.844730527183927  0.5251717726464449  1.0000
  C   C130      1.0  0.6285753994011783  0.3447301466240944  0.4748287524473156  1.0000
  C   C131      1.0  0.12857558267511854  0.1552688850345518  0.47482957221133404  1.0000
  C   C132      1.0  0.3714250125313185  0.6552697711691309  0.525170714012127  1.0000
  C   C133      1.0  0.8866230404352535  0.7874725757802423  0.454098818354815  1.0000
  C   C134      1.0  0.6133772158100828  0.28747223976509423  0.5459007929896985  1.0000
  C   C135      1.0  0.11337456777852853  0.21252734201362952  0.5459013375590445  1.0000
  C   C136      1.0  0.38662459614865713  0.7125266668773592  0.4540994660989597  1.0000
  C   C137      1.0  0.8393219003638424  0.7434460583850467  0.42072065264151354  1.0000
  C   C138      1.0  0.6606783783013629  0.24344673687525642  0.5792789508387131  1.0000
  C   C139      1.0  0.16067430887159873  0.2565538594086476  0.5792780607250309  1.0000
  C   C140      1.0  0.3393241352413198  0.7565541920684636  0.4207207296877655  1.0000
  C   C141      1.0  0.8719919651000582  0.7331692114538838  0.3819937268155655  1.0000
  C   C142      1.0  0.6280083187986633  0.23316941650994494  0.6180058748288886  1.0000
  C   C143      1.0  0.12800564363779904  0.26682969518912353  0.618006104139198  1.0000
  C   C144      1.0  0.3719934936837674  0.766829995707802  0.3819940593008155  1.0000
  C   C145      1.0  0.952966625939098  0.7664805476332077  0.3756996623694917  1.0000
  C   C146      1.0  0.5470350415460389  0.2664802767514516  0.6243004128955577  1.0000
  C   C147      1.0  0.047032383872263515  0.23351886458500104  0.6243003112966152  1.0000
  C   C148      1.0  0.45296817201015227  0.7335186298907247  0.3756996639453902  1.0000
  C   C149      1.0  0.0016647171371531  0.8080915871345695  0.4097742860647172  1.0000
  C   C150      1.0  0.4983365013062198  0.3080926683576238  0.5902257738538452  1.0000
  C   C151      1.0  0.9983321905399479  0.1919078250840087  0.5902257984934494  1.0000
  C   C152      1.0  0.5016674127861407  0.69190876616139  0.4097743743429803  1.0000
  C   C153      1.0  0.9700762028358056  0.8185917368796113  0.4484907766650892  1.0000
  C   C154      1.0  0.5299240375622318  0.31859193649458467  0.5515088402382347  1.0000
  C   C155      1.0  0.029922806451601502  0.181408180914076  0.551509521960071  1.0000
  C   C156      1.0  0.4700770749069535  0.6814084868739343  0.44849069757690074  1.0000
  C   C157      1.0  0.9881247896078308  0.7628889228806132  0.3343114605618425  1.0000
  C   C158      1.0  0.5118761796933101  0.2628886864272247  0.6656882177469967  1.0000
  C   C159      1.0  0.0118749207406026  0.2371094781867313  0.6656885844598295  1.0000
  C   C160      1.0  0.48812493277625896  0.7371102202151363  0.3343113200680037  1.0000
  C   C161      1.0  0.9689619224084398  0.9229137109840481  0.5638099796382933  1.0000
  C   C162      1.0  0.5310375643279884  0.42291283476944846  0.436189584544131  1.0000
  C   C163      1.0  0.031037787939610005  0.0770862068094544  0.4361900653835137  1.0000
  C   C164      1.0  0.4689628470808175  0.5770865774484832  0.5638102068742725  1.0000
  C   C165      1.0  0.09767033705046661  0.004629704810106701  0.5979817202305853  1.0000
  C   C166      1.0  0.4023296348551001  0.5046289955584697  0.40201814276966996  1.0000
  C   C167      1.0  0.902329372773501  0.9953712241342602  0.4020186497503104  1.0000
  C   C168      1.0  0.5976707770775319  0.4953704166593695  0.597981323689723  1.0000
  C   C169      1.0  0.179345665922142  0.0330763935450378  0.5882011139306087  1.0000
  C   C170      1.0  0.3206535909602408  0.5330762216772487  0.4117986827954354  1.0000
  C   C171      1.0  0.8206533433651374  0.9669240298240286  0.4117991846946012  1.0000
  C   C172      1.0  0.6793468199246178  0.4669236961161615  0.5882014335820144  1.0000
  C   C173      1.0  0.2297393449538632  0.08126126643477959  0.6160138329551756  1.0000
  C   C174      1.0  0.27026058845167705  0.5812600841634108  0.3839857187745963  1.0000
  C   C175      1.0  0.7702603653937957  0.9187401680848737  0.3839862120667661  1.0000
  C   C176      1.0  0.7297391218965004  0.4187393280547057  0.6160143262471607  1.0000
  C   C177      1.0  0.20004069759104942  0.10230080157900547  0.6543335972261348  1.0000
  C   C178      1.0  0.29995922510016737  0.6023000939276244  0.3456659582619324  1.0000
  C   C179      1.0  0.7999583122200562  0.8976996217899753  0.3456663764400645  1.0000
  C   C180      1.0  0.700041186832337  0.39769982386560093  0.6543335081975101  1.0000
  C   C181      1.0  0.11912630155278951  0.07369131744287934  0.6640987574705548  1.0000
  C   C182      1.0  0.3808729341231185  0.573690578237553  0.3359013714694115  1.0000
  C   C183      1.0  0.880873408271178  0.9263096115014875  0.3359016125103409  1.0000
  C   C184      1.0  0.619126776225059  0.4263088339805635  0.6640986735523455  1.0000
  C   C185      1.0  0.06766113252358248  0.025176809608126398  0.6364060317281783  1.0000
  C   C186      1.0  0.43233812785778986  0.5251765748181612  0.3635940885457742  1.0000
  C   C187      1.0  0.9323378772875162  0.9748236137608473  0.3635939419380207  1.0000
  C   C188      1.0  0.5676608814297524  0.47482283740013304  0.6364062100793433  1.0000
  C   C189      1.0  0.255380722217609  0.15432855246235994  0.6831740640990205  1.0000
  C   C190      1.0  0.24461987399178042  0.6543283521564973  0.316825896997365  1.0000
  C   C191      1.0  0.7446203886799837  0.8456723764818151  0.3168264485931758  1.0000
  C   C192      1.0  0.7553798363562623  0.34567156563700513  0.6831741480244347  1.0000
  N   N1        1.0  0.9858862554152026  0.9622010619908469  0.9284270726682351  1.0000
  N   N2        1.0  0.5141132097426677  0.46220150459799925  0.0715734734091455  1.0000
  N   N3        1.0  0.014113455980613301  0.0377983502270851  0.07157232243551452  1.0000
  N   N4        1.0  0.48588650060550265  0.537797907620117  0.9284265716126116  1.0000
  N   N5        1.0  0.8230346032275974  0.9466460464739301  0.9144253646700947  1.0000
  N   N6        1.0  0.6769648703754998  0.4466459387696489  0.08557485366966941  1.0000
  N   N7        1.0  0.1769651081680905  0.05335387131938771  0.0855740304337047  1.0000
  N   N8        1.0  0.32303483944885164  0.5533534734485599  0.9144255163110913  1.0000
  N   N9        1.0  0.762688094099488  0.8706889292199165  0.9622913784452081  1.0000
  N   N10       1.0  0.7373107176473184  0.3706887753471122  0.0377087549708222  1.0000
  N   N11       1.0  0.2373109157114897  0.12931199972445026  0.037708595221040815  1.0000
  N   N12       1.0  0.2626889927007241  0.6293111424463902  0.9622912900509775  1.0000
  N   N13       1.0  0.9275221253664016  0.8939494187048209  0.9757114047455815  1.0000
  N   N14       1.0  0.572477376119899  0.3939482993809946  0.02428815426297602  1.0000
  N   N15       1.0  0.0724768849686512  0.10605049908868118  0.0242882439615641  1.0000
  N   N16       1.0  0.42752303581286105  0.6060506072614587  0.9757113121963741  1.0000
  N   N17       1.0  0.861938309890455  0.8221695922929229  0.021649671585244324  1.0000
  N   N18       1.0  0.6380619271143289  0.32216898393677706  0.9783509208341244  1.0000
  N   N19       1.0  0.13806139993364042  0.17783083107605077  0.9783506983956016  1.0000
  N   N20       1.0  0.3619398843203284  0.6778309338565407  0.021649663213629804  1.0000
  N   N21       1.0  0.6635634872176367  0.9235225678799851  0.9039696889989841  1.0000
  N   N22       1.0  0.8364352971001451  0.4235229201282564  0.09603077881367028  1.0000
  N   N23       1.0  0.3364355220693866  0.07647886663986013  0.096030609626311  1.0000
  N   N24       1.0  0.1635644127239502  0.5764775032407172  0.9039695911671829  1.0000
  N   N25       1.0  0.7700397430107414  0.9099801264343627  0.6099581583713132  1.0000
  N   N26       1.0  0.7299611519092082  0.40998017144720217  0.3900412212531848  1.0000
  N   N27       1.0  0.22996136841079817  0.09002029693434109  0.3900420293618367  1.0000
  N   N28       1.0  0.2700399600361508  0.590020251921409  0.6099586415209544  1.0000
  N   N29       1.0  0.8086277927043427  0.8516205260119636  0.5515058011557771  1.0000
  N   N30       1.0  0.6913724319217351  0.35162061607739054  0.4484931717293961  1.0000
  N   N31       1.0  0.19137191816778204  0.1483783806306818  0.4484939189069337  1.0000
  N   N32       1.0  0.3086279794870705  0.6483787961405412  0.5515066196890004  1.0000
  N   N33       1.0  0.9523398233548975  0.8783462228039198  0.529811293378259  1.0000
  N   N34       1.0  0.5476596855529295  0.3783468769151028  0.4701885878022907  1.0000
  N   N35       1.0  0.0476598859457624  0.12165268383898821  0.4701894015614627  1.0000
  N   N36       1.0  0.45234072585587637  0.6216525353028289  0.5298112036161058  1.0000
  N   N37       1.0  0.9120314973529631  0.9360298700924689  0.5914155772353951  1.0000
  N   N38       1.0  0.5879665811067339  0.43602896011203995  0.4085841715376475  1.0000
  N   N39       1.0  0.08796681192119851  0.0639710588519904  0.40858432507520354  1.0000
  N   N40       1.0  0.41203383030181584  0.5639714632566637  0.5914156198808415  1.0000
  N   N41       1.0  0.05238849186434891  0.9561387576056363  0.5679135447092349  1.0000
  N   N42       1.0  0.44761195065098763  0.4561377446914036  0.4320864702988914  1.0000
  N   N43       1.0  0.9476112184834307  0.0438621713386382  0.43208650031265705  1.0000
  N   N44       1.0  0.5523898618314506  0.5438616675263364  0.5679134638308057  1.0000
  N   N45       1.0  0.846447341579072  0.7994259113379057  0.4908083088829116  1.0000
  N   N46       1.0  0.6535536085917429  0.299427058611144  0.5091917009115933  1.0000
  N   N47       1.0  0.15355306825865972  0.20057198415414487  0.5091924574123681  1.0000
  N   N48       1.0  0.3464475038774424  0.7005733647573749  0.4908078369035422  1.0000
  O   O1        1.0  0.9766546651489635  0.16438587006199873  0.7649986850954988  1.0000
  O   O2        1.0  0.5233442511320875  0.6643856955146461  0.2350017364279964  1.0000
  O   O3        1.0  0.023344344138443805  0.8356140477316811  0.2350016135296613  1.0000
  O   O4        1.0  0.47665475920309314  0.3356137167034703  0.7649979122791066  1.0000
  O   O5        1.0  0.1527177968918068  0.7378018645168751  0.20186318029296763  1.0000
  O   O6        1.0  0.3472827562855798  0.23780209929042687  0.7981371206731467  1.0000
  O   O7        1.0  0.8472812123952097  0.26219957000296995  0.7981371183323276  1.0000
  O   O8        1.0  0.6527176540751967  0.7621988296538477  0.2018633206633993  1.0000
  O   O9        1.0  0.7780680473388701  0.18962218949288  0.7164168691478353  1.0000
  O   O10       1.0  0.7219315576751413  0.6896224835415836  0.283582978321256  1.0000
  O   O11       1.0  0.22193236302216232  0.8103777283006225  0.2835835721886184  1.0000
  O   O12       1.0  0.2780674526597764  0.3103779398273119  0.7164166703859394  1.0000
  O   O13       1.0  0.3288158108390036  0.1771962178839956  0.6724468643358392  1.0000
  O   O14       1.0  0.17118337265159064  0.6771960472558546  0.3275529581340564  1.0000
  O   O15       1.0  0.6711831989722299  0.8228036999095991  0.3275531093303101  1.0000
  O   O16       1.0  0.8288170387572151  0.32280336496207707  0.6724468332843401  1.0000
  O   O17       1.0  0.06374232281618933  0.7925678632372098  0.3320641720140287  1.0000
  O   O18       1.0  0.43625890353287394  0.29256749110682995  0.6679358851314277  1.0000
  O   O19       1.0  0.9362573870084177  0.20743053783022697  0.6679361979666467  1.0000
  O   O20       1.0  0.5637429094733833  0.7074319211108246  0.3320637240392657  1.0000
  O   O21       1.0  0.43728215162155953  0.12251925629575308  0.7538410800956754  1.0000
  O   O22       1.0  0.062718460262488  0.62251958084277  0.24615920027772387  1.0000
  O   O23       1.0  0.5627182608350196  0.8774796503466148  0.246158061404671  1.0000
  O   O24       1.0  0.9372819511460619  0.3774808425259338  0.7538405911407653  1.0000
  O   O25       1.0  0.5514642043027679  0.19201462800064206  0.7853577101762427  1.0000
  O   O26       1.0  0.9485353989688649  0.6920158216328076  0.21464246267928644  1.0000
  O   O27       1.0  0.44853410601942306  0.8079847842174743  0.21464154221620652  1.0000
  O   O28       1.0  0.05146431033140429  0.30798460173625847  0.7853582322605704  1.0000
  O   O29       1.0  0.1307360568751577  0.1624860625859696  0.7949450014102055  1.0000
  O   O30       1.0  0.36926383411935154  0.6624862652977228  0.2050552147467286  1.0000
  O   O31       1.0  0.8692629529360758  0.837513855207625  0.2050549722559438  1.0000
  O   O32       1.0  0.6307351751681836  0.3375131469205783  0.7949450838783818  1.0000
  O   O33       1.0  0.9435694214828843  0.7292762464826339  0.2996789179967508  1.0000
  O   O34       1.0  0.55643226547204  0.22927601496932232  0.7003208256635676  1.0000
  O   O35       1.0  0.05643098835471961  0.2707221545848029  0.7003218482985715  1.0000
  O   O36       1.0  0.4435695475340892  0.7707239028237184  0.2996787835071757  1.0000
  O   O37       1.0  0.7085580585704037  0.12455364915807368  0.7584161430151966  1.0000
  O   O38       1.0  0.7914422795920829  0.6245544029290571  0.24158408914551904  1.0000
  O   O39       1.0  0.2914423517907636  0.8754457630600357  0.2415842983212144  1.0000
  O   O40       1.0  0.20855672969519654  0.3754460204400161  0.7584162094796909  1.0000
  O   O41       1.0  0.22930867453501955  0.1747917302291242  0.7184353230447087  1.0000
  O   O42       1.0  0.27069191072985893  0.6747915018439982  0.2815649666659752  1.0000
  O   O43       1.0  0.7706917363495763  0.8252091987150578  0.2815647933328265  1.0000
  O   O44       1.0  0.7293084996311803  0.3252084159495041  0.7184354746704784  1.0000
  O   O45       1.0  0.25049175745526503  0.7737093179327276  0.1609383610000279  1.0000
  O   O46       1.0  0.24950877743668087  0.2737091015043164  0.8390619463801343  1.0000
  O   O47       1.0  0.7495072518321423  0.22629059986095965  0.8390619376251323  1.0000
  O   O48       1.0  0.7504916334480499  0.72629132186448  0.1609381699973653  1.0000
