data_image0
_chemical_formula_structural       Zr6H33C52N5Cl2O32
_chemical_formula_sum              "Zr6 H33 C52 N5 Cl2 O32"
_cell_length_a       14.770490768272435
_cell_length_b       14.767958506664117
_cell_length_c       14.775816528306965
_cell_angle_alpha    60.17871847115974
_cell_angle_beta     60.0442011390817
_cell_angle_gamma    60.13504306795501

_space_group_name_H-M_alt    "P 1"
_space_group_IT_number       1

loop_
  _space_group_symop_operation_xyz
  'x, y, z'

loop_
  _atom_site_type_symbol
  _atom_site_label
  _atom_site_symmetry_multiplicity
  _atom_site_fract_x
  _atom_site_fract_y
  _atom_site_fract_z
  _atom_site_occupancy
  Zr  Zr1       1.0  0.874178359499233  0.8837768177639589  0.6195246692326254  1.0000
  Zr  Zr2       1.0  0.11649439358639307  0.1181261708679102  0.3836677197762057  1.0000
  Zr  Zr3       1.0  0.11340180333002792  0.8806755929789815  0.6226481647169211  1.0000
  Zr  Zr4       1.0  0.8764661594701906  0.12132227382522134  0.38106581481934426  1.0000
  Zr  Zr5       1.0  0.1154536057902789  0.8822561275876099  0.38163071645830393  1.0000
  Zr  Zr6       1.0  0.876907831435453  0.12214638195397517  0.6192976212626676  1.0000
  H   H1        1.0  0.08984791508291316  0.7189722519239795  0.5949203207822508  1.0000
  H   H2        1.0  0.09509504792075059  0.09303631897814305  0.21887057457597342  1.0000
  H   H3        1.0  0.09087628105855564  0.09366292685041337  0.5964339228653587  1.0000
  H   H4        1.0  0.7134333901210115  0.09753454243399756  0.5936649025272801  1.0000
  H   H5        1.0  0.8265855051396755  0.6107197670358246  0.6156033693436317  1.0000
  H   H6        1.0  0.1511765966513537  0.5801551618307598  0.370350285986156  1.0000
  H   H7        1.0  0.8348913542870235  0.4386133806819076  0.6109864725213615  1.0000
  H   H8        1.0  0.5866335064982167  0.8496026562623838  0.9238437197107816  1.0000
  H   H9        1.0  0.5962245587316134  0.1361745161581992  0.9221713045156934  1.0000
  H   H10       1.0  0.41806152339452757  0.8529843471367686  0.0952540458992036  1.0000
  H   H11       1.0  0.1447002148030167  0.8562978035265231  0.08113062042419042  1.0000
  H   H12       1.0  0.8359628775318557  0.12485752025542506  0.11001541745832821  1.0000
  H   H13       1.0  0.13749226419105304  0.861220712448272  0.9122806367533799  1.0000
  H   H14       1.0  0.5837216082554662  0.42459894539496185  0.6430398615607164  1.0000
  H   H15       1.0  0.5963926430108375  0.42178726013601414  0.3478468852422128  1.0000
  H   H16       1.0  0.4120836498969993  0.5923984096238756  0.6393026546595595  1.0000
  H   H17       1.0  0.9873766566029334  0.576125468319482  0.740822352666584  1.0000
  H   H18       1.0  0.0025305823430485192  0.40533833820150983  0.7363943348974403  1.0000
  H   H19       1.0  0.999375679406981  0.23684392257126047  0.07288218207737898  1.0000
  H   H20       1.0  0.008954324880406336  0.2340462233996021  0.9039001806397167  1.0000
  H   H21       1.0  0.5842140017878921  0.14121245928544818  0.34659149473770895  1.0000
  H   H22       1.0  0.595908649238645  0.850056847139534  0.6347265645715796  1.0000
  H   H23       1.0  0.41416420207701793  0.13349457560939013  0.3543195776926283  1.0000
  H   H24       1.0  0.1807025568597567  0.3384655844209092  0.33806394596165035  1.0000
  H   H25       1.0  0.23868075020160973  0.43848094330024173  0.2939192674341343  1.0000
  H   H26       1.0  0.35063143251523593  0.16636397104466744  0.1622363857166534  1.0000
  H   H27       1.0  0.45393589826144887  0.2219191576425956  0.05345092859367647  1.0000
  H   H28       1.0  0.8076935680408398  0.15537167752104614  0.8656586012506298  1.0000
  H   H29       1.0  0.7525340356795597  0.2047762563962792  0.9754236645460639  1.0000
  H   H30       1.0  0.35883133502610337  0.6694013601917917  0.31445717177675914  1.0000
  H   H31       1.0  0.4720554123975235  0.5701181803611349  0.2561513252662096  1.0000
  H   H32       1.0  0.3560771017479141  0.81462051643301  0.6628731258031024  1.0000
  H   H33       1.0  0.46675776596421087  0.7603252823501235  0.7107846273655414  1.0000
  C   C1        1.0  0.9903979761114248  0.7030675755712678  0.4959127141384133  1.0000
  C   C2        1.0  0.3083316662850208  0.9959591330041563  0.20194358872765167  1.0000
  C   C3        1.0  0.9962707811674958  0.3096453781751691  0.49481318919594514  1.0000
  C   C4        1.0  0.6958709950390801  0.9987676140064039  0.808159425238671  1.0000
  C   C5        1.0  0.9843567711730967  0.7046875376645974  0.8113033669076803  1.0000
  C   C6        1.0  0.6967853704983827  0.999072616419788  0.49309347706122264  1.0000
  C   C7        1.0  0.9918032103843047  0.3092997526392479  0.20261899780625484  1.0000
  C   C8        1.0  0.3059740888102098  0.9933114935704169  0.4990744243749462  1.0000
  C   C9        1.0  0.3042203814493973  0.6991456764172952  0.498063569779376  1.0000
  C   C10       1.0  0.9894497372697302  0.9966847706808938  0.8118193009684096  1.0000
  C   C11       1.0  0.6975677366278957  0.31093881013843844  0.49718233578806814  1.0000
  C   C12       1.0  0.99408318213753  0.9954525167524725  0.20103770265877347  1.0000
  C   C13       1.0  0.9968822107332899  0.4117805040080284  0.4897554856872051  1.0000
  C   C14       1.0  0.9898355086586932  0.6037368494470529  0.49302722776228375  1.0000
  C   C15       1.0  0.08855120366768428  0.4517996126375508  0.41844330788257633  1.0000
  C   C16       1.0  0.8986543501439925  0.5654949042661244  0.5619495846881222  1.0000
  C   C17       1.0  0.08195839866715456  0.5483993714821623  0.4226753770513058  1.0000
  C   C18       1.0  0.9037289177538169  0.47077608618923955  0.5591456039092507  1.0000
  C   C19       1.0  0.41143263352815757  0.9957828603343162  0.10547331077462761  1.0000
  C   C20       1.0  0.5993614548301877  0.9944872416302172  0.9132640049476425  1.0000
  C   C21       1.0  0.462411076096963  0.077398778791256  0.057715139698252954  1.0000
  C   C22       1.0  0.551168658506086  0.9120854255497335  0.9619241501501536  1.0000
  C   C23       1.0  0.5563499613444022  0.07424057831168081  0.9610443804166094  1.0000
  C   C24       1.0  0.45867916933728053  0.9142288665078837  0.05638997465408847  1.0000
  C   C25       1.0  0.9841111820542067  0.9953014570868889  0.9150860830590308  1.0000
  C   C26       1.0  0.9903345017715921  0.991949486372107  0.10372098676682406  1.0000
  C   C27       1.0  0.8952791408181326  0.07098688786845019  0.9718014979274515  1.0000
  C   C28       1.0  0.0763006009873307  0.9152616021855807  0.049816038039225116  1.0000
  C   C29       1.0  0.9016399834831506  0.06716160801865109  0.06589667150259271  1.0000
  C   C30       1.0  0.07185680439421568  0.9182998930683225  0.9569715647970015  1.0000
  C   C31       1.0  0.4068191611164098  0.6020858702392999  0.4925855480747218  1.0000
  C   C32       1.0  0.5986863749059594  0.41394232845999596  0.4950876199897466  1.0000
  C   C33       1.0  0.4594986249661162  0.5550157775248863  0.4068671646387899  1.0000
  C   C34       1.0  0.5482582738878109  0.46157646935979113  0.5783022397875612  1.0000
  C   C35       1.0  0.5554208681329343  0.4604984032523162  0.4111439601073245  1.0000
  C   C36       1.0  0.45382357236363186  0.5539442732693658  0.5757763060927773  1.0000
  C   C37       1.0  0.9801178249266942  0.6044812371627868  0.9139532329119435  1.0000
  C   C38       1.0  0.9888493787596533  0.5059811901861196  0.9092185414046203  1.0000
  C   C39       1.0  0.968946010066709  0.6074836466911506  0.011393538791978283  1.0000
  C   C40       1.0  0.9937949935861212  0.5015494808863679  0.8127440088044796  1.0000
  C   C41       1.0  0.0010366345456204443  0.4057826014889798  0.8107387093703978  1.0000
  C   C42       1.0  0.9860838008977524  0.4122461990661391  0.10278217289373276  1.0000
  C   C43       1.0  0.9718941818194224  0.5104869791252257  0.10666928538657337  1.0000
  C   C44       1.0  0.9921179541780776  0.4081535387938332  0.005169905590854668  1.0000
  C   C45       1.0  0.00039830668070799184  0.310611172099975  0.9997762773501294  1.0000
  C   C46       1.0  0.0044493413886070666  0.30948244633216143  0.9050604971369938  1.0000
  C   C47       1.0  0.40822530259670514  0.9890452607470194  0.4984420963354739  1.0000
  C   C48       1.0  0.5984614123287385  0.9953846127585919  0.4915516221896186  1.0000
  C   C49       1.0  0.4599530848861309  0.9054666588957829  0.579433603188129  1.0000
  C   C50       1.0  0.5488337298182557  0.07656616779743793  0.4104256720982776  1.0000
  C   C51       1.0  0.5553398059045735  0.9116107304986656  0.5732642199759044  1.0000
  C   C52       1.0  0.4552124439266265  0.07198126090734291  0.4152794349871203  1.0000
  N   N1        1.0  0.18258606787804152  0.3994376653228287  0.34993387282202804  1.0000
  N   N2        1.0  0.42566863142339895  0.1570640548588286  0.10144475561986621  1.0000
  N   N3        1.0  0.8048119841429724  0.14515320399289774  0.9401750404007603  1.0000
  N   N4        1.0  0.4201411828348826  0.5948454991270254  0.3230750519665266  1.0000
  N   N5        1.0  0.42063465925173193  0.8222920206725706  0.6628251146229974  1.0000
  Cl  Cl1       1.0  0.9534578993831532  0.5176213004227035  0.2279884329015832  1.0000
  Cl  Cl2       1.0  0.9480864499308481  0.7291380020791467  0.019549898003760106  1.0000
  O   O1        1.0  0.9142136544386688  0.7408596384696224  0.5743378674741568  1.0000
  O   O2        1.0  0.2633565055270495  0.07449113169138853  0.2425080250868846  1.0000
  O   O3        1.0  0.07478039860551886  0.2646198746776137  0.42083682693951385  1.0000
  O   O4        1.0  0.7314914965322854  0.9254200449694782  0.7653463283570335  1.0000
  O   O5        1.0  0.06536929358318838  0.7382783386774181  0.7712310665639209  1.0000
  O   O6        1.0  0.7345621972770928  0.07767549718577982  0.41804550219597314  1.0000
  O   O7        1.0  0.9151646280786424  0.2693696383344601  0.2428705639807165  1.0000
  O   O8        1.0  0.26214906434913143  0.918308178998231  0.5765754586213705  1.0000
  O   O9        1.0  0.2614106766001856  0.7410100651648364  0.4221509109635594  1.0000
  O   O10       1.0  0.9154299602855789  0.07565259689936692  0.7675468474967035  1.0000
  O   O11       1.0  0.7359035513827835  0.2702184111837269  0.5753152877616189  1.0000
  O   O12       1.0  0.07280295860965658  0.9208664611357876  0.23849907270837903  1.0000
  O   O13       1.0  0.06785546363636297  0.9216951540437036  0.7699549181073951  1.0000
  O   O14       1.0  0.7356193699045973  0.26926561301166874  0.42221678162117393  1.0000
  O   O15       1.0  0.919245968148829  0.07440054328058195  0.2387680474931104  1.0000
  O   O16       1.0  0.26164191342822807  0.7362301709065165  0.5777489743699962  1.0000
  O   O17       1.0  0.9084860191140152  0.7449906869004652  0.7707043628118132  1.0000
  O   O18       1.0  0.2643869553493872  0.07195122397518353  0.42413617953902627  1.0000
  O   O19       1.0  0.07249523018437291  0.26887109555642047  0.23646656883815356  1.0000
  O   O20       1.0  0.7353894900711779  0.9240883793806989  0.5710269182428437  1.0000
  O   O21       1.0  0.7348527709304236  0.0766473890702244  0.7671313025985357  1.0000
  O   O22       1.0  0.06858934092802799  0.741706642982287  0.4212284509726772  1.0000
  O   O23       1.0  0.26665976624703824  0.920949173825143  0.23955046327417767  1.0000
  O   O24       1.0  0.9196680590158337  0.26981513777016647  0.5723500050403773  1.0000
  O   O25       1.0  0.7937654015114078  0.07041980944829633  0.5668851216653296  1.0000
  O   O26       1.0  0.06353206232234501  0.067409471776095  0.5695899485357216  1.0000
  O   O27       1.0  0.0647352421314125  0.0683516257001244  0.2990274475784886  1.0000
  O   O28       1.0  0.06112105934990797  0.7991748009209448  0.5697638278075348  1.0000
  O   O29       1.0  0.14492612946333616  0.9501390390553581  0.4531829411951024  1.0000
  O   O30       1.0  0.9464612202274483  0.9525429763183767  0.4506419323769184  1.0000
  O   O31       1.0  0.9474365377363727  0.1501316027632099  0.45098545846556715  1.0000
  O   O32       1.0  0.9451077820395639  0.9526018787620744  0.6495272809757114  1.0000
