data_image0
_chemical_formula_structural       Hg2H14C18N2Cl4
_chemical_formula_sum              "Hg2 H14 C18 N2 Cl4"
_cell_length_a       7.327228988795425
_cell_length_b       7.534511191784764
_cell_length_c       9.656183964549738
_cell_angle_alpha    69.28590259925654
_cell_angle_beta     86.34366425826275
_cell_angle_gamma    87.87378992051039

_space_group_name_H-M_alt    "P 1"
_space_group_IT_number       1

loop_
  _space_group_symop_operation_xyz
  'x, y, z'

loop_
  _atom_site_type_symbol
  _atom_site_label
  _atom_site_symmetry_multiplicity
  _atom_site_fract_x
  _atom_site_fract_y
  _atom_site_fract_z
  _atom_site_occupancy
  Hg  Hg1       1.0  0.7526887819787473  0.5452790410158315  0.9347940757997435  1.0000
  Hg  Hg2       1.0  0.247295861172276  0.4547314650887486  0.06521850339218101  1.0000
  H   H1        1.0  0.8586723404619931  0.9523466427674309  0.8938274886774733  1.0000
  H   H2        1.0  0.1413015842806331  0.0476650825999698  0.1061716891456967  1.0000
  H   H3        1.0  0.8982795159226953  0.2743283067820457  0.7027863376264918  1.0000
  H   H4        1.0  0.1017067626753558  0.7256791087907004  0.29721359609985143  1.0000
  H   H5        1.0  0.8289429821471758  0.3261040401751742  0.4377391486690314  1.0000
  H   H6        1.0  0.1710697305139206  0.6738733323343382  0.5622610984957888  1.0000
  H   H7        1.0  0.6756066281740088  0.5549613164018581  0.6591000049821147  1.0000
  H   H8        1.0  0.3243978023508588  0.4450231862578633  0.3408985242437693  1.0000
  H   H9        1.0  0.6106821995503252  0.5944969864248935  0.39994664900685717  1.0000
  H   H10       1.0  0.389306917854192  0.40550750353119003  0.6000498679777878  1.0000
  H   H11       1.0  0.6301330890438733  0.9102986769234461  0.20058929712244833  1.0000
  H   H12       1.0  0.36988888233842226  0.08970423416275963  0.7994053718598694  1.0000
  H   H13       1.0  0.7251498042924139  0.19022913714228204  0.2559704188112164  1.0000
  H   H14       1.0  0.2748982379258322  0.8097539294405464  0.7440361659053067  1.0000
  C   C1        1.0  0.8311039999154062  0.978639498695145  0.7784060871775225  1.0000
  C   C2        1.0  0.16887420254468566  0.0213594002447834  0.2215945178173442  1.0000
  C   C3        1.0  0.8508886887763579  0.16067421763254688  0.6698359065026835  1.0000
  C   C4        1.0  0.14910049592860727  0.8393273964018276  0.33015935767896554  1.0000
  C   C5        1.0  0.8135205918672667  0.1876804819303857  0.5257449844400952  1.0000
  C   C6        1.0  0.18648099731430526  0.8123237843984229  0.47424179482032974  1.0000
  C   C7        1.0  0.7562469034258184  0.0330207960848981  0.4891686280583301  1.0000
  C   C8        1.0  0.24377228386808977  0.9669849836891727  0.5108263644577278  1.0000
  C   C9        1.0  0.7413698116195703  0.8508263770521082  0.6046960608371137  1.0000
  C   C10       1.0  0.25862191186831746  0.1491866530216299  0.3952999884791382  1.0000
  C   C11       1.0  0.6877697087262289  0.6933473490925123  0.5704284976004886  1.0000
  C   C12       1.0  0.31223195185270197  0.30664702229669416  0.4295631764733727  1.0000
  C   C13       1.0  0.6501934284542513  0.7160163018723581  0.4268530445412893  1.0000
  C   C14       1.0  0.34979717848244  0.2839852493620043  0.5731390755323602  1.0000
  C   C15       1.0  0.662493851102532  0.8956640575282507  0.312635661134081  1.0000
  C   C16       1.0  0.33752136415441913  0.1043430070339184  0.6873508308596712  1.0000
  C   C17       1.0  0.7145155688049625  0.0511375728102124  0.3433376502611409  1.0000
  C   C18       1.0  0.2855023855761941  0.9488624609916487  0.6566548875489746  1.0000
  N   N1        1.0  0.7793706188053802  0.8306061052243265  0.7469354148795943  1.0000
  N   N2        1.0  0.22062234013209547  0.1693958327691902  0.2530782558497719  1.0000
  Cl  Cl1       1.0  0.5731938718509753  0.2677867891819758  0.9612852135856542  1.0000
  Cl  Cl2       1.0  0.4268044939375528  0.7322109822305337  0.03873565396300188  1.0000
  Cl  Cl3       1.0  0.9057649845018145  0.578539860951615  0.1537728591290062  1.0000
  Cl  Cl4       1.0  0.09422379893729267  0.421462170560595  0.8462450885777528  1.0000
