data_image0
_chemical_formula_structural       Lu4H96C96N24O48
_chemical_formula_sum              "Lu4 H96 C96 N24 O48"
_cell_length_a       15.769257729306927
_cell_length_b       15.769263932909434
_cell_length_c       16.846647655000528
_cell_angle_alpha    89.99997800465863
_cell_angle_beta     89.99999511463169
_cell_angle_gamma    120.0000245523456

_space_group_name_H-M_alt    "P 1"
_space_group_IT_number       1

loop_
  _space_group_symop_operation_xyz
  'x, y, z'

loop_
  _atom_site_type_symbol
  _atom_site_label
  _atom_site_symmetry_multiplicity
  _atom_site_fract_x
  _atom_site_fract_y
  _atom_site_fract_z
  _atom_site_occupancy
  Lu  Lu1       1.0  0.6666671097502501  0.3333331750898482  0.32856201758082904  1.0000
  Lu  Lu2       1.0  0.33333207088454486  0.6666642255977066  0.1714393164239425  1.0000
  Lu  Lu3       1.0  0.33333367838945804  0.6666687089312049  0.6714390892265383  1.0000
  Lu  Lu4       1.0  0.6666691814818365  0.3333359259074058  0.8285606032039041  1.0000
  H   H1        1.0  0.7374381321279273  0.4866423704855407  0.5054594959043897  1.0000
  H   H2        1.0  0.5133570421561231  0.2507955858258768  0.5054589536297769  1.0000
  H   H3        1.0  0.7492049518080676  0.26256250611800874  0.5054595356976108  1.0000
  H   H4        1.0  0.486641389266964  0.7374374026082862  0.994540147326063  1.0000
  H   H5        1.0  0.25079580795211603  0.5133576366158793  0.9945413841761521  1.0000
  H   H6        1.0  0.2625617704067266  0.749203791235928  0.9945401541502504  1.0000
  H   H7        1.0  0.26256148582371003  0.5133568788528536  0.49453983013378183  1.0000
  H   H8        1.0  0.4866438440864086  0.7492049318030851  0.49454037240811743  1.0000
  H   H9        1.0  0.25079556831050814  0.7374383776346322  0.49453979034022666  1.0000
  H   H10       1.0  0.5133578625605963  0.26256221285360226  0.005459772301961199  1.0000
  H   H11       1.0  0.7492047121662251  0.48664324713639195  0.0054591290414976006  1.0000
  H   H12       1.0  0.7374381155661638  0.250796458371063  0.0054603590675413  1.0000
  H   H13       1.0  0.8422356672214304  0.65036602781754  0.566676389324634  1.0000
  H   H14       1.0  0.34963496535536354  0.1918691520542382  0.5666764913566666  1.0000
  H   H15       1.0  0.8081304575222035  0.15776549479049606  0.5666764791953582  1.0000
  H   H16       1.0  0.6503647695530079  0.8422353224726181  0.9333243821266706  1.0000
  H   H17       1.0  0.19187014913545394  0.34963492867352386  0.9333238953360379  1.0000
  H   H18       1.0  0.1577643532208908  0.8081296353709533  0.933324407904223  1.0000
  H   H19       1.0  0.1577629504605511  0.349632953498876  0.43332412389344194  1.0000
  H   H20       1.0  0.6503662870108966  0.8081309994506893  0.43332402186108954  1.0000
  H   H21       1.0  0.19186869620276062  0.8422354870638455  0.433324034022327  1.0000
  H   H22       1.0  0.3496351164198757  0.15776492713437307  0.0666761310911212  1.0000
  H   H23       1.0  0.808130737106964  0.6503655889552603  0.06667602429175898  1.0000
  H   H24       1.0  0.8422358988759628  0.19187024811236594  0.0666761053136185  1.0000
  H   H25       1.0  0.020374024292301524  0.748994679514787  0.5335487453157483  1.0000
  H   H26       1.0  0.2510044218971715  0.27137762262020004  0.5335500091139593  1.0000
  H   H27       1.0  0.7286217947781495  0.9796272164600593  0.5335492692142125  1.0000
  H   H28       1.0  0.748993403859842  0.02037311960307872  0.9664521849351287  1.0000
  H   H29       1.0  0.2713783045384517  0.2510048073154891  0.966450975367195  1.0000
  H   H30       1.0  0.9796265102059607  0.7286212132297224  0.966451454887661  1.0000
  H   H31       1.0  0.9796255936589802  0.2510045698230599  0.4664523614921379  1.0000
  H   H32       1.0  0.7489961963236382  0.7286218947394473  0.466450504103932  1.0000
  H   H33       1.0  0.27137835921634224  0.020374033416068457  0.4664506504134849  1.0000
  H   H34       1.0  0.25100484769806314  0.9796262278368391  0.0335489218728  1.0000
  H   H35       1.0  0.7286225817038456  0.7489957103131176  0.0335495378505115  1.0000
  H   H36       1.0  0.02037374189100661  0.2713786702537746  0.033548464740278  1.0000
  H   H37       1.0  0.09343304658666811  0.6781311707085252  0.4425502353459123  1.0000
  H   H38       1.0  0.32186758786681924  0.4153007779175936  0.44255146063892425  1.0000
  H   H39       1.0  0.5846986601485398  0.906567384876645  0.4425507682942679  1.0000
  H   H40       1.0  0.6781293564248044  0.09343170901536967  0.05744996163625869  1.0000
  H   H41       1.0  0.415301302461124  0.32186859814382257  0.057449337484896994  1.0000
  H   H42       1.0  0.9065671960070173  0.5846980269719563  0.05744986425347779  1.0000
  H   H43       1.0  0.9065678396556294  0.3218693469200816  0.5574502778717871  1.0000
  H   H44       1.0  0.6781322981060639  0.5846994716893974  0.5574490525788675  1.0000
  H   H45       1.0  0.4153005916788999  0.09343223058505853  0.557449744923666  1.0000
  H   H46       1.0  0.32186989540274863  0.9065679064465185  0.9425499579917656  1.0000
  H   H47       1.0  0.5846992176573311  0.6781322856086335  0.9425505821428501  1.0000
  H   H48       1.0  0.09343342221379199  0.4153014903876908  0.9425506489644206  1.0000
  H   H49       1.0  0.0856145515908793  0.5526866379390114  0.3658471641184562  1.0000
  H   H50       1.0  0.4473128547040233  0.5329285452768316  0.3658471532407077  1.0000
  H   H51       1.0  0.46707156761918606  0.9143845863124865  0.36584767750256464  1.0000
  H   H52       1.0  0.5526859897541312  0.08561441507180924  0.1341530621238718  1.0000
  H   H53       1.0  0.5329277918860597  0.44731252329123805  0.1341529979222145  1.0000
  H   H54       1.0  0.914384027816851  0.4670713258663851  0.13415297915596366  1.0000
  H   H55       1.0  0.914385066360637  0.447312611399198  0.6341527555096249  1.0000
  H   H56       1.0  0.5526876654144317  0.4670723384756242  0.6341527663870323  1.0000
  H   H57       1.0  0.532928318353818  0.08561566329468208  0.6341522421253245  1.0000
  H   H58       1.0  0.4473136281972644  0.9143848342662225  0.8658474510941119  1.0000
  H   H59       1.0  0.46707209408682343  0.5526877263157528  0.8658475152955774  1.0000
  H   H60       1.0  0.0856159562586286  0.5329275573481597  0.8658469404721671  1.0000
  H   H61       1.0  0.988859720147211  0.3087413220526897  0.3192444283910731  1.0000
  H   H62       1.0  0.6912569396952932  0.680117774873203  0.3192449671233319  1.0000
  H   H63       1.0  0.3198823082645816  0.011140266915099124  0.3192451021388364  1.0000
  H   H64       1.0  0.30874128598357226  0.9888592905677597  0.180755653089534  1.0000
  H   H65       1.0  0.6801176455053264  0.6912571297144081  0.1807556917486721  1.0000
  H   H66       1.0  0.011140884313967078  0.3198827856778266  0.1807551915721533  1.0000
  H   H67       1.0  0.011140263928261621  0.6912575611618479  0.6807554912370577  1.0000
  H   H68       1.0  0.30874294627771065  0.3198824747339656  0.6807549525045573  1.0000
  H   H69       1.0  0.6801175777083016  0.9888599826918919  0.6807554110789551  1.0000
  H   H70       1.0  0.6912579658439811  0.011140324894128441  0.8192442665384903  1.0000
  H   H71       1.0  0.3198828746130147  0.30874375403786314  0.8192448214689847  1.0000
  H   H72       1.0  0.9888593677830003  0.6801170978056701  0.8192447280557786  1.0000
  H   H73       1.0  0.09142543199381949  0.4271352438958402  0.30331545778528823  1.0000
  H   H74       1.0  0.5728633467079546  0.6642893952233705  0.3033148023794041  1.0000
  H   H75       1.0  0.33570933008674325  0.9085735529818562  0.3033159551262159  1.0000
  H   H76       1.0  0.4271354972615313  0.09142549618440646  0.1966847947482648  1.0000
  H   H77       1.0  0.6642896467373873  0.5728632205666031  0.19668529237370083  1.0000
  H   H78       1.0  0.9085739948101402  0.3357093923893755  0.19668473165119588  1.0000
  H   H79       1.0  0.9085741859575762  0.5728640054421916  0.6966850554326953  1.0000
  H   H80       1.0  0.42713653926504935  0.335710854383798  0.696685117248478  1.0000
  H   H81       1.0  0.6642902878646593  0.09142569635617531  0.6966845580917678  1.0000
  H   H82       1.0  0.5728641206899852  0.908573753153803  0.8033151248798163  1.0000
  H   H83       1.0  0.33571060535957986  0.4271366629168937  0.8033146272542382  1.0000
  H   H84       1.0  0.09142625728682657  0.6642904910941211  0.8033151879767431  1.0000
  H   H85       1.0  0.8874745039197266  0.382478986686472  0.3450970403674205  1.0000
  H   H86       1.0  0.6175189739662272  0.5049942959318797  0.3450982163020413  1.0000
  H   H87       1.0  0.4950048407615312  0.11252542351701311  0.3450976981178115  1.0000
  H   H88       1.0  0.3824790288360872  0.8874741598107574  0.1549024535938059  1.0000
  H   H89       1.0  0.5049944731281996  0.617518803576054  0.15490249721224095  1.0000
  H   H90       1.0  0.11252469473809869  0.495005363966996  0.1549019412908308  1.0000
  H   H91       1.0  0.11252548015586672  0.6175198965282503  0.6549022856708007  1.0000
  H   H92       1.0  0.3824809120067769  0.495005953675296  0.6549017033258409  1.0000
  H   H93       1.0  0.5049953132330813  0.8874758263592994  0.6549016279199833  1.0000
  H   H94       1.0  0.6175198568675029  0.11252582177480254  0.8450974660341686  1.0000
  H   H95       1.0  0.4950057789687674  0.38248107990744246  0.8450974224156909  1.0000
  H   H96       1.0  0.887474923213297  0.5049938853710358  0.8450985719271528  1.0000
  C   C1        1.0  0.8541178062860053  0.4887838611162463  0.43790183646979847  1.0000
  C   C2        1.0  0.5112162709796452  0.3653348065525038  0.4379024659190662  1.0000
  C   C3        1.0  0.6346647224511485  0.1458819544292495  0.43790250042602  1.0000
  C   C4        1.0  0.48878201374738955  0.8541170180203537  0.0620988286542428  1.0000
  C   C5        1.0  0.3653343507414134  0.511215532095896  0.0620983016009973  1.0000
  C   C6        1.0  0.14588198528937824  0.6346644954196563  0.0620976945836134  1.0000
  C   C7        1.0  0.14588298185405782  0.5112180229053465  0.5620974895678543  1.0000
  C   C8        1.0  0.48878234670257836  0.6346641747642748  0.5620968601191905  1.0000
  C   C9        1.0  0.36533616379161765  0.8541185632000748  0.5620956384320621  1.0000
  C   C10       1.0  0.5112178722254939  0.14588323158663738  0.937901684563549  1.0000
  C   C11       1.0  0.6346652672099892  0.4887837172421357  0.9379022116169863  1.0000
  C   C12       1.0  0.854118534828842  0.36533638833243726  0.937903412223946  1.0000
  C   C13       1.0  0.8154364013735389  0.5293968143534117  0.4923174045894498  1.0000
  C   C14       1.0  0.4706024771121379  0.2860393090380384  0.49231746207101407  1.0000
  C   C15       1.0  0.7139606212457037  0.18456371686923476  0.4923174705967384  1.0000
  C   C16       1.0  0.5293960259732984  0.8154359393422509  0.0076826665204734  1.0000
  C   C17       1.0  0.286039117581346  0.4706027662814022  0.0076833317772085  1.0000
  C   C18       1.0  0.1845635064784758  0.7139593897713611  0.007682698508851601  1.0000
  C   C19       1.0  0.1845628504541352  0.4706028011086545  0.5076819214486648  1.0000
  C   C20       1.0  0.5293971408396131  0.7139599403005407  0.5076812703772546  1.0000
  C   C21       1.0  0.28603989887298525  0.8154371668835835  0.5076812618511966  1.0000
  C   C22       1.0  0.47060359197821805  0.18456330999595846  0.9923172531076004  1.0000
  C   C23       1.0  0.7139607683915373  0.529397483325589  0.9923171814405832  1.0000
  C   C24       1.0  0.8154373797637078  0.28604112785706093  0.9923184082987575  1.0000
  C   C25       1.0  0.874399008679816  0.6210322878864926  0.5253672845655046  1.0000
  C   C26       1.0  0.37896757299240846  0.2533664618034236  0.5253679639798676  1.0000
  C   C27       1.0  0.7466335326270723  0.1256016945966394  0.5253673786807695  1.0000
  C   C28       1.0  0.6210309850973489  0.874398618664287  0.9746328926746061  1.0000
  C   C29       1.0  0.2533664624743609  0.3789672483241589  0.9746329963594106  1.0000
  C   C30       1.0  0.1256008977011049  0.7466323474686973  0.9746329353939415  1.0000
  C   C31       1.0  0.1256002431477369  0.3789673275753954  0.4746326350625267  1.0000
  C   C32       1.0  0.6210336793739727  0.7466336897016888  0.4746319556479861  1.0000
  C   C33       1.0  0.25336662136754007  0.8743995552796732  0.4746319473570182  1.0000
  C   C34       1.0  0.3789682667300908  0.12560099679741643  0.0253676205433209  1.0000
  C   C35       1.0  0.7466334234985298  0.6210330012828321  0.0253675168583811  1.0000
  C   C36       1.0  0.8743997205197049  0.2533671698909502  0.0253675778239568  1.0000
  C   C37       1.0  0.97514284471778  0.6767384822475079  0.5074693476882501  1.0000
  C   C38       1.0  0.3232608100701881  0.29840306410774536  0.5074706288503208  1.0000
  C   C39       1.0  0.7015962020916148  0.02485791397282352  0.5074700693194032  1.0000
  C   C40       1.0  0.6767375394130822  0.9751420413738927  0.9925307952003593  1.0000
  C   C41       1.0  0.2984037281825848  0.32326115160435615  0.9925303338316381  1.0000
  C   C42       1.0  0.024857067075259913  0.7015950051682296  0.9925308703542156  1.0000
  C   C43       1.0  0.024856773233736428  0.3232607670907015  0.492530571939831  1.0000
  C   C44       1.0  0.6767398081506285  0.701596453251902  0.49252988436757045  1.0000
  C   C45       1.0  0.2984033177573123  0.9751427017578395  0.49253044389833883  1.0000
  C   C46       1.0  0.32326171241435725  0.02485757408781104  0.007469718017574701  1.0000
  C   C47       1.0  0.7015967919357562  0.676739732147922  0.007470179386011499  1.0000
  C   C48       1.0  0.9751429170000988  0.29840387804613033  0.007469642863817702  1.0000
  C   C49       1.0  0.015822322022806565  0.6378504445048067  0.4571555253195001  1.0000
  C   C50       1.0  0.36214835402540757  0.37797134750905304  0.4571573389695303  1.0000
  C   C51       1.0  0.6220286099020099  0.9841775281783639  0.4571566260902741  1.0000
  C   C52       1.0  0.6378492709104363  0.015821656062620086  0.0428441039579113  1.0000
  C   C53       1.0  0.37797121508629766  0.3621487065621807  0.0428434585064181  1.0000
  C   C54       1.0  0.9841773775480221  0.6220279848168816  0.0428445748101041  1.0000
  C   C55       1.0  0.9841779300742812  0.3621494389788679  0.5428438007185292  1.0000
  C   C56       1.0  0.6378515319475968  0.6220289020981155  0.542842580658359  1.0000
  C   C57       1.0  0.377971276070994  0.015822721428804597  0.5428432935376151  1.0000
  C   C58       1.0  0.36214961479315383  0.98417832552294  0.9571558156700634  1.0000
  C   C59       1.0  0.6220293050321571  0.6378521771902753  0.957156461121329  1.0000
  C   C60       1.0  0.015822240403380768  0.3779712645211575  0.9571559384078796  1.0000
  C   C61       1.0  0.9577656723709251  0.5445309966786452  0.4219318794844327  1.0000
  C   C62       1.0  0.4554680675490984  0.41323479414295855  0.42193370388167745  1.0000
  C   C63       1.0  0.586764801234871  0.04223384556072309  0.4219331717157715  1.0000
  C   C64       1.0  0.5445301436365498  0.9577651043764775  0.0780675634615307  1.0000
  C   C65       1.0  0.4132346380911898  0.4554683627306559  0.0780670653614166  1.0000
  C   C66       1.0  0.042233826612573584  0.5867645641448078  0.0780670565690968  1.0000
  C   C67       1.0  0.04223457972627644  0.45546888680520686  0.5780668529636941  1.0000
  C   C68       1.0  0.5445311842785757  0.5867648213191076  0.5780656221564442  1.0000
  C   C69       1.0  0.4132350847382537  0.9577664040466229  0.5780661543222081  1.0000
  C   C70       1.0  0.4554691081910036  0.04223451108540376  0.9219323561664936  1.0000
  C   C71       1.0  0.5867652478817008  0.5445318868763352  0.9219334478563823  1.0000
  C   C72       1.0  0.9577667916082363  0.41323495321483955  0.9219334566487944  1.0000
  C   C73       1.0  0.006306722825854626  0.5082967853082678  0.3736463530344736  1.0000
  C   C74       1.0  0.4917014390440926  0.4980103151472122  0.3736475227005299  1.0000
  C   C75       1.0  0.5019898071544657  0.9936923939430995  0.3736474332261466  1.0000
  C   C76       1.0  0.5082961385456173  0.006306620173873482  0.1263533067781069  1.0000
  C   C77       1.0  0.49801016985738034  0.49170171324803386  0.12635321997277768  1.0000
  C   C78       1.0  0.9936918717982693  0.5019895717919951  0.1263531983518931  1.0000
  C   C79       1.0  0.9936935292711123  0.4917030981752288  0.6263535665934653  1.0000
  C   C80       1.0  0.5082980808049554  0.5019903005836355  0.6263523969273095  1.0000
  C   C81       1.0  0.4980110790879521  0.006308123685684584  0.6263524864016574  1.0000
  C   C82       1.0  0.4917031132819361  0.9936929952880149  0.8736466128499174  1.0000
  C   C83       1.0  0.501990082239466  0.5082981702352852  0.8736472932450638  1.0000
  C   C84       1.0  0.006308014174734938  0.49801067781518077  0.8736467212759962  1.0000
  C   C85       1.0  0.012281926291457504  0.38151698125301453  0.29429587051541256  1.0000
  C   C86       1.0  0.6184823356638276  0.6307648623763882  0.2942958015497581  1.0000
  C   C87       1.0  0.3692341201974471  0.9877173569602392  0.2942963409448822  1.0000
  C   C88       1.0  0.3815162266539573  0.012281747488991282  0.2057044094120215  1.0000
  C   C89       1.0  0.6307644456785796  0.6184815381385608  0.20570429054792777  1.0000
  C   C90       1.0  0.9877174608643811  0.3692345472716099  0.20570432109396108  1.0000
  C   C91       1.0  0.9877183258055097  0.6184829022304823  0.7057040491125264  1.0000
  C   C92       1.0  0.38151818445462743  0.3692360213760679  0.705704118077989  1.0000
  C   C93       1.0  0.6307651316299925  0.012282258501471638  0.7057041722730446  1.0000
  C   C94       1.0  0.6184830251734824  0.9877178679727124  0.7942961038059053  1.0000
  C   C95       1.0  0.3692358064183877  0.3815183453449363  0.7942956290800112  1.0000
  C   C96       1.0  0.012282157087014191  0.6307647020664218  0.7942961921240225  1.0000
  N   N1        1.0  0.9625221002664048  0.4232529858073094  0.337708022896166  1.0000
  N   N2        1.0  0.576746935691574  0.5392688549506631  0.33770861102865973  1.0000
  N   N3        1.0  0.4607309214815558  0.037477774278436016  0.33770811222819214  1.0000
  N   N4        1.0  0.4232520256914326  0.9625214557607148  0.1622920392242406  1.0000
  N   N5        1.0  0.5392690571113545  0.576746791969988  0.1622921039122716  1.0000
  N   N6        1.0  0.037477377543680676  0.4607310731575467  0.1622921447740282  1.0000
  N   N7        1.0  0.037477883808954005  0.5767458974070506  0.6622924903218674  1.0000
  N   N8        1.0  0.4232539505507304  0.4607316626779434  0.6622919021890468  1.0000
  N   N9        1.0  0.5392685983674923  0.9625228414524045  0.6622918073996402  1.0000
  N   N10       1.0  0.5767462258667067  0.037477891679564626  0.8377078804038759  1.0000
  N   N11       1.0  0.4607318291310634  0.4232537256587959  0.8377078157155253  1.0000
  N   N12       1.0  0.9625232406771287  0.5392684442020934  0.8377083684438701  1.0000
  N   N13       1.0  0.7912670650703788  0.5068919100810163  0.23804901818056828  1.0000
  N   N14       1.0  0.49310855734584885  0.2843739191287112  0.2380502572356562  1.0000
  N   N15       1.0  0.7156250282030354  0.20873451079435043  0.2380467004110685  1.0000
  N   N16       1.0  0.5068907207665558  0.7912654820996037  0.26195046958788026  1.0000
  N   N17       1.0  0.2843734235319673  0.4931063401661291  0.2619511256269647  1.0000
  N   N18       1.0  0.20873308682581623  0.715624773117831  0.2619504950722629  1.0000
  N   N19       1.0  0.20873472333909862  0.49311024196218517  0.761950307856992  1.0000
  N   N20       1.0  0.5068913286275106  0.7156263304789974  0.7619478816225111  1.0000
  N   N21       1.0  0.28437485777031674  0.791265738813358  0.761951438447099  1.0000
  N   N22       1.0  0.4931108977236676  0.20873430328165193  0.7380500436299258  1.0000
  N   N23       1.0  0.7156265605436261  0.5068925430485862  0.7380482004112565  1.0000
  N   N24       1.0  0.7912671652709165  0.2843751103653034  0.7380506117354884  1.0000
  O   O1        1.0  0.7989563265689058  0.4038880236605421  0.4038197022844017  1.0000
  O   O2        1.0  0.5961118280049078  0.39506867329934175  0.4038197119603737  1.0000
  O   O3        1.0  0.6049310314559334  0.20104359007458317  0.4038203400608467  1.0000
  O   O4        1.0  0.40388786166173657  0.7989550636659715  0.0961815871817961  1.0000
  O   O5        1.0  0.3950679257182302  0.5961100350374126  0.09618103039083789  1.0000
  O   O6        1.0  0.2010430064355402  0.6049301832559023  0.09617984936573272  1.0000
  O   O7        1.0  0.20104455967362606  0.5961124939684195  0.5961796237534926  1.0000
  O   O8        1.0  0.4038873257204115  0.6049323085555398  0.5961790204875967  1.0000
  O   O9        1.0  0.39506985478695356  0.7989569275549187  0.5961772052073258  1.0000
  O   O10       1.0  0.5961123904349961  0.20104481981717015  0.9038195196259551  1.0000
  O   O11       1.0  0.6049320583571287  0.40388884817694753  0.9038194828271955  1.0000
  O   O12       1.0  0.7989575136825663  0.39507070049601356  0.9038218510317364  1.0000
  O   O13       1.0  0.7844637198600068  0.4232369920793884  0.2246707041788625  1.0000
  O   O14       1.0  0.5767629589618009  0.36122425608969866  0.2246707236063159  1.0000
  O   O15       1.0  0.6387752480140706  0.2155403723190332  0.224664811410058  1.0000
  O   O16       1.0  0.4232351198204185  0.7844614776713641  0.2753282098616481  1.0000
  O   O17       1.0  0.36122513855352867  0.5767606132484459  0.2753288432447079  1.0000
  O   O18       1.0  0.21553569653460158  0.6387732239809835  0.27533061868346204  1.0000
  O   O19       1.0  0.21553843467295758  0.5767647938394234  0.7753309962183793  1.0000
  O   O20       1.0  0.4232366589901843  0.6387749932492354  0.7753268216621408  1.0000
  O   O21       1.0  0.361225808147715  0.7844625119718812  0.7753333274475834  1.0000
  O   O22       1.0  0.5767664005675641  0.21553967410287805  0.724671116176104  1.0000
  O   O23       1.0  0.6387769441639506  0.4232374396177647  0.7246675148440503  1.0000
  O   O24       1.0  0.7844655558314314  0.3612269275235886  0.7246710817141063  1.0000
  O   O25       1.0  0.8401550586807077  0.5787819873783351  0.19519774799034204  1.0000
  O   O26       1.0  0.42121717073133885  0.26137179513942504  0.1951990089134199  1.0000
  O   O27       1.0  0.7386300810053044  0.15984749870450793  0.1951960465443818  1.0000
  O   O28       1.0  0.5787818735591799  0.8401574485161092  0.304801713258243  1.0000
  O   O29       1.0  0.26137191899597667  0.42121559789440244  0.3048029883746324  1.0000
  O   O30       1.0  0.15984475329318568  0.7386285112661923  0.3048017482120144  1.0000
  O   O31       1.0  0.15984719395520128  0.4212184321485637  0.804801578047517  1.0000
  O   O32       1.0  0.5787816168699038  0.7386295528389509  0.8048003171244034  1.0000
  O   O33       1.0  0.26136726838589647  0.8401502143215255  0.8048038730840616  1.0000
  O   O34       1.0  0.42122028097402614  0.1598443374030651  0.6951987999591793  1.0000
  O   O35       1.0  0.7386286992248399  0.5787839194652378  0.695197524843266  1.0000
  O   O36       1.0  0.8401538643890376  0.2613704700505863  0.695197577826242  1.0000
  O   O37       1.0  0.7437225005383254  0.5102846871697437  0.2985257398728862  1.0000
  O   O38       1.0  0.4897146210557323  0.2334380735584105  0.2985275805184955  1.0000
  O   O39       1.0  0.7665573216649407  0.2562735493693892  0.29852697178247206  1.0000
  O   O40       1.0  0.5102845426835431  0.743721241728487  0.201474944769636  1.0000
  O   O41       1.0  0.23343584993096292  0.48971288683852515  0.2014744078631452  1.0000
  O   O42       1.0  0.2562750699997877  0.7665592531018959  0.2014731700286347  1.0000
  O   O43       1.0  0.2562749206698881  0.4897167589112285  0.7014718053952578  1.0000
  O   O44       1.0  0.5102849968962532  0.7665611757805239  0.7014699647499538  1.0000
  O   O45       1.0  0.23344456484735332  0.7437272362817282  0.701470573485615  1.0000
  O   O46       1.0  0.4897155394939433  0.25627627509269507  0.798527349218361  1.0000
  O   O47       1.0  0.7665611333360475  0.5102851923108177  0.7985266989450608  1.0000
  O   O48       1.0  0.7437261823662381  0.2334408984026764  0.7985285303689338  1.0000
