data_image0
_chemical_formula_structural       Hg2H16C20S4N4Cl4
_chemical_formula_sum              "Hg2 H16 C20 S4 N4 Cl4"
_cell_length_a       8.030739468026855
_cell_length_b       8.030702577508338
_cell_length_c       11.29784722449535
_cell_angle_alpha    87.57233857617584
_cell_angle_beta     87.57200271259713
_cell_angle_gamma    73.59988778356669

_space_group_name_H-M_alt    "P 1"
_space_group_IT_number       1

loop_
  _space_group_symop_operation_xyz
  'x, y, z'

loop_
  _atom_site_type_symbol
  _atom_site_label
  _atom_site_symmetry_multiplicity
  _atom_site_fract_x
  _atom_site_fract_y
  _atom_site_fract_z
  _atom_site_occupancy
  Hg  Hg1       1.0  0.9960937749947406  0.0039052715182777017  0.2500001576831963  1.0000
  Hg  Hg2       1.0  0.003906653170318405  0.9960947894395961  0.7500010500161168  1.0000
  H   H1        1.0  0.738913314176429  0.005927278732784201  0.4845065996295758  1.0000
  H   H2        1.0  0.9940704774406015  0.2610846044417344  0.01549170058417811  1.0000
  H   H3        1.0  0.26108586218726504  0.9940727902377591  0.5154937627058587  1.0000
  H   H4        1.0  0.005931552293631549  0.738914144763392  0.9845086127174412  1.0000
  H   H5        1.0  0.577720556799477  0.19244688049892741  0.647608143679463  1.0000
  H   H6        1.0  0.8075499167906981  0.4222745585991135  0.8523904305065955  1.0000
  H   H7        1.0  0.42227987136558176  0.8075531804589393  0.35239306401985  1.0000
  H   H8        1.0  0.19245156831004095  0.5777215987865035  0.1476082128068228  1.0000
  H   H9        1.0  0.7925009254032034  0.5993731441469594  0.5018396228484292  1.0000
  H   H10       1.0  0.4006244098444256  0.20749427538734014  0.9981628822250385  1.0000
  H   H11       1.0  0.207496999159133  0.4006269328362607  0.49815989412311973  1.0000
  H   H12       1.0  0.5993779747457779  0.7925031751763502  0.001837461247553989  1.0000
  H   H13       1.0  0.9471776210915763  0.39374901768059817  0.3485916668765725  1.0000
  H   H14       1.0  0.606250694481865  0.05282408157216172  0.1514094951722242  1.0000
  H   H15       1.0  0.052819054213479336  0.6062510698646124  0.6514078896973743  1.0000
  H   H16       1.0  0.39374902397123884  0.9471785766685842  0.848591652185128  1.0000
  C   C1        1.0  0.7476595841958938  0.1382437092950681  0.49264457605373474  1.0000
  C   C2        1.0  0.8617563087151224  0.2523378031272188  0.007354822324600705  1.0000
  C   C3        1.0  0.2523392373118226  0.861757658316911  0.5073557561107194  1.0000
  C   C4        1.0  0.138248224621833  0.7476609300525613  0.9926471817047826  1.0000
  C   C5        1.0  0.657408637871242  0.24267154975078142  0.5829349894598437  1.0000
  C   C6        1.0  0.7573253708531809  0.34258666979067  0.9170643957791498  1.0000
  C   C7        1.0  0.34259089080434535  0.757327218029012  0.4170645180802878  1.0000
  C   C8        1.0  0.24267540707968746  0.657412087427133  0.082935072158584  1.0000
  C   C9        1.0  0.6724547147996843  0.41153733671730225  0.5881780356121311  1.0000
  C   C10       1.0  0.5884601128960015  0.3275429539111344  0.9118198210340012  1.0000
  C   C11       1.0  0.3275449960211674  0.5884653138755028  0.41182045684639235  1.0000
  C   C12       1.0  0.41154191429414055  0.6724557927446783  0.0881796073013419  1.0000
  C   C13       1.0  0.7774127064312637  0.4686528405743717  0.5025683599828596  1.0000
  C   C14       1.0  0.5313440964645082  0.22258435266351745  0.997428543508363  1.0000
  C   C15       1.0  0.22258646484426237  0.5313472232975444  0.4974302324200152  1.0000
  C   C16       1.0  0.4686566865565283  0.777414409652913  0.002572694361930396  1.0000
  C   C17       1.0  0.8636077189621714  0.35445033379020435  0.41640666673117716  1.0000
  C   C18       1.0  0.6455481421018233  0.1363946912064193  0.0835937232413713  1.0000
  C   C19       1.0  0.1363898532882714  0.6455510443837655  0.5835937050356677  1.0000
  C   C20       1.0  0.35445443480998756  0.8636066523675442  0.9164091450147255  1.0000
  S   S1        1.0  0.5671178922434024  0.5630843942884596  0.6953080879720163  1.0000
  S   S2        1.0  0.43691401651140166  0.4328752755681153  0.8046930951082487  1.0000
  S   S3        1.0  0.43288128412029875  0.4369156746820835  0.3046922743634184  1.0000
  S   S4        1.0  0.5630878259893919  0.5671195857253722  0.1953064633424333  1.0000
  N   N1        1.0  0.8494399232002364  0.19207713763895384  0.4112997344853966  1.0000
  N   N2        1.0  0.8079205842018737  0.15055935473994717  0.08870045786324708  1.0000
  N   N3        1.0  0.15055835876216142  0.8079216432521437  0.588700697623409  1.0000
  N   N4        1.0  0.19207948910721476  0.8494420048593627  0.9113007196650855  1.0000
  Cl  Cl1       1.0  0.2277372519837471  0.13575241943591723  0.2111201239981284  1.0000
  Cl  Cl2       1.0  0.8642538249959127  0.7722582224449044  0.2888784899421992  1.0000
  Cl  Cl3       1.0  0.7722653172958044  0.8642489164900983  0.7888800893591323  1.0000
  Cl  Cl4       1.0  0.13574926676216137  0.22773662828659275  0.711121028906085  1.0000
