data_image0
_chemical_formula_structural       Cu4H64C64S8I4
_chemical_formula_sum              "Cu4 H64 C64 S8 I4"
_cell_length_a       7.107742692006707
_cell_length_b       12.065615425000589
_cell_length_c       20.721094520022778
_cell_angle_alpha    89.99996494853058
_cell_angle_beta     90.00016176680658
_cell_angle_gamma    89.99999337051045

_space_group_name_H-M_alt    "P 1"
_space_group_IT_number       1

loop_
  _space_group_symop_operation_xyz
  'x, y, z'

loop_
  _atom_site_type_symbol
  _atom_site_label
  _atom_site_symmetry_multiplicity
  _atom_site_fract_x
  _atom_site_fract_y
  _atom_site_fract_z
  _atom_site_occupancy
  Cu  Cu1       1.0  0.23502282768333774  0.8378474514415402  0.7499989546794767  1.0000
  Cu  Cu2       1.0  0.2649810623578546  0.3378458685696941  0.250001337801571  1.0000
  Cu  Cu3       1.0  0.7350212535699825  0.6621514697339778  0.7499992211955588  1.0000
  Cu  Cu4       1.0  0.7649808951523555  0.16215320206907077  0.2499996739177704  1.0000
  H   H1        1.0  0.36236211848220273  0.18419318842470733  0.894000693118784  1.0000
  H   H2        1.0  0.1376331795289119  0.6841953061430812  0.3939998841913309  1.0000
  H   H3        1.0  0.3623679354448797  0.18419665630189294  0.6059966017231349  1.0000
  H   H4        1.0  0.862370354007176  0.3158068522993744  0.8940023532033481  1.0000
  H   H5        1.0  0.637634569775507  0.8158066362840726  0.10599890067528153  1.0000
  H   H6        1.0  0.8623635087291177  0.315802032161237  0.6059997096031682  1.0000
  H   H7        1.0  0.6376371942952164  0.8158023396072378  0.3939991312751305  1.0000
  H   H8        1.0  0.1376333688469842  0.6841929724074448  0.10600061879394934  1.0000
  H   H9        1.0  0.5211611747347716  0.2607412386880412  0.9905144785277646  1.0000
  H   H10       1.0  0.9788345412872204  0.7607474837865097  0.4905125432231048  1.0000
  H   H11       1.0  0.5211605479549846  0.26074812409520115  0.5094834214853565  1.0000
  H   H12       1.0  0.021165587571580602  0.23925622993564846  0.990515694612839  1.0000
  H   H13       1.0  0.47883832736266635  0.7392527844095014  0.009486563068613004  1.0000
  H   H14       1.0  0.021164960803254505  0.239253169723689  0.5094870505721334  1.0000
  H   H15       1.0  0.478841767954286  0.7392508718137522  0.4905127941115739  1.0000
  H   H16       1.0  0.9788339145372548  0.7607444235722483  0.009488242582307304  1.0000
  H   H17       1.0  0.29455234809518055  0.9969470109815433  0.10628440630247844  1.0000
  H   H18       1.0  0.2054390312614345  0.4969523601239488  0.6062850674033913  1.0000
  H   H19       1.0  0.2945549702024834  0.9969485162175074  0.3937142037135858  1.0000
  H   H20       1.0  0.7945550348924258  0.5030509321572794  0.10628569417865924  1.0000
  H   H21       1.0  0.7054401194138578  0.0030478409184197994  0.8937151874904717  1.0000
  H   H22       1.0  0.7945604708329129  0.5030499509887179  0.3937154915915359  1.0000
  H   H23       1.0  0.7054389042060336  0.0030513084933901004  0.6062815292792296  1.0000
  H   H24       1.0  0.20544024646078193  0.4969513789544564  0.893716795214232  1.0000
  H   H25       1.0  0.146337520931425  0.9162922495660979  0.008881194822784303  1.0000
  H   H26       1.0  0.35366008977428715  0.4162951050797615  0.5088839259506133  1.0000
  H   H27       1.0  0.1463409666418158  0.9162936515344239  0.4911182692390883  1.0000
  H   H28       1.0  0.6463387804567161  0.5837066328641994  0.008882936829117203  1.0000
  H   H29       1.0  0.8536591673204726  0.08370508873899499  0.9911169511717478  1.0000
  H   H30       1.0  0.6463394123243446  0.5837055484294141  0.4911175982445857  1.0000
  H   H31       1.0  0.8536529077790506  0.08370534437345611  0.5088803593538105  1.0000
  H   H32       1.0  0.3536607216395708  0.4162965070496868  0.9911181047656544  1.0000
  H   H33       1.0  0.076970450176951  0.9173543035674783  0.8977574702201071  1.0000
  H   H34       1.0  0.42303044843132653  0.41735934340481146  0.39776048483051357  1.0000
  H   H35       1.0  0.07697060770964008  0.9173610906334633  0.6022402621830028  1.0000
  H   H36       1.0  0.5769674892192853  0.5826419822515375  0.897758729999801  1.0000
  H   H37       1.0  0.9230290519078183  0.0826430347375435  0.10224067577574662  1.0000
  H   H38       1.0  0.5769676467447553  0.5826413101051668  0.6022395915640574  1.0000
  H   H39       1.0  0.923031708215433  0.0826420492808708  0.39775981421311024  1.0000
  H   H40       1.0  0.4230320128735414  0.4173561848539435  0.10224134639587135  1.0000
  H   H41       1.0  0.10022950863573503  0.03992954409206109  0.8516920192214673  1.0000
  H   H42       1.0  0.3997710957204533  0.5399341354387062  0.35169387023416493  1.0000
  H   H43       1.0  0.10023568334693779  0.0399379399217139  0.6483065274028379  1.0000
  H   H44       1.0  0.6002348939160883  0.4600647526521442  0.8516936283844391  1.0000
  H   H45       1.0  0.8997714003634344  0.960067794213181  0.14830564417506054  1.0000
  H   H46       1.0  0.6002312202066591  0.46006900447537186  0.6483066887619419  1.0000
  H   H47       1.0  0.899773667149681  0.9600685151996727  0.351691135996056  1.0000
  H   H48       1.0  0.399773049683823  0.5399309280476531  0.14830837841559946  1.0000
  H   H49       1.0  0.36144336777363856  0.7648879722764904  0.9032269368023695  1.0000
  H   H50       1.0  0.1385618363132934  0.2648897107712783  0.40322968343188853  1.0000
  H   H51       1.0  0.3614434790587212  0.7648906211338657  0.5967706348015513  1.0000
  H   H52       1.0  0.8614347406774884  0.7351091226807894  0.9032305557626049  1.0000
  H   H53       1.0  0.6385561343053255  0.23510687962484408  0.09676976139395785  1.0000
  H   H54       1.0  0.8614348519445232  0.7351092851360119  0.5967699103623191  1.0000
  H   H55       1.0  0.6385574299480793  0.2351108611777804  0.40322895899420547  1.0000
  H   H56       1.0  0.13855772684327414  0.2648898732250727  0.09677193362955454  1.0000
  H   H57       1.0  0.562189026159139  0.7786817370087604  0.853267312798579  1.0000
  H   H58       1.0  0.9378167801711044  0.278680145715512  0.35326696313715905  1.0000
  H   H59       1.0  0.562188152976077  0.7786818464929939  0.6467328560459082  1.0000
  H   H60       1.0  0.062183595108443505  0.7213212271111685  0.8532685352105677  1.0000
  H   H61       1.0  0.43781188285012024  0.22131643009669233  0.14673276359774695  1.0000
  H   H62       1.0  0.0621785011678142  0.7213221653980139  0.6467321480558045  1.0000
  H   H63       1.0  0.43781416294511644  0.2213196358188796  0.35326625515051563  1.0000
  H   H64       1.0  0.9378145000796679  0.2786810840002474  0.14673443678363907  1.0000
  C   C1        1.0  0.34404286227111663  0.1438040100570745  0.9407332616118541  1.0000
  C   C2        1.0  0.1559556549274816  0.6438086132857775  0.4407348829428131  1.0000
  C   C3        1.0  0.3440454702507195  0.14380586987736876  0.559264030227766  1.0000
  C   C4        1.0  0.844052494518003  0.3561976396167238  0.9407349074404795  1.0000
  C   C5        1.0  0.6559580467277327  0.8561958146526294  0.05926440178424032  1.0000
  C   C6        1.0  0.8440438471654446  0.3561887250182208  0.5592651934530013  1.0000
  C   C7        1.0  0.6559638802488834  0.8561931260303909  0.4407341157724361  1.0000
  C   C8        1.0  0.15595685599515016  0.6438071578996443  0.059266616758627315  1.0000
  C   C9        1.0  0.432388997557254  0.18739976602688552  0.9951942217575298  1.0000
  C   C10       1.0  0.06760574837633732  0.6874035447609401  0.495193346861747  1.0000
  C   C11       1.0  0.4323925519652149  0.18740334118848523  0.5048055509191942  1.0000
  C   C12       1.0  0.9323958269691346  0.3125993351981861  0.9951944351734742  1.0000
  C   C13       1.0  0.5676090976231195  0.8125992298796092  0.004806819837305902  1.0000
  C   C14       1.0  0.9323909398814794  0.3125954511463576  0.5048062469324607  1.0000
  C   C15       1.0  0.56761679852805  0.8125973123230141  0.4951911472807496  1.0000
  C   C16       1.0  0.0676064889704264  0.6874021471113851  0.004809019422864901  1.0000
  C   C17       1.0  0.41921910606036766  0.1339964408759755  0.05516280042302672  1.0000
  C   C18       1.0  0.0807831879671141  0.6340021752711705  0.5551617198017598  1.0000
  C   C19       1.0  0.41921653276980925  0.1339995495150319  0.44483719682955336  1.0000
  C   C20       1.0  0.9192174804946092  0.36600200001215905  0.05516299498513892  1.0000
  C   C21       1.0  0.5807818029534957  0.8659975822215245  0.9448382411740116  1.0000
  C   C22       1.0  0.9192163141251868  0.36600013584174446  0.4448383565931808  1.0000
  C   C23       1.0  0.5807829693127146  0.8659994463932178  0.5551604665660224  1.0000
  C   C24       1.0  0.08077639394409893  0.6340011399008461  0.9448399770069433  1.0000
  C   C25       1.0  0.3070710152111644  0.03900916034311311  0.059876318461803614  1.0000
  C   C26       1.0  0.19293274956751824  0.53901571807382  0.5598763086885017  1.0000
  C   C27       1.0  0.30707262280628095  0.039009787575956495  0.4401216762737905  1.0000
  C   C28       1.0  0.8070749933440807  0.4609909386149411  0.05987840989821081  1.0000
  C   C29       1.0  0.6929256730448258  0.960988177961461  0.9401227927327089  1.0000
  C   C30       1.0  0.8070639386958974  0.4609874218401443  0.4401247329049412  1.0000
  C   C31       1.0  0.6929282861949277  0.9609875507290297  0.5598764697227312  1.0000
  C   C32       1.0  0.19292732259087592  0.5390146877025757  0.9401240794974162  1.0000
  C   C33       1.0  0.22366302936513446  0.9939625521803492  0.0051256244175519015  1.0000
  C   C34       1.0  0.27633171614003516  0.49396292505903006  0.5051263523011615  1.0000
  C   C35       1.0  0.22366932066050543  0.9939598061599921  0.4948729198741973  1.0000
  C   C36       1.0  0.723668529245714  0.5060379880658701  0.005127876441150602  1.0000
  C   C37       1.0  0.7763308450553198  0.0060397589334755  0.9948730041747641  1.0000
  C   C38       1.0  0.7236635652074668  0.5060360708475359  0.4948746892923525  1.0000
  C   C39       1.0  0.7763301814302821  0.006038360945744602  0.5051266739214813  1.0000
  C   C40       1.0  0.27633097285087876  0.49396266544356143  0.9948731651540615  1.0000
  C   C41       1.0  0.2440434916458827  0.0439367465516511  0.9445486676534788  1.0000
  C   C42       1.0  0.2559550830234727  0.5439388585022655  0.44455086578781805  1.0000
  C   C43       1.0  0.24405028811096235  0.0439394392187253  0.5554480826355646  1.0000
  C   C44       1.0  0.7440502848617498  0.4560615887434736  0.9445522086307964  1.0000
  C   C45       1.0  0.7559503827728379  0.9560630781579673  0.05544947833928402  1.0000
  C   C46       1.0  0.7440458259920107  0.45605847980093017  0.5554506584086242  1.0000
  C   C47       1.0  0.7559506208874679  0.9560637006969228  0.4445495807599402  1.0000
  C   C48       1.0  0.25595484490670367  0.5439390647650483  0.05545028076702613  1.0000
  C   C49       1.0  0.1740701347279341  0.9848999712088541  0.885572819497249  1.0000
  C   C50       1.0  0.32592782996037073  0.48490335817662356  0.3855733296352924  1.0000
  C   C51       1.0  0.17407320913081037  0.984900943745103  0.6144269109377022  1.0000
  C   C52       1.0  0.674074225398769  0.515098809200886  0.8855736205216689  1.0000
  C   C53       1.0  0.8259293673604946  0.015100682301600402  0.11442629169800264  1.0000
  C   C54       1.0  0.674074485968987  0.5150981241342265  0.6144277119610921  1.0000
  C   C55       1.0  0.8259276998720111  0.015099709765579  0.3855717176582162  1.0000
  C   C56       1.0  0.32593090436366623  0.484901015506928  0.11442742107633565  1.0000
  C   C57       1.0  0.47127422686622117  0.8231750998863632  0.8878643727785661  1.0000
  C   C58       1.0  0.028730832601191  0.3231768437346858  0.3878650855435241  1.0000
  C   C59       1.0  0.4712716542303427  0.8231769036533125  0.612136177314895  1.0000
  C   C60       1.0  0.9712628006323669  0.6768244924124643  0.8878641515109398  1.0000
  C   C61       1.0  0.5287294959799881  0.1768230672185069  0.11213666881906903  1.0000
  C   C62       1.0  0.971267262576724  0.6768254673780091  0.6121354734507423  1.0000
  C   C63       1.0  0.5287292547745253  0.17682374985710686  0.38786293388101717  1.0000
  C   C64       1.0  0.028729666882057407  0.3231761610971375  0.11213689008095436  1.0000
  S   S1        1.0  0.36628989054367617  0.9289094795081925  0.8361363421823429  1.0000
  S   S2        1.0  0.1337104841039789  0.42890873183508654  0.3361386016444429  1.0000
  S   S3        1.0  0.3662961967920282  0.9289079132273486  0.6638631064955265  1.0000
  S   S4        1.0  0.8662897463387723  0.5710926591519865  0.8361385712409802  1.0000
  S   S5        1.0  0.6337110184612982  0.0710903452007443  0.16386276901371846  1.0000
  S   S6        1.0  0.866290424909046  0.5710919216743093  0.6638624399514301  1.0000
  S   S7        1.0  0.633708932962243  0.07109191148148142  0.3361360047025174  1.0000
  S   S8        1.0  0.1337125695968098  0.4289079943566065  0.16386391815552065  1.0000
  I   I1        1.0  0.8654058014116827  0.8661021075576373  0.7499997292143663  1.0000
  I   I2        1.0  0.6345934820065081  0.3661021886437296  0.2500005417086727  1.0000
  I   I3        1.0  0.3654046131717124  0.6338976360645034  0.750000017286027  1.0000
  I   I4        1.0  0.13459510759747667  0.13389688834929814  0.2500003471818175  1.0000
