data_image0
_chemical_formula_structural       Ca2H12C20N8O8
_chemical_formula_sum              "Ca2 H12 C20 N8 O8"
_cell_length_a       6.56661086640239
_cell_length_b       6.566614500854698
_cell_length_c       13.71431956312945
_cell_angle_alpha    103.77698809111787
_cell_angle_beta     103.775941231015
_cell_angle_gamma    90.08274770617895

_space_group_name_H-M_alt    "P 1"
_space_group_IT_number       1

loop_
  _space_group_symop_operation_xyz
  'x, y, z'

loop_
  _atom_site_type_symbol
  _atom_site_label
  _atom_site_symmetry_multiplicity
  _atom_site_fract_x
  _atom_site_fract_y
  _atom_site_fract_z
  _atom_site_occupancy
  Ca  Ca1       1.0  0.8754812460028062  0.12452330461702837  0.7499996665625092  1.0000
  Ca  Ca2       1.0  0.12452494358362999  0.8754809915256841  0.250002301294451  1.0000
  H   H1        1.0  0.7392170975416192  0.8178994240323405  0.4789093211841405  1.0000
  H   H2        1.0  0.2607778279045263  0.18210015283268888  0.5210915526144362  1.0000
  H   H3        1.0  0.7396536108260463  0.16067526157139864  0.478967801835836  1.0000
  H   H4        1.0  0.2603409308017532  0.8393180314821507  0.5210323113698436  1.0000
  H   H5        1.0  0.8393192292477069  0.26033639292768374  0.0210272326825276  1.0000
  H   H6        1.0  0.8178944935425108  0.7392111272779117  0.97890484457853  1.0000
  H   H7        1.0  0.1606755035675604  0.7396600413640327  0.9789761773206253  1.0000
  H   H8        1.0  0.1820981929295016  0.26077745269142827  0.02109160271873379  1.0000
  H   H9        1.0  0.6888626863727224  0.4389442754617575  0.3779796638891639  1.0000
  H   H10       1.0  0.311130478428815  0.5610521579367926  0.6220235671512739  1.0000
  H   H11       1.0  0.561053033923173  0.3111276400710493  0.1220193307633863  1.0000
  H   H12       1.0  0.4389368040242942  0.688865650636778  0.8779787873036471  1.0000
  C   C1        1.0  0.8943861001309871  0.6433599771725512  0.7879474173956356  1.0000
  C   C2        1.0  0.1056173377876206  0.35665060149598554  0.2120527657530289  1.0000
  C   C3        1.0  0.35664973640339065  0.10561513001825769  0.7120477121387339  1.0000
  C   C4        1.0  0.6433597825630883  0.8943923111516838  0.2879491609380338  1.0000
  C   C5        1.0  0.8350990417690836  0.5843378450161649  0.6695249976439186  1.0000
  C   C6        1.0  0.1648946038879515  0.4156664441480941  0.3304748093861036  1.0000
  C   C7        1.0  0.4156653921744038  0.1648915924222933  0.8304711022281454  1.0000
  C   C8        1.0  0.5843430703894797  0.8350985674316005  0.16952732484443092  1.0000
  C   C9        1.0  0.7590523806946552  0.6902163330745736  0.5181178685752812  1.0000
  C   C10       1.0  0.24094392121690325  0.3097801031116702  0.4818813456390387  1.0000
  C   C11       1.0  0.7593428283474138  0.32740179423208093  0.5182007463391258  1.0000
  C   C12       1.0  0.24065945703357977  0.6725899320006477  0.4818015297823806  1.0000
  C   C13       1.0  0.6725921127934882  0.24065704149215605  0.9817960223987683  1.0000
  C   C14       1.0  0.6902125144168637  0.759049706543543  0.01811521461379333  1.0000
  C   C15       1.0  0.3274030042009812  0.7593456769448321  0.018206689946772783  1.0000
  C   C16       1.0  0.3097809404135532  0.24095144171633348  0.9818798373682469  1.0000
  C   C17       1.0  0.7311948945248546  0.4809257067638555  0.46227624563121594  1.0000
  C   C18       1.0  0.2688012145753902  0.5190675866821834  0.5377262339129345  1.0000
  C   C19       1.0  0.5190680072592927  0.26879766729314264  0.03772186322679259  1.0000
  C   C20       1.0  0.48092163859857356  0.7311924813420557  0.9622766036690464  1.0000
  N   N1        1.0  0.8113441755691183  0.742685189820925  0.622204518877254  1.0000
  N   N2        1.0  0.18866025463569264  0.2573159640235616  0.37779470234477236  1.0000
  N   N3        1.0  0.8115390373929898  0.3788196361045521  0.622285663394905  1.0000
  N   N4        1.0  0.18845921580935962  0.6211830842856685  0.37771667775079726  1.0000
  N   N5        1.0  0.6211822058928647  0.1884557694697263  0.8777107004147596  1.0000
  N   N6        1.0  0.7426846681432548  0.8113395836291842  0.1222020214686452  1.0000
  N   N7        1.0  0.37882359951436945  0.8115422425277213  0.12229196509980511  1.0000
  N   N8        1.0  0.25731662693623036  0.18866156926342367  0.8777931962016794  1.0000
  O   O1        1.0  0.9162441173445971  0.8373863858863827  0.8324151486010295  1.0000
  O   O2        1.0  0.0837654968547596  0.16262262556885074  0.16758483112499084  1.0000
  O   O3        1.0  0.9170663159432876  0.4937423447224416  0.8324552059366539  1.0000
  O   O4        1.0  0.08292291353632211  0.5062666546209299  0.1675446346499214  1.0000
  O   O5        1.0  0.5062754645792326  0.08292954411641772  0.6675424105962194  1.0000
  O   O6        1.0  0.8373844113814073  0.9162473782644369  0.33241561259713137  1.0000
  O   O7        1.0  0.4937444536732655  0.9170684765871184  0.3324589490817047  1.0000
  O   O8        1.0  0.1626258754021919  0.083772630695357  0.6675820525401832  1.0000
