data_image0
_chemical_formula_structural       Fe4H30C24O14
_chemical_formula_sum              "Fe4 H30 C24 O14"
_cell_length_a       5.022014234121012
_cell_length_b       12.090097202116983
_cell_length_c       12.425796484097424
_cell_angle_alpha    118.76573226636373
_cell_angle_beta     93.97064756713937
_cell_angle_gamma    90.96285315211715

_space_group_name_H-M_alt    "P 1"
_space_group_IT_number       1

loop_
  _space_group_symop_operation_xyz
  'x, y, z'

loop_
  _atom_site_type_symbol
  _atom_site_label
  _atom_site_symmetry_multiplicity
  _atom_site_fract_x
  _atom_site_fract_y
  _atom_site_fract_z
  _atom_site_occupancy
  Fe  Fe1       1.0  0.4573382164567478  0.0014833135709083002  0.38120613747129556  1.0000
  Fe  Fe2       1.0  0.5543925789803127  0.007515021755807502  0.6274095176285854  1.0000
  Fe  Fe3       1.0  0.9642156991528099  0.8575028474438683  0.39187593671417903  1.0000
  Fe  Fe4       1.0  0.0339089910305788  0.1344275078938182  0.6057479374664965  1.0000
  H   H1        1.0  0.2328543609095064  0.02987532529351711  0.1501709896556633  1.0000
  H   H2        1.0  0.7671332640642349  0.9694553058290084  0.8493157530642679  1.0000
  H   H3        1.0  0.6664190850985962  0.08141267517103762  0.08138567403406682  1.0000
  H   H4        1.0  0.3324225636109973  0.9178244745316845  0.9190110350196505  1.0000
  H   H5        1.0  0.9047803255389298  0.1958916690459276  0.19121488384601554  1.0000
  H   H6        1.0  0.09426080568459842  0.8033452933235525  0.8089563341564627  1.0000
  H   H7        1.0  0.1035467850166185  0.8050211877161928  0.012352839973203782  1.0000
  H   H8        1.0  0.8952786069334737  0.194354288763968  0.9878991307653281  1.0000
  H   H9        1.0  0.7868824192264654  0.8431715800575148  0.9711849929026358  1.0000
  H   H10       1.0  0.2118718542804672  0.15624532326771148  0.029102956478595798  1.0000
  H   H11       1.0  0.7092540611172496  0.5849663956526783  0.16571353104533423  1.0000
  H   H12       1.0  0.29201109019333427  0.41350782744548553  0.8331604433826814  1.0000
  H   H13       1.0  0.3214784515655396  0.44447162085405983  0.15218816483979944  1.0000
  H   H14       1.0  0.6797130934627374  0.5542667446213941  0.8469784084929801  1.0000
  H   H15       1.0  0.13387344458097059  0.48639696370879193  0.053704850593192174  1.0000
  H   H16       1.0  0.8673154080129991  0.5123875830075448  0.9455453021023318  1.0000
  H   H17       1.0  0.3477033021046055  0.6528462385893191  0.00041622817834512164  1.0000
  H   H18       1.0  0.653235084616135  0.3458425877013198  0.9987151863960977  1.0000
  H   H19       1.0  0.6720507900680418  0.7195125912989015  0.06890899010680593  1.0000
  H   H20       1.0  0.328679336110639  0.27923994221648485  0.9303583920450864  1.0000
  H   H21       1.0  0.1230149914310843  0.42227164686416074  0.4606954124369267  1.0000
  H   H22       1.0  0.8734622251964057  0.580842594525663  0.5414117046774792  1.0000
  H   H23       1.0  0.6929506374604841  0.3443225153140261  0.39818434413192  1.0000
  H   H24       1.0  0.30345296913689174  0.6581444940997869  0.6040304360438357  1.0000
  H   H25       1.0  0.4192936352474703  0.31479573210543077  0.289826528752002  1.0000
  H   H26       1.0  0.5778724649658004  0.6876019728129776  0.7122031582315956  1.0000
  H   H27       1.0  0.29358127098665676  0.49793337090068956  0.6766388519436576  1.0000
  H   H28       1.0  0.704631099728907  0.5042038211532117  0.32554638091961874  1.0000
  H   H29       1.0  0.620736140702249  0.45583756224287003  0.6321032539238944  1.0000
  H   H30       1.0  0.3768174809083433  0.5462503176403218  0.36905940895133693  1.0000
  C   C1        1.0  0.9027545538991079  0.9771034927310894  0.2162189778145063  1.0000
  C   C2        1.0  0.1013839726389847  0.020918731327576306  0.7841759610287086  1.0000
  C   C3        1.0  0.0190450548086787  0.0025691488721051  0.1205644252459521  1.0000
  C   C4        1.0  0.9806856486741963  0.9967467424002832  0.8794908835896962  1.0000
  C   C5        1.0  0.8824476541756427  0.10618227400455996  0.10392375220365584  1.0000
  C   C6        1.0  0.11646562819869645  0.8929834668836212  0.8962869055872675  1.0000
  C   C7        1.0  0.9990202104904427  0.8767418873330756  0.9981287172384016  1.0000
  C   C8        1.0  0.9998384992240403  0.12261188711829618  0.0020650248486972847  1.0000
  C   C9        1.0  0.39410624170391634  0.7068969636581102  0.2368510298911417  1.0000
  C   C10       1.0  0.6069164033952746  0.2915846328571233  0.7624123696584493  1.0000
  C   C11       1.0  0.5078362489430859  0.5953720858918102  0.13143691406187943  1.0000
  C   C12       1.0  0.49333119610701476  0.40317265834155347  0.8675688516143369  1.0000
  C   C13       1.0  0.3382499188677174  0.4718861597900245  0.0803032714554989  1.0000
  C   C14       1.0  0.6628927005708505  0.5267557728585077  0.918800556023314  1.0000
  C   C15       1.0  0.544336534856818  0.6321619469276385  0.029899075992858588  1.0000
  C   C16       1.0  0.4565841110766442  0.3664937324652088  0.96924042103079  1.0000
  C   C17       1.0  0.2670066494104972  0.26635093378776287  0.47679814320962793  1.0000
  C   C18       1.0  0.7292988372781082  0.7360982010338404  0.524774557917688  1.0000
  C   C19       1.0  0.3190190896170364  0.3918393640023297  0.47900963936231733  1.0000
  C   C20       1.0  0.6771205991476564  0.6109575576612726  0.5230549316910001  1.0000
  C   C21       1.0  0.5056054074591501  0.38296947917831403  0.3832266001904615  1.0000
  C   C22       1.0  0.4910264900496061  0.6195747974997659  0.6188409092476661  1.0000
  C   C23       1.0  0.43427572410904264  0.4905011905157013  0.6097474790477124  1.0000
  C   C24       1.0  0.5628432453069792  0.511886286553967  0.3921465200380326  1.0000
  O   O1        1.0  0.65569674400939  0.9880539272661153  0.22977825678763972  1.0000
  O   O2        1.0  0.3482759921522458  0.011870451864567104  0.7728734241777673  1.0000
  O   O3        1.0  0.06309217780704297  0.9379439700769507  0.2745494494765524  1.0000
  O   O4        1.0  0.9429568370251928  0.05707971696335789  0.7217488338677642  1.0000
  O   O5        1.0  0.1491772547401737  0.7046700205228333  0.25431565058538297  1.0000
  O   O6        1.0  0.8514113743919297  0.2919101085332443  0.7448104687686696  1.0000
  O   O7        1.0  0.5557079934523516  0.8044583789644977  0.30100583675140785  1.0000
  O   O8        1.0  0.4433177234976568  0.19401697792935113  0.6977796011504369  1.0000
  O   O9        1.0  0.0846480839932369  0.2593167274174847  0.5396113626094207  1.0000
  O   O10       1.0  0.9181546265363211  0.7420051591753135  0.46368565299564335  1.0000
  O   O11       1.0  0.4161379783712604  0.1776426986022841  0.4136507209768255  1.0000
  O   O12       1.0  0.5784828067178296  0.8250682598483934  0.5834750505120782  1.0000
  O   O13       1.0  0.7555660117893481  0.015270216338130598  0.4865644198526198  1.0000
  O   O14       1.0  0.24886503582720113  0.9871678342220066  0.49896531998161486  1.0000
