data_image0
_chemical_formula_structural       Cu2H18C24S2N6Cl4
_chemical_formula_sum              "Cu2 H18 C24 S2 N6 Cl4"
_cell_length_a       7.00316589628328
_cell_length_b       8.612164417427673
_cell_length_c       11.931855599316092
_cell_angle_alpha    104.76067089267804
_cell_angle_beta     99.52806841850322
_cell_angle_gamma    111.03125248532282

_space_group_name_H-M_alt    "P 1"
_space_group_IT_number       1

loop_
  _space_group_symop_operation_xyz
  'x, y, z'

loop_
  _atom_site_type_symbol
  _atom_site_label
  _atom_site_symmetry_multiplicity
  _atom_site_fract_x
  _atom_site_fract_y
  _atom_site_fract_z
  _atom_site_occupancy
  Cu  Cu1       1.0  0.35653478675402545  0.8349338469198668  0.8364522772750506  1.0000
  Cu  Cu2       1.0  0.01978805093616409  0.998917249506981  0.16356393723013704  1.0000
  H   H1        1.0  0.10406130129300822  0.5206403452556501  0.5938346834032799  1.0000
  H   H2        1.0  0.01144886953699153  0.9271589158930593  0.4061259892266733  1.0000
  H   H3        1.0  0.9096194098110929  0.19153776697340416  0.537144093248763  1.0000
  H   H4        1.0  0.8706804380983398  0.6547492486129796  0.46251928829165223  1.0000
  H   H5        1.0  0.9170388994785198  0.05881441080166639  0.7032898388908748  1.0000
  H   H6        1.0  0.71332359840293  0.35601751045351177  0.2966811944463288  1.0000
  H   H7        1.0  0.12374149092087815  0.2538922212840049  0.912753137405815  1.0000
  H   H8        1.0  0.7118420167659992  0.3416439998791106  0.08740364626890347  1.0000
  H   H9        1.0  0.3071789728476233  0.43897503367987406  0.07253779298398651  1.0000
  H   H10       1.0  0.7354057481424404  0.3672815867762864  0.9277204439733852  1.0000
  H   H11       1.0  0.2643593390859778  0.4741526381756812  0.2667049225295131  1.0000
  H   H12       1.0  0.49874355261696474  0.20790004917910207  0.7334451887061421  1.0000
  H   H13       1.0  0.33352818474185153  0.6790013839537464  0.4739099904386634  1.0000
  H   H14       1.0  0.36060099293729314  0.20502228672588524  0.5258527534016011  1.0000
  H   H15       1.0  0.5083015118472005  0.0022606035500700996  0.5228493196882341  1.0000
  H   H16       1.0  0.4857397333604326  0.4791064018225271  0.47662897154429373  1.0000
  H   H17       1.0  0.6135671658363224  0.1270619023025077  0.36309840513474273  1.0000
  H   H18       1.0  0.7499130188790559  0.7641136635936829  0.6364742317221471  1.0000
  C   C1        1.0  0.10647125873854438  0.4556145582068183  0.6610396944219376  1.0000
  C   C2        1.0  0.9462502354740111  0.7949404706738433  0.33893221070704277  1.0000
  C   C3        1.0  0.9964387401131207  0.2728802098527653  0.6310410349268949  1.0000
  C   C4        1.0  0.8649912829631035  0.642247738490809  0.36880472309024265  1.0000
  C   C5        1.0  0.0029672221743766267  0.20004593889276379  0.7222007295743468  1.0000
  C   C6        1.0  0.7808611350063971  0.4783126157574245  0.2778013270244132  1.0000
  C   C7        1.0  0.12020736086863341  0.31041621319533147  0.8407618878300908  1.0000
  C   C8        1.0  0.7803094500496854  0.4701620486536484  0.15936271368093463  1.0000
  C   C9        1.0  0.22655848650500598  0.49141170189319894  0.8635456185780654  1.0000
  C   C10       1.0  0.8638687401357502  0.6283762146685772  0.13658923672481652  1.0000
  C   C11       1.0  0.3494692090703282  0.6237659871340994  0.9848901164092183  1.0000
  C   C12       1.0  0.8650245847751636  0.6395540815340655  0.015196119769200387  1.0000
  C   C13       1.0  0.40854993777175247  0.6869868508743477  0.20086406305241414  1.0000
  C   C14       1.0  0.7078154597436426  0.4866930794629384  0.7992448164057393  1.0000
  C   C15       1.0  0.3446020648132091  0.6172442725330994  0.28900618736846445  1.0000
  C   C16       1.0  0.5560390177310666  0.3286548844975741  0.7110187764303079  1.0000
  C   C17       1.0  0.3841166296219784  0.7319752275829218  0.4048278251641762  1.0000
  C   C18       1.0  0.4797625545357818  0.3273119909018474  0.5950115361516809  1.0000
  C   C19       1.0  0.4816093561219363  0.9148646165694032  0.43236949872994057  1.0000
  C   C20       1.0  0.5493354486989404  0.48259112225430556  0.5673721661532979  1.0000
  C   C21       1.0  0.5395438237192779  0.9846148653260159  0.34324344880054986  1.0000
  C   C22       1.0  0.6959013263893397  0.6416725415559766  0.6566002456101501  1.0000
  C   C23       1.0  0.5081841804891384  0.870996385482023  0.22815232108648337  1.0000
  C   C24       1.0  0.7798279637738476  0.6433989003374591  0.7718666392665912  1.0000
  S   S1        1.0  0.6038535725540726  0.9573406254399686  0.1192333375349364  1.0000
  S   S2        1.0  0.9847347704927644  0.8386034122426196  0.8808235074721225  1.0000
  N   N1        1.0  0.2188007750838922  0.5620641328130559  0.7742679934845641  1.0000
  N   N2        1.0  0.9456504241171403  0.7882161504894897  0.2257742593341732  1.0000
  N   N3        1.0  0.4336265709005432  0.7899133161601809  0.9902387322193746  1.0000
  N   N4        1.0  0.9435765155062017  0.8003193268332396  0.009830555827470288  1.0000
  N   N5        1.0  0.36403996556167345  0.5719193113524953  0.08300218571609726  1.0000
  N   N6        1.0  0.7816454125659645  0.4896758069659554  0.9171840180720209  1.0000
  Cl  Cl1       1.0  0.2161561358785492  0.8731982677101159  0.6685362471747356  1.0000
  Cl  Cl2       1.0  0.04822038634881662  0.2046902533188089  0.33184921220863123  1.0000
  Cl  Cl3       1.0  0.6644830033675078  0.08876871856796952  0.9010984382838743  1.0000
  Cl  Cl4       1.0  0.2641313861115223  0.18793432293471568  0.09942783549922753  1.0000
