data_image0
_chemical_formula_structural       Zn4H36C48N4O12
_chemical_formula_sum              "Zn4 H36 C48 N4 O12"
_cell_length_a       5.110282871
_cell_length_b       9.312471491
_cell_length_c       21.302
_cell_angle_alpha    90.0
_cell_angle_beta     90.0
_cell_angle_gamma    90.0

_space_group_name_H-M_alt    "P 1"
_space_group_IT_number       1

loop_
  _space_group_symop_operation_xyz
  'x, y, z'

loop_
  _atom_site_type_symbol
  _atom_site_label
  _atom_site_symmetry_multiplicity
  _atom_site_fract_x
  _atom_site_fract_y
  _atom_site_fract_z
  _atom_site_occupancy
  Zn  Zn1       1.0  0.7628657940097838  0.1533792614968448  0.47558022720870946  1.0000
  Zn  Zn2       1.0  0.7371411906329257  0.8466195045664904  0.9755802272087094  1.0000
  Zn  Zn3       1.0  0.23713560102062559  0.653374349213351  0.024417895033330698  1.0000
  Zn  Zn4       1.0  0.2628719454305113  0.346624416849984  0.5244197727912905  1.0000
  H   H1        1.0  0.7433169740086569  0.3334377992996735  0.5609487372077737  1.0000
  H   H2        1.0  0.75669588115057  0.6665620405924528  0.0609468594498139  1.0000
  H   H3        1.0  0.2566961620547801  0.8334318131873883  0.939053140550186  1.0000
  H   H4        1.0  0.2433152980740374  0.16656802670473778  0.43905267111069424  1.0000
  H   H5        1.0  0.0833593777004822  0.9264984068234199  0.0850713548023663  1.0000
  H   H6        1.0  0.41666382346137  0.0735046545550802  0.585071824241858  1.0000
  H   H7        1.0  0.9166576720406354  0.4264958023053751  0.4149239508027448  1.0000
  H   H8        1.0  0.5833630104739456  0.5734943731276303  0.9149272368791656  1.0000
  H   H9        1.0  0.7639988036975325  0.3232965601999069  0.1579062998779435  1.0000
  H   H10       1.0  0.7359964399121424  0.6766957628906878  0.6579067693174351  1.0000
  H   H11       1.0  0.2359556272007381  0.8233088291770656  0.34209323068256475  1.0000
  H   H12       1.0  0.2640069119571038  0.1767028228317642  0.8420927612430731  1.0000
  H   H13       1.0  0.4479849859176213  0.3206753441217032  0.0704736644446555  1.0000
  H   H14       1.0  0.0520166900169983  0.6793169789688847  0.5704736644446554  1.0000
  H   H15       1.0  0.5519850996913647  0.8206876130988617  0.42952398835790007  1.0000
  H   H16       1.0  0.9479925323687652  0.17932189125237838  0.9295249272368764  1.0000
  H   H17       1.0  0.46677846612691093  0.11769270929411849  0.9915913998685538  1.0000
  H   H18       1.0  0.0332310371630697  0.8823049829404326  0.4915932776265137  1.0000
  H   H19       1.0  0.5332327130976964  0.6176963876409474  0.5084024974180821  1.0000
  H   H20       1.0  0.9667723147061764  0.3823055999087615  0.008407191812978  1.0000
  H   H21       1.0  0.3813800623562358  0.947202899737718  0.15007886583419608  1.0000
  H   H22       1.0  0.1186294409337378  0.0527990878119908  0.6500746408787919  1.0000
  H   H23       1.0  0.6186037211246216  0.4472067381924205  0.3499262980001845  1.0000
  H   H24       1.0  0.8813895656462165  0.5527877325557568  0.849925359121208  1.0000
  H   H25       1.0  0.6500266392004974  0.931020299861231  0.2459078959722092  1.0000
  H   H26       1.0  0.8499764317645314  0.0689816876884777  0.7459027321378285  1.0000
  H   H27       1.0  0.3499434464084885  0.4310144738568198  0.2541000844991075  1.0000
  H   H28       1.0  0.1500543158484575  0.5689832183777241  0.7541014928175755  1.0000
  H   H29       1.0  0.1742623691251239  0.2501237187411647  0.3354276593747088  1.0000
  H   H30       1.0  0.3257373499706588  0.7498847117812915  0.8354276593747088  1.0000
  H   H31       1.0  0.8256920617731466  0.7501155849712973  0.1645732795042747  1.0000
  H   H32       1.0  0.6742953544811741  0.24988532874962027  0.6645714017463148  1.0000
  H   H33       1.0  0.8990285109405249  0.2672405496655941  0.2416538353206263  1.0000
  H   H34       1.0  0.6009686895079938  0.7327678808568618  0.7416543047601181  1.0000
  H   H35       1.0  0.1009376609907804  0.7672367112108915  0.2583452258003973  1.0000
  H   H36       1.0  0.3990405328777769  0.23276420251002608  0.7583433480424375  1.0000
  C   C1        1.0  0.9480434101785776  0.016943944489121097  0.0842028917472533  1.0000
  C   C2        1.0  0.5519714018194932  0.9830548215742211  0.584203361186745  1.0000
  C   C3        1.0  0.0519579848518319  0.5169444013495763  0.4157947610553022  1.0000
  C   C4        1.0  0.44803782056627023  0.483050069398594  0.9157952304947868  1.0000
  C   C5        1.0  0.9482136551575663  0.1220417158966214  0.1315439864801462  1.0000
  C   C6        1.0  0.5517815884521156  0.8779613454818787  0.6315421087221864  1.0000
  C   C7        1.0  0.0517642578067736  0.6220400250995011  0.3684574218383219  1.0000
  C   C8        1.0  0.4482178497394571  0.37795337181988486  0.8684555440803692  1.0000
  C   C9        1.0  0.7686012886467495  0.2352962907986011  0.12436156229462368  1.0000
  C   C10       1.0  0.7314017823182866  0.7646992537783672  0.6243615622946236  1.0000
  C   C11       1.0  0.2313746674787538  0.7353053382893862  0.3756374988264  1.0000
  C   C12       1.0  0.2686074400674769  0.2646955754315314  0.8756356210684473  1.0000
  C   C13       1.0  0.5936990332212844  0.23591266852448456  0.07435311238381098  1.0000
  C   C14       1.0  0.9063040377437445  0.764088245196433  0.5743535818233028  1.0000
  C   C15       1.0  0.40629453445376384  0.7359109777273645  0.4256440709792527  1.0000
  C   C16       1.0  0.0937071414808557  0.2640834930208129  0.9256440709792528  1.0000
  C   C17       1.0  0.602986190350947  0.1250108525030242  0.030813069195382094  1.0000
  C   C18       1.0  0.8970266648082798  0.8749814705875706  0.5308154163928265  1.0000
  C   C19       1.0  0.39701520467946233  0.6250156046786444  0.4691812975307457  1.0000
  C   C20       1.0  0.1029942986105183  0.3749820875558995  0.9691845836071735  1.0000
  C   C21       1.0  0.11826351207085388  0.1103992641473965  0.1875190122993118  1.0000
  C   C22       1.0  0.3817342501860921  0.8896080925462683  0.6875176039808437  1.0000
  C   C23       1.0  0.8817046166992881  0.6103997210078518  0.3124823960191563  1.0000
  C   C24       1.0  0.6182827995550326  0.3896001188842746  0.8124800488217047  1.0000
  C   C25       1.0  0.3313143406616703  0.014531051196321698  0.19023096422871077  1.0000
  C   C26       1.0  0.1686932057894666  0.9854709363533871  0.6902281475917746  1.0000
  C   C27       1.0  0.6686753133357044  0.5145325818855682  0.3097732607266934  1.0000
  C   C28       1.0  0.8313179734351338  0.4854672580065582  0.8097718524082254  1.0000
  C   C29       1.0  0.4848948800979187  0.004578805963724599  0.24404985447375785  1.0000
  C   C30       1.0  0.0151009253201835  0.9954274769011491  0.7440479767157981  1.0000
  C   C31       1.0  0.5150712918333866  0.5045760413378133  0.2559543704816463  1.0000
  C   C32       1.0  0.9849180812597709  0.4954280938694779  0.7559534316026627  1.0000
  C   C33       1.0  0.4325474843171335  0.0896238985329134  0.2968298751290988  1.0000
  C   C34       1.0  0.067454191617486  0.9103759413592201  0.7968275279316472  1.0000
  C   C35       1.0  0.5674245581306891  0.5896136171054636  0.20317481926579717  1.0000
  C   C36       1.0  0.9325726423178294  0.410387296615454  0.7031743498263053  1.0000
  C   C37       1.0  0.21941838217276202  0.1841433825228123  0.2946117735423925  1.0000
  C   C38       1.0  0.2805715527288299  0.815860752684479  0.7946108346634089  1.0000
  C   C39       1.0  0.7805360487255086  0.6841427655544832  0.2053910430945436  1.0000
  C   C40       1.0  0.7194474538511315  0.3158602958240166  0.7053891653365909  1.0000
  C   C41       1.0  0.0649690062920172  0.19392811046405706  0.241091916251996  1.0000
  C   C42       1.0  0.43503658332028283  0.8060738770856517  0.7410909773730197  1.0000
  C   C43       1.0  0.9349971656392881  0.6939328626396772  0.2589076143085122  1.0000
  C   C44       1.0  0.56499612113155  0.3060626819372914  0.7589076143085122  1.0000
  C   C45       1.0  0.601446158184693  0.0767798323668458  0.3542197915688661  1.0000
  C   C46       1.0  0.898547128586145  0.923222155182863  0.8542165054924453  1.0000
  C   C47       1.0  0.3985356684573276  0.576759886480282  0.1457811473101103  1.0000
  C   C48       1.0  0.1014679643161358  0.4232378057542689  0.6457830250680701  1.0000
  N   N1        1.0  0.7809391575263334  0.0185332110994167  0.0353732043939559  1.0000
  N   N2        1.0  0.7190795681494109  0.9814644811351271  0.5353736738334405  1.0000
  N   N3        1.0  0.2190681080205934  0.5185347417886632  0.4646244484085996  1.0000
  N   N4        1.0  0.2809374815917138  0.4814640242746719  0.9646272650455359  1.0000
  O   O1        1.0  0.6410995404172013  0.3251349550896592  0.5221345413576159  1.0000
  O   O2        1.0  0.8589094010643449  0.6748648848024671  0.0221331330391479  1.0000
  O   O3        1.0  0.3589135956462428  0.8251289689773742  0.9778673364003366  1.0000
  O   O4        1.0  0.1410998213214185  0.1748687232571768  0.47786686696085207  1.0000
  O   O5        1.0  0.5593721663084068  0.1751307374821138  0.3972758426438858  1.0000
  O   O6        1.0  0.9406367751731465  0.8248776930403352  0.8972749037649022  1.0000
  O   O7        1.0  0.4406174876889679  0.6751107915955501  0.10272556567458219  1.0000
  O   O8        1.0  0.059382231406814895  0.3248890482965763  0.6027246267956059  1.0000
  O   O9        1.0  0.7657423471030427  0.9788464865432971  0.3598629236691409  1.0000
  O   O10       1.0  0.7342313712794066  0.0211512056912468  0.8598563515162921  1.0000
  O   O11       1.0  0.2342336090224606  0.4788309960797719  0.1401413012862633  1.0000
  O   O12       1.0  0.2657700237510028  0.5211677699835633  0.6401427096047314  1.0000
