data_image0
_chemical_formula_structural       Mn2Cr2H24C34N18O2
_chemical_formula_sum              "Mn2 Cr2 H24 C34 N18 O2"
_cell_length_a       7.850447113605385
_cell_length_b       10.104928401318123
_cell_length_c       13.46937292962706
_cell_angle_alpha    70.12504892229073
_cell_angle_beta     79.45519915477674
_cell_angle_gamma    73.44035002470517

_space_group_name_H-M_alt    "P 1"
_space_group_IT_number       1

loop_
  _space_group_symop_operation_xyz
  'x, y, z'

loop_
  _atom_site_type_symbol
  _atom_site_label
  _atom_site_symmetry_multiplicity
  _atom_site_fract_x
  _atom_site_fract_y
  _atom_site_fract_z
  _atom_site_occupancy
  Mn  Mn1       1.0  0.6252259119284245  0.8317009634136812  0.4922966002704285  1.0000
  Mn  Mn2       1.0  0.3729101719665096  0.1645993372004497  0.5169411043677243  1.0000
  Cr  Cr1       1.0  0.7538712653352275  0.305409910664885  0.7291387092716802  1.0000
  Cr  Cr2       1.0  0.24430344391114278  0.6975725129469554  0.26836812335191235  1.0000
  H   H1        1.0  0.39957373427516524  0.5497396685920819  0.7539678858429966  1.0000
  H   H2        1.0  0.5936375381728991  0.44803689567029203  0.24490679936755547  1.0000
  H   H3        1.0  0.1781318941521378  0.5892104216597289  0.9024937353073098  1.0000
  H   H4        1.0  0.8155099014763961  0.40711530218766273  0.0969506766418888  1.0000
  H   H5        1.0  0.20500934098959084  0.40564099107790247  0.08449074016192532  1.0000
  H   H6        1.0  0.7936482179925972  0.5921953794104412  0.9154058020168137  1.0000
  H   H7        1.0  0.02541720348574471  0.9932777684742362  0.7859118751781721  1.0000
  H   H8        1.0  0.9742807517844552  0.010583252957026406  0.21141308864138614  1.0000
  H   H9        1.0  0.061304234864436896  0.7770147732187173  0.9437942784865071  1.0000
  H   H10       1.0  0.9396572182865128  0.22576648592509946  0.051982426530479096  1.0000
  H   H11       1.0  0.8572053244011993  0.7807719041827144  0.11058592390439514  1.0000
  H   H12       1.0  0.1451603145568825  0.22009620189808748  0.8865900395356617  1.0000
  H   H13       1.0  0.6014352023508778  0.9293463717910555  0.20442726715273093  1.0000
  H   H14       1.0  0.4023910807623706  0.07053688047646743  0.7942780115764235  1.0000
  H   H15       1.0  0.3710078074438883  0.15623781553761526  0.197047388041554  1.0000
  H   H16       1.0  0.631743803727602  0.8429693799977471  0.8025962904628798  1.0000
  H   H17       1.0  0.023829023488453116  0.8512363009576874  0.5605680354871366  1.0000
  H   H18       1.0  0.9815885459300232  0.15114975790956467  0.43813214623737906  1.0000
  H   H19       1.0  0.9661799694392174  0.8554426699602616  0.6944176930992612  1.0000
  H   H20       1.0  0.03887340176469679  0.15064677387801595  0.3034888221636293  1.0000
  H   H21       1.0  0.8420145226078757  0.9907527169182372  0.5903776318158336  1.0000
  H   H22       1.0  0.1592740928704686  0.0100590871200126  0.4069654818572417  1.0000
  H   H23       1.0  0.8404239728875211  0.6902762203812075  0.6721671290778773  1.0000
  H   H24       1.0  0.17100764324089812  0.30791379252539747  0.3321109738999723  1.0000
  C   C1        1.0  0.6751076632284734  0.4963934305455312  0.6227278253097382  1.0000
  C   C2        1.0  0.3248129930805135  0.5058373667377083  0.37787664675089166  1.0000
  C   C3        1.0  0.8883852793251705  0.4194216945629137  0.7720917054281031  1.0000
  C   C4        1.0  0.10860322759766206  0.5828627440433679  0.2263411902117908  1.0000
  C   C5        1.0  0.017005208003034507  0.7572764872580039  0.35801966577119515  1.0000
  C   C6        1.0  0.9793411340485393  0.2439144829149314  0.641791472018589  1.0000
  C   C7        1.0  0.3854944256967625  0.7802287810714149  0.33567985069448264  1.0000
  C   C8        1.0  0.6118777346120012  0.22392839416868068  0.6634976782130906  1.0000
  C   C9        1.0  0.4093635584603916  0.46963552477174647  0.8319665269819366  1.0000
  C   C10       1.0  0.5862343680398678  0.5290340016586157  0.167158890442451  1.0000
  C   C11       1.0  0.28515803148022906  0.4912440075491348  0.9177956588206369  1.0000
  C   C12       1.0  0.7105587412977099  0.5064804275595522  0.08161867520882989  1.0000
  C   C13       1.0  0.2996243723838034  0.3892760429284224  0.016876813159825612  1.0000
  C   C14       1.0  0.6989585556640845  0.6093327470758539  0.9828474106447799  1.0000
  C   C15       1.0  0.4377029728299391  0.26110572997090026  0.02935970055811772  1.0000
  C   C16       1.0  0.5631497949269431  0.7389830023959902  0.9700811644901107  1.0000
  C   C17       1.0  0.5570081785659154  0.2473365191773595  0.9388441523434281  1.0000
  C   C18       1.0  0.44376926734005906  0.7537434434260109  0.06031030368436058  1.0000
  C   C19       1.0  0.6950218780803468  0.11915476339889612  0.9446960791087234  1.0000
  C   C20       1.0  0.3067392310308462  0.8828968869815201  0.05396756253943383  1.0000
  C   C21       1.0  0.9349380250758302  0.9937705337604754  0.8573842497136113  1.0000
  C   C22       1.0  0.06539205332389739  0.009282091756091402  0.1401750470114038  1.0000
  C   C23       1.0  0.9543407510972411  0.8715945594114201  0.9477170765516618  1.0000
  C   C24       1.0  0.04676349412093829  0.130806711082684  0.049267460866822384  1.0000
  C   C25       1.0  0.842370990674965  0.8745826178504003  0.039432208764559225  1.0000
  C   C26       1.0  0.15979638010100666  0.12686786711329745  0.9581669301568637  1.0000
  C   C27       1.0  0.7082425035349685  0.0017986504311977996  0.039904293527847315  1.0000
  C   C28       1.0  0.2944322755957739  0.9995160984408007  0.9584743921204932  1.0000
  C   C29       1.0  0.5877579768646084  0.018403594195547202  0.13065378924353147  1.0000
  C   C30       1.0  0.41523067455084106  0.981898363144353  0.8681945120810538  1.0000
  C   C31       1.0  0.4591958119963592  0.14392506415386921  0.12631494644008254  1.0000
  C   C32       1.0  0.5432118976169563  0.8559821762696915  0.8730479518503385  1.0000
  C   C33       1.0  0.9127636523215017  0.8766690091415512  0.619239354303346  1.0000
  C   C34       1.0  0.09229088829388835  0.12522130065828216  0.37940828418355466  1.0000
  N   N1        1.0  0.6181368071199245  0.6155890578215946  0.5698699611690898  1.0000
  N   N2        1.0  0.3704914602273703  0.38642880784770034  0.4325054502043457  1.0000
  N   N3        1.0  0.9539424882636569  0.5025355833213754  0.7855936342416425  1.0000
  N   N4        1.0  0.042438434341292505  0.5005036338006477  0.2124581319122072  1.0000
  N   N5        1.0  0.8790896194520881  0.7915609934563932  0.4048051330464233  1.0000
  N   N6        1.0  0.11601190834726079  0.20107943103464984  0.5966980662311484  1.0000
  N   N7        1.0  0.47036959865037886  0.8224350941454119  0.3761008808625092  1.0000
  N   N8        1.0  0.5258838532228155  0.1782354662676227  0.6261555807501438  1.0000
  N   N9        1.0  0.544133905119196  0.3515241238241061  0.8420032734824829  1.0000
  N   N10       1.0  0.4546065582060234  0.6490975600340791  0.15687149418363322  1.0000
  N   N11       1.0  0.8084314490141296  0.11548206386733992  0.8550524805508529  1.0000
  N   N12       1.0  0.19219421204625312  0.8877937700390748  0.14292492665712328  1.0000
  N   N13       1.0  0.39474776886369506  0.9262499652675448  0.5812700927546928  1.0000
  N   N14       1.0  0.6061106481229005  0.065063615154429  0.426975983423432  1.0000
  N   N15       1.0  0.33104206412312454  0.8641890377563115  0.6671639926260651  1.0000
  N   N16       1.0  0.6691542638357646  0.12764179773535034  0.3409733314835464  1.0000
  N   N17       1.0  0.2683553307846225  0.8057803000110939  0.750341536503356  1.0000
  N   N18       1.0  0.7303261865557288  0.1880442619000533  0.2579766513639328  1.0000
  O   O1        1.0  0.7848203965101489  0.7919004021964825  0.6348284022006608  1.0000
  O   O2        1.0  0.22445768118023318  0.20514956070019247  0.3666905218825676  1.0000
