data_image0
_chemical_formula_structural       Sm2H40C48Cl6O20
_chemical_formula_sum              "Sm2 H40 C48 Cl6 O20"
_cell_length_a       7.873912583139969
_cell_length_b       12.510822480556563
_cell_length_c       13.855322276363205
_cell_angle_alpha    80.27718100050086
_cell_angle_beta     79.29169741191728
_cell_angle_gamma    75.48943557202753

_space_group_name_H-M_alt    "P 1"
_space_group_IT_number       1

loop_
  _space_group_symop_operation_xyz
  'x, y, z'

loop_
  _atom_site_type_symbol
  _atom_site_label
  _atom_site_symmetry_multiplicity
  _atom_site_fract_x
  _atom_site_fract_y
  _atom_site_fract_z
  _atom_site_occupancy
  Sm  Sm1       1.0  0.27898158755291297  0.9765799054633958  0.46332492316430773  1.0000
  Sm  Sm2       1.0  0.7210144573026298  0.023423859664795495  0.5366729780839351  1.0000
  H   H1        1.0  0.037059951071121755  0.8944747392776403  0.3529636697437155  1.0000
  H   H2        1.0  0.9629363821598814  0.10552816613343198  0.6470372131186082  1.0000
  H   H3        1.0  0.22240649499107704  0.8071122343197099  0.3371678287715199  1.0000
  H   H4        1.0  0.7775896843595119  0.19288734403028943  0.6628342748797067  1.0000
  H   H5        1.0  0.22471645378087168  0.7860901232091918  0.6917633493932129  1.0000
  H   H6        1.0  0.7752780067831395  0.21391451128092592  0.3082317047350642  1.0000
  H   H7        1.0  0.09993333697688916  0.8835310963969788  0.7735081787526  1.0000
  H   H8        1.0  0.9000611258803631  0.11647351766061578  0.2264890434079733  1.0000
  H   H9        1.0  0.8638525112003921  0.5901337655357037  0.9009900876954688  1.0000
  H   H10       1.0  0.13612341604854095  0.4098834485319073  0.09900652765772121  1.0000
  H   H11       1.0  0.84050813161263  0.4151863012700046  0.8444944948669075  1.0000
  H   H12       1.0  0.15947052196349185  0.5848267067298067  0.15550605390104977  1.0000
  H   H13       1.0  0.1414063991361588  0.5032829702954658  0.5615753795811004  1.0000
  H   H14       1.0  0.8586058824574965  0.4967073135301445  0.43843071514142207  1.0000
  H   H15       1.0  0.16543468402697678  0.6751533717891004  0.6159456469513814  1.0000
  H   H16       1.0  0.8345771754605807  0.32484195172098385  0.38405398643151767  1.0000
  H   H17       1.0  0.7948432046632165  0.8195915494227678  0.20692193811674284  1.0000
  H   H18       1.0  0.2051571485177988  0.18040716070822774  0.7930805756339367  1.0000
  H   H19       1.0  0.696776175311868  0.960952239619182  0.16443287602144352  1.0000
  H   H20       1.0  0.30322230978863735  0.039048158725819286  0.8355681450597956  1.0000
  H   H21       1.0  0.9207702515555028  0.823106433704467  0.05373202154420656  1.0000
  H   H22       1.0  0.07922077192471022  0.17690062214474264  0.9462731463433302  1.0000
  H   H23       1.0  0.16318012625330183  0.7684917655712621  0.9191322917115485  1.0000
  H   H24       1.0  0.836804675934914  0.2315070602973605  0.08087183596841638  1.0000
  H   H25       1.0  0.5046222844748343  0.9150418095790939  0.040183446922902974  1.0000
  H   H26       1.0  0.49537975740562973  0.08494442592431278  0.9598214220585534  1.0000
  H   H27       1.0  0.2598482992463291  0.970607314252298  0.17718737745929766  1.0000
  H   H28       1.0  0.7401596740218465  0.029388024570508296  0.8228141047607878  1.0000
  H   H29       1.0  0.7975006456674832  0.7056004684769376  0.5077285817804196  1.0000
  H   H30       1.0  0.20250343603043325  0.2943949333344803  0.4922696905348118  1.0000
  H   H31       1.0  0.7301709589292927  0.6997837423109629  0.6371351035204285  1.0000
  H   H32       1.0  0.2698263818423144  0.30022001317242797  0.362862663233706  1.0000
  H   H33       1.0  0.5840859799124729  0.3997632874221039  0.5633055393222364  1.0000
  H   H34       1.0  0.41593508471817836  0.6002277886070145  0.43669663232746814  1.0000
  H   H35       1.0  0.43520313850991965  0.2912288166818725  0.7056986582565586  1.0000
  H   H36       1.0  0.5648221045376259  0.7087613502631885  0.29430825955719797  1.0000
  H   H37       1.0  0.3787472145945401  0.5523561091515745  0.884779716556487  1.0000
  H   H38       1.0  0.6212551559609238  0.4476442806915414  0.11521873301013133  1.0000
  H   H39       1.0  0.5273322238013592  0.6600486599384112  0.7447067747322366  1.0000
  H   H40       1.0  0.47267200871932163  0.3399500961774462  0.2552873860843619  1.0000
  C   C1        1.0  0.9644353852444636  0.873582465908285  0.6579371833370048  1.0000
  C   C2        1.0  0.035555913616207115  0.12642384600810885  0.34205868064823625  1.0000
  C   C3        1.0  0.09190831603991977  0.8186428529415863  0.7311512227197312  1.0000
  C   C4        1.0  0.908085575417296  0.1813634328743632  0.2688450949547274  1.0000
  C   C5        1.0  0.01603158515201396  0.643081027682939  0.7631024942801972  1.0000
  C   C6        1.0  0.9839624423290803  0.35692105773313887  0.23689947115211393  1.0000
  C   C7        1.0  0.9244205955674616  0.5699776183793472  0.8269679151075592  1.0000
  C   C8        1.0  0.07556595806275371  0.4300312335144055  0.173026634292107  1.0000
  C   C9        1.0  0.9114816664862886  0.47275610957384356  0.7955744237279704  1.0000
  C   C10       1.0  0.08849913972374432  0.527254384549053  0.20442698593633682  1.0000
  C   C11       1.0  0.9905062295198236  0.45003855639730966  0.7001998601506187  1.0000
  C   C12       1.0  0.009490675111216356  0.5499626772554007  0.29980192719781934  1.0000
  C   C13       1.0  0.0793390854122436  0.5228938517558673  0.6354910647233752  1.0000
  C   C14       1.0  0.9206667375152621  0.4771039805113232  0.36451172463265646  1.0000
  C   C15       1.0  0.09185739580393462  0.6204116249450635  0.6667954431397761  1.0000
  C   C16       1.0  0.9081538938124044  0.379585356701689  0.33320473111187704  1.0000
  C   C17       1.0  0.6918752779544803  0.9234309279026076  0.3220694579769941  1.0000
  C   C18       1.0  0.30812623894078683  0.07657193892925558  0.6779308869088965  1.0000
  C   C19       1.0  0.7816853896367773  0.9070963759962822  0.21664171226217382  1.0000
  C   C20       1.0  0.21831338154593996  0.09290318306411646  0.7833601224008433  1.0000
  C   C21       1.0  0.07531411044121963  0.9007110372643508  0.12397243647262  1.0000
  C   C22       1.0  0.924685391372833  0.09929012942286868  0.8760341406296348  1.0000
  C   C23       1.0  0.04778714868761117  0.8436817664031437  0.051885113390845596  1.0000
  C   C24       1.0  0.9522005314149667  0.15631620089127546  0.9481195588826807  1.0000
  C   C25       1.0  0.18524898309438967  0.8132826504416071  0.9748751283758281  1.0000
  C   C26       1.0  0.8147473299868438  0.18671274794104417  0.02513045500094791  1.0000
  C   C27       1.0  0.34737119650854015  0.8411281564818649  0.9701471723508988  1.0000
  C   C28       1.0  0.65262063192381  0.15886148324102578  0.029857551794506818  1.0000
  C   C29       1.0  0.37579510900049945  0.896453374357364  0.04335109030711241  1.0000
  C   C30       1.0  0.6242070875247805  0.10353618139626516  0.9566532805628755  1.0000
  C   C31       1.0  0.2398991027944462  0.9267856112059432  0.12000760874515497  1.0000
  C   C32       1.0  0.7601026762112112  0.07320894336711348  0.8799946368498014  1.0000
  C   C33       1.0  0.5300403247587229  0.7891220758953776  0.5469266067412236  1.0000
  C   C34       1.0  0.4699676633083386  0.2108808176317325  0.4530651162223762  1.0000
  C   C35       1.0  0.6872418764390816  0.6942755816047138  0.5673412093044519  1.0000
  C   C36       1.0  0.3127594812248872  0.3057240058419736  0.43265529762831534  1.0000
  C   C37       1.0  0.5682520666974327  0.5362696108336705  0.6443940228669974  1.0000
  C   C38       1.0  0.4317535954699566  0.4637249556700239  0.35560348318104223  1.0000
  C   C39       1.0  0.5409050587176553  0.43247860112796127  0.6341233466369403  1.0000
  C   C40       1.0  0.4591016193988722  0.5675167405288022  0.3658789927546877  1.0000
  C   C41       1.0  0.45701491492410906  0.3716826988790912  0.7140162120691756  1.0000
  C   C42       1.0  0.5430068742225772  0.6283100392635816  0.2859849206002991  1.0000
  C   C43       1.0  0.39996675919617547  0.4149360402517885  0.80433020297653  1.0000
  C   C44       1.0  0.6000458286294686  0.5850609113176403  0.1956720048133107  1.0000
  C   C45       1.0  0.4245664719570217  0.5186138505360843  0.8145488450643299  1.0000
  C   C46       1.0  0.5754416528983273  0.481384835780311  0.18544924833454957  1.0000
  C   C47       1.0  0.5082878391847602  0.5798095970876956  0.7343493126407951  1.0000
  C   C48       1.0  0.4917122248563788  0.420189979571269  0.2656494968183836  1.0000
  Cl  Cl1       1.0  0.2949918109658044  0.33992685061579636  0.9048075166010109  1.0000
  Cl  Cl2       1.0  0.7050173267810393  0.6600726380970272  0.09519251943171979  1.0000
  Cl  Cl3       1.0  0.5163160888896174  0.8114237299510092  0.871501383240421  1.0000
  Cl  Cl4       1.0  0.4836770339299719  0.18856591374876064  0.12850176105600747  1.0000
  Cl  Cl5       1.0  0.9811802542069189  0.3272833533295694  0.6603433176036618  1.0000
  Cl  Cl6       1.0  0.01881694109281542  0.672717000173499  0.3396636193911533  1.0000
  O   O1        1.0  0.7996545979642422  0.8836351157986967  0.6830417205483883  1.0000
  O   O2        1.0  0.20034391034367624  0.11637276233134487  0.3169574907281288  1.0000
  O   O3        1.0  0.16138217707495545  0.87473376396904  0.3660394690558064  1.0000
  O   O4        1.0  0.8386177547643712  0.12526997903559328  0.6339573060326843  1.0000
  O   O5        1.0  0.7848897159482249  0.9392729042526325  0.38246540425244296  1.0000
  O   O6        1.0  0.21510905294126556  0.060726675240296395  0.6175342623782711  1.0000
  O   O7        1.0  0.027491755562934466  0.9147630849717459  0.5707787187322567  1.0000
  O   O8        1.0  0.9725048561061699  0.08523904926314428  0.4292157509375016  1.0000
  O   O9        1.0  0.027606195770531007  0.7353306306817228  0.8011687413982289  1.0000
  O   O10       1.0  0.9723876956866775  0.26467565513422636  0.19882757627622993  1.0000
  O   O11       1.0  0.5304284449857519  0.9183926124621705  0.34076556172389877  1.0000
  O   O12       1.0  0.4695641528486335  0.0816136625660562  0.6592330584769641  1.0000
  O   O13       1.0  0.9501343133014613  0.9345395637962282  0.20248508173611415  1.0000
  O   O14       1.0  0.049866479842187124  0.06546163411123729  0.7975170248074406  1.0000
  O   O15       1.0  0.39573802890657106  0.7732726780580563  0.5190435109060517  1.0000
  O   O16       1.0  0.6042690738843463  0.22672528759201066  0.4809439677297719  1.0000
  O   O17       1.0  0.5413473777323005  0.8883037878831814  0.554862544347607  1.0000
  O   O18       1.0  0.458656853259548  0.11169498185435599  0.4451301711141226  1.0000
  O   O19       1.0  0.6585469451342477  0.5878045615707492  0.5625897202297949  1.0000
  O   O20       1.0  0.3414562821390562  0.41219332404025977  0.4374097247272815  1.0000
