data_image0
_chemical_formula_structural       Hg2H44C24S4
_chemical_formula_sum              "Hg2 H44 C24 S4"
_cell_length_a       6.55412618496385
_cell_length_b       10.397514955669067
_cell_length_c       10.597039197417093
_cell_angle_alpha    89.4266396775026
_cell_angle_beta     83.0528803495076
_cell_angle_gamma    81.15780363375151

_space_group_name_H-M_alt    "P 1"
_space_group_IT_number       1

loop_
  _space_group_symop_operation_xyz
  'x, y, z'

loop_
  _atom_site_type_symbol
  _atom_site_label
  _atom_site_symmetry_multiplicity
  _atom_site_fract_x
  _atom_site_fract_y
  _atom_site_fract_z
  _atom_site_occupancy
  Hg  Hg1       1.0  0.22093500551218173  0.5484934568757183  0.5676049334744848  1.0000
  Hg  Hg2       1.0  0.7790657298598946  0.4515084420047374  0.43239506504816927  1.0000
  H   H1        1.0  0.6200370702198088  0.6638136276028846  0.6863457925228147  1.0000
  H   H2        1.0  0.3799715620042435  0.3361872483750333  0.31365463812597494  1.0000
  H   H3        1.0  0.2528564053735494  0.7077711345067071  0.7796966283494555  1.0000
  H   H4        1.0  0.7471506085993768  0.2922374946400908  0.22029720664339442  1.0000
  H   H5        1.0  0.30654643761667444  0.6056580372668209  0.9094079275313903  1.0000
  H   H6        1.0  0.6934491030239868  0.39434679513292564  0.0905886042924919  1.0000
  H   H7        1.0  0.4816896839585498  0.8591071236866913  0.8418226262989564  1.0000
  H   H8        1.0  0.5183297467448754  0.14089367145288634  0.1581761445070882  1.0000
  H   H9        1.0  0.2924003046002569  0.8378739111375851  0.97065247664537  1.0000
  H   H10       1.0  0.7076038077452581  0.1621337759450228  0.029343450316353912  1.0000
  H   H11       1.0  0.5491523588134157  0.6805672564523989  0.07126014260216351  1.0000
  H   H12       1.0  0.45083826538478194  0.3194317986151845  0.9287405628781685  1.0000
  H   H13       1.0  0.6480655530919749  0.8271748538990096  0.0400202797982203  1.0000
  H   H14       1.0  0.3519297904916102  0.17281642151132107  0.9599858719729326  1.0000
  H   H15       1.0  0.8645959889187581  0.7334554901343112  0.8455027743320188  1.0000
  H   H16       1.0  0.13541020702106724  0.2665415666120268  0.1545082471413863  1.0000
  H   H17       1.0  0.915803239091801  0.6311698340640463  0.9758567564103587  1.0000
  H   H18       1.0  0.08419181620000422  0.36882242889237926  0.024152233453357  1.0000
  H   H19       1.0  0.6906559696746445  0.4795929190747046  0.9092647234172874  1.0000
  H   H20       1.0  0.3093381990640083  0.5204041629026152  0.090734827557263  1.0000
  H   H21       1.0  0.8780509512423367  0.5058711376178522  0.78069398590209  1.0000
  H   H22       1.0  0.12194862147821083  0.4941288397758541  0.21930894509767282  1.0000
  H   H23       1.0  0.11059481050687478  0.6886552482397549  0.3041202417835507  1.0000
  H   H24       1.0  0.8894063238789233  0.3113447135355827  0.6958816419466061  1.0000
  H   H25       1.0  0.1018501931468521  0.9261900375859611  0.4731671784018374  1.0000
  H   H26       1.0  0.8981426675694809  0.07381287944864572  0.5268314428206011  1.0000
  H   H27       1.0  0.3104406487913992  0.7977347603590702  0.43996112937404774  1.0000
  H   H28       1.0  0.6895571849532658  0.20226619645719524  0.5600409611174798  1.0000
  H   H29       1.0  0.36039005464077417  0.8563571736989535  0.21510932128438048  1.0000
  H   H30       1.0  0.639610471480829  0.14363889624582532  0.7848907639118324  1.0000
  H   H31       1.0  0.36015212626397636  0.996223214278331  0.3085569403537605  1.0000
  H   H32       1.0  0.6398478013370482  0.0037757613241354  0.6914403170312015  1.0000
  H   H33       1.0  0.9978987753227244  0.08023115224016662  0.2746229170026098  1.0000
  H   H34       1.0  0.0020993689099526413  0.9197688122816176  0.7253753902222757  1.0000
  H   H35       1.0  0.14708390790074333  0.04375012918016101  0.12538576461228257  1.0000
  H   H36       1.0  0.8529161748146807  0.9562478873665158  0.8746143257245862  1.0000
  H   H37       1.0  0.8051290213715774  0.9618880356147985  0.1375173747765004  1.0000
  H   H38       1.0  0.1948731773964384  0.03810799496968541  0.8624769372797163  1.0000
  H   H39       1.0  0.015224510623973123  0.832948273134129  0.1139231863529062  1.0000
  H   H40       1.0  0.9847802570872093  0.16704969655740606  0.8860737621751512  1.0000
  H   H41       1.0  0.7443131110989755  0.7730103456361948  0.2790501845489857  1.0000
  H   H42       1.0  0.2556888215734858  0.22698666774600448  0.7209460204257214  1.0000
  H   H43       1.0  0.7536345883453635  0.9140100325491217  0.3692686014503296  1.0000
  H   H44       1.0  0.24636406588219034  0.08598797112562552  0.6307268651116616  1.0000
  C   C1        1.0  0.5640750159669848  0.59915937696708  0.7612822472508753  1.0000
  C   C2        1.0  0.43592594110818794  0.4008415486124263  0.2387177487014469  1.0000
  C   C3        1.0  0.3735413331077381  0.6731776632925347  0.8412701036469913  1.0000
  C   C4        1.0  0.6264557026094835  0.3268271677339811  0.1587282164295303  1.0000
  C   C5        1.0  0.431002915234892  0.787663935334109  0.9118851531468622  1.0000
  C   C6        1.0  0.5690003227508743  0.2123408427156619  0.08811086819940782  1.0000
  C   C7        1.0  0.604937104638701  0.7428861724163057  0.9936983942300373  1.0000
  C   C8        1.0  0.39506442876081843  0.25711185225390665  0.006305374707622499  1.0000
  C   C9        1.0  0.7956223758185176  0.6675726957972544  0.9145631947642272  1.0000
  C   C10       1.0  0.20437799492946607  0.3324234073862088  0.08544350665054172  1.0000
  C   C11       1.0  0.7399933380115868  0.5536192355298939  0.8419473807164055  1.0000
  C   C12       1.0  0.2600062347089533  0.4463807418638127  0.15805555028335055  1.0000
  C   C13       1.0  0.026461491816597463  0.7673384306055695  0.36793915427918483  1.0000
  C   C14       1.0  0.9735394652585683  0.23266249497393698  0.6320608416731375  1.0000
  C   C15       1.0  0.1796967098070254  0.855923725373785  0.399076401050408  1.0000
  C   C16       1.0  0.8202996288610793  0.14407723281571092  0.6009239011884873  1.0000
  C   C17       1.0  0.26077046154039607  0.9276107252096968  0.28099598226327777  1.0000
  C   C18       1.0  0.7392296655674858  0.07238728184020721  0.7190022177254323  1.0000
  C   C19       1.0  0.08361884027061686  0.9994573078702873  0.21339507827633508  1.0000
  C   C20       1.0  0.9163808434310783  0.0005426457815076002  0.7866031268530237  1.0000
  C   C21       1.0  0.9339476207525765  0.9080282138066168  0.18308428379689454  1.0000
  C   C22       1.0  0.06605404582433042  0.09196978237329742  0.8169138140962958  1.0000
  C   C23       1.0  0.8477615099797476  0.840796299207533  0.30275096151648745  1.0000
  C   C24       1.0  0.1522401787933916  0.15920169222399494  0.6972461912026163  1.0000
  S   S1        1.0  0.5041854954521127  0.45536830036851245  0.6822418166983298  1.0000
  S   S2        1.0  0.49581635817903447  0.5446355294954587  0.3177571396953667  1.0000
  S   S3        1.0  0.9167344272501552  0.6910444385632246  0.512060699602749  1.0000
  S   S4        1.0  0.08326499035598539  0.30895649788627827  0.4879393984451  1.0000
