data_image0
_chemical_formula_structural       Fe2H14C14N2O12
_chemical_formula_sum              "Fe2 H14 C14 N2 O12"
_cell_length_a       7.285762867847788
_cell_length_b       7.795839058456383
_cell_length_c       7.798705334186363
_cell_angle_alpha    100.46433186225913
_cell_angle_beta     101.08081138738281
_cell_angle_gamma    101.03575368462373

_space_group_name_H-M_alt    "P 1"
_space_group_IT_number       1

loop_
  _space_group_symop_operation_xyz
  'x, y, z'

loop_
  _atom_site_type_symbol
  _atom_site_label
  _atom_site_symmetry_multiplicity
  _atom_site_fract_x
  _atom_site_fract_y
  _atom_site_fract_z
  _atom_site_occupancy
  Fe  Fe1       1.0  0.7496976623173096  0.33294584597516047  0.6666480941565213  1.0000
  Fe  Fe2       1.0  0.25030374655856485  0.6672295248691426  0.33351194787451993  1.0000
  H   H1        1.0  0.1078456481142496  0.3891459087660749  0.8441833052827408  1.0000
  H   H2        1.0  0.3914695171498721  0.15524451372337467  0.6100436545480221  1.0000
  H   H3        1.0  0.8921180880248729  0.6106438658024943  0.15585095431431042  1.0000
  H   H4        1.0  0.6085687326155452  0.8446303120134785  0.3896602436727861  1.0000
  H   H5        1.0  0.11891204376356511  0.47849169206413217  0.6756277236725481  1.0000
  H   H6        1.0  0.38059210535949006  0.3240050359690017  0.5206923031097049  1.0000
  H   H7        1.0  0.8811038157650444  0.5213454353698737  0.32445767964834005  1.0000
  H   H8        1.0  0.6194126036097175  0.6759440956799808  0.4790799297780382  1.0000
  H   H9        1.0  0.7087242748050357  0.3416546218419895  0.051078960107076875  1.0000
  H   H10       1.0  0.7908004063438627  0.9486676577525015  0.658444480649564  1.0000
  H   H11       1.0  0.2912128657597535  0.6583938519285156  0.9491527964618598  1.0000
  H   H12       1.0  0.20885350072302344  0.051481210282744896  0.3414981551709958  1.0000
  H   H13       1.0  0.7500389897534135  0.8294610722535152  0.1706138278598459  1.0000
  H   H14       1.0  0.25027156247021765  0.17060218492453322  0.8294336877048282  1.0000
  C   C1        1.0  0.737797975246167  0.09767645180670573  0.13727647624422454  1.0000
  C   C2        1.0  0.7620101602343893  0.8626291687229112  0.902430841812958  1.0000
  C   C3        1.0  0.26229668112972604  0.9023464149753336  0.8628109480996218  1.0000
  C   C4        1.0  0.2379856980151089  0.1374636872950745  0.09756283900947692  1.0000
  C   C5        1.0  0.7334208452841935  0.1712803890099721  0.3263298124944641  1.0000
  C   C6        1.0  0.7664703456731274  0.6734489068465522  0.8291053398780478  1.0000
  C   C7        1.0  0.2666948910711184  0.8286061260490598  0.6737820013301744  1.0000
  C   C8        1.0  0.2335021799319534  0.3266734777240003  0.1707744147893138  1.0000
  C   C9        1.0  0.73077215258526  0.20728290327695484  0.014276273389718548  1.0000
  C   C10       1.0  0.7688166321894415  0.9855615679042415  0.7927511119131695  1.0000
  C   C11       1.0  0.26920403741513615  0.7927864619098415  0.9858622366851436  1.0000
  C   C12       1.0  0.2310218652759559  0.014550654809099199  0.20725112253667533  1.0000
  C   C13       1.0  0.7499669031483762  0.9202823581221792  0.0797634185310158  1.0000
  C   C14       1.0  0.2501773769811493  0.07976945465552632  0.9202648574461565  1.0000
  N   N1        1.0  0.7497394942429949  0.15505373557856927  0.844854880691223  1.0000
  N   N2        1.0  0.2501254595379478  0.8450665451795771  0.1552418929015857  1.0000
  O   O1        1.0  0.04714460262103161  0.3763465930000578  0.7149548806561229  1.0000
  O   O2        1.0  0.45210227477758014  0.28447523161229077  0.6228905618764529  1.0000
  O   O3        1.0  0.9528199260521433  0.6234767133272213  0.28506268169805793  1.0000
  O   O4        1.0  0.5478549549551772  0.7154211209838195  0.3768700680448447  1.0000
  O   O5        1.0  0.7074941332417738  0.06685468395387771  0.43214341296857134  1.0000
  O   O6        1.0  0.7927380200482973  0.5679230152604403  0.9337791825806223  1.0000
  O   O7        1.0  0.2925997496207415  0.932938294418939  0.5678330817756461  1.0000
  O   O8        1.0  0.2071050009930175  0.43207874343914193  0.0660468072304212  1.0000
  O   O9        1.0  0.7579717529785056  0.3401368613864832  0.3835339959148881  1.0000
  O   O10       1.0  0.741528136170615  0.6158755084331914  0.6602853798281885  1.0000
  O   O11       1.0  0.24212855071664308  0.659763886516181  0.6166662902694783  1.0000
  O   O12       1.0  0.25858100214864527  0.38433958450281114  0.3396172341639599  1.0000
