data_image0
_chemical_formula_structural       Zn4H37C60N16Cl3O4
_chemical_formula_sum              "Zn4 H37 C60 N16 Cl3 O4"
_cell_length_a       13.612300926541751
_cell_length_b       15.143736725966843
_cell_length_c       16.893316925218503
_cell_angle_alpha    109.74516061220295
_cell_angle_beta     102.78895973921968
_cell_angle_gamma    108.7685815284959

_space_group_name_H-M_alt    "P 1"
_space_group_IT_number       1

loop_
  _space_group_symop_operation_xyz
  'x, y, z'

loop_
  _atom_site_type_symbol
  _atom_site_label
  _atom_site_symmetry_multiplicity
  _atom_site_fract_x
  _atom_site_fract_y
  _atom_site_fract_z
  _atom_site_occupancy
  Zn  Zn1       1.0  0.3922889297764056  0.023021307977074842  0.9028493638659327  1.0000
  Zn  Zn2       1.0  0.6248597286983469  0.9963565854249196  0.11084098591754106  1.0000
  Zn  Zn3       1.0  0.35133019096843293  0.8933133871544  0.017941506247453325  1.0000
  Zn  Zn4       1.0  0.6694770923951053  0.13701435254610303  0.9995302350462794  1.0000
  H   H1        1.0  0.25841158462547736  0.1510437717643782  0.9538051315009284  1.0000
  H   H2        1.0  0.7808957960666448  0.7196910178397573  0.025229731638020836  1.0000
  H   H3        1.0  0.5849463239261111  0.13863548529972283  0.2727585842495301  1.0000
  H   H4        1.0  0.9993302162815212  0.7234988356707389  0.5819725890700553  1.0000
  H   H5        1.0  0.9860609455974583  0.5410958079245988  0.7315303017019376  1.0000
  H   H6        1.0  0.8737554737292328  0.6399873157318864  0.4210027716758944  1.0000
  H   H7        1.0  0.8400291147834053  0.38748342117654017  0.5980019053845282  1.0000
  H   H8        1.0  0.7417183527447831  0.4817707009927048  0.28341694433729003  1.0000
  H   H9        1.0  0.6349537044596829  0.882732073867494  0.39201226168606956  1.0000
  H   H10       1.0  0.2900849260048233  0.8112185864863904  0.168462075179015  1.0000
  H   H11       1.0  0.7318076684480914  0.9031594103109057  0.5440594346819125  1.0000
  H   H12       1.0  0.6753259215650471  0.8228597289684173  0.9885465174680163  1.0000
  H   H13       1.0  0.2669798355104901  0.7201343706394353  0.4125733408848262  1.0000
  H   H14       1.0  0.7249487186230397  0.9217447478215347  0.6905861773858675  1.0000
  H   H15       1.0  0.36390598398031665  0.7806039376808157  0.5775531677109171  1.0000
  H   H16       1.0  0.02697646979545001  0.9624045671652227  0.0743267740639908  1.0000
  H   H17       1.0  0.8149016794170336  0.8382923428418252  0.9764026011635281  1.0000
  H   H18       1.0  0.9868091271630631  0.8433096840096608  0.7429584341730546  1.0000
  H   H19       1.0  0.13089522845187665  0.023095466624703093  0.8263336190128427  1.0000
  H   H20       1.0  0.7143509137033845  0.3615620243636783  0.9759565528989995  1.0000
  H   H21       1.0  0.030378212538778288  0.06971984661650031  0.792582473676937  1.0000
  H   H22       1.0  0.648099039864725  0.9153905754635614  0.2733622615594272  1.0000
  H   H23       1.0  0.1001844916287808  0.6856774088490879  0.8613542394820968  1.0000
  H   H24       1.0  0.35345809580433485  0.2034362597945714  0.8554826607056467  1.0000
  H   H25       1.0  0.7116964806180947  0.34904508343065294  0.15972411014205787  1.0000
  H   H26       1.0  0.18801574507929794  0.9610711683889902  0.09502163058363783  1.0000
  H   H27       1.0  0.3600767433829972  0.8351149820381564  0.7235327037843007  1.0000
  H   H28       1.0  0.7742373568608869  0.9668609235891593  0.8277228857350424  1.0000
  H   H29       1.0  0.6534569889054964  0.7302006492578741  0.13686620346418016  1.0000
  H   H30       1.0  0.19338281587863554  0.6948766914625182  0.2712370722609236  1.0000
  H   H31       1.0  0.8244440620591715  0.8202958252347156  0.6384819718494866  1.0000
  H   H32       1.0  0.9109455791588771  0.13852463363298298  0.9917982841405717  1.0000
  H   H33       1.0  0.8431002481203009  0.955276844109754  0.13872488968922178  1.0000
  H   H34       1.0  0.17661022919927663  0.8565878809313007  0.705861686893023  1.0000
  H   H35       1.0  0.31423510556488304  0.667318630696677  0.8878239548013198  1.0000
  H   H36       1.0  0.36417321814178644  0.33840295665005726  0.8035646992261718  1.0000
  H   H37       1.0  0.34641843520211074  0.49409995128904427  0.8064158519420844  1.0000
  C   C1        1.0  0.2569138757310723  0.10163056441917452  0.9878739383758199  1.0000
  C   C2        1.0  0.17221830534093394  0.8279577837822886  0.7565462997149551  1.0000
  C   C3        1.0  0.6317254857904544  0.9704759943769898  0.8201531564158769  1.0000
  C   C4        1.0  0.6117714388833945  0.1773630466375379  0.23289358017800044  1.0000
  C   C5        1.0  0.40221352106255653  0.7209765699928569  0.9168209643668065  1.0000
  C   C6        1.0  0.5414676451025783  0.8939676883459384  0.7385202207608258  1.0000
  C   C7        1.0  0.49708217384752373  0.7007649499689562  0.924824453487858  1.0000
  C   C8        1.0  0.09778893395668586  0.7324820872769777  0.7474806441054156  1.0000
  C   C9        1.0  0.9136554032720169  0.031694711407325715  0.056998903976641146  1.0000
  C   C10       1.0  0.6114144450477709  0.5171301732890042  0.9663239809987942  1.0000
  C   C11       1.0  0.5277401328592433  0.41609835975287984  0.9093600413132846  1.0000
  C   C12       1.0  0.6680732390045491  0.2841282248822238  0.2567541166359534  1.0000
  C   C13       1.0  0.43329478450797854  0.41383452606316234  0.8513666179395116  1.0000
  C   C14       1.0  0.4230473562454406  0.5032614767908115  0.8527107219673127  1.0000
  C   C15       1.0  0.5074482492383368  0.6046561617634509  0.9117698761847137  1.0000
  C   C16       1.0  0.37899545409000274  0.8420724530942678  0.18279335718420253  1.0000
  C   C17       1.0  0.6023154915932806  0.6063000514768148  0.9667123652980791  1.0000
  C   C18       1.0  0.7134119140497431  0.6814369316887081  0.04471403694506649  1.0000
  C   C19       1.0  0.7191639543162934  0.5781128089675035  0.0476686272655514  1.0000
  C   C20       1.0  0.006340248892556074  0.6444855732180486  0.6668497270932647  1.0000
  C   C21       1.0  0.7272668062585979  0.37591351054769717  0.3449969520739274  1.0000
  C   C22       1.0  0.8429214594915209  0.5654675756416339  0.42380292974798567  1.0000
  C   C23       1.0  0.46395647011967606  0.8449326376069947  0.2501119035952755  1.0000
  C   C24       1.0  0.7689305895325802  0.47652247485811455  0.3467304007825689  1.0000
  C   C25       1.0  0.7590633103553087  0.37355403124304576  0.4285606817358171  1.0000
  C   C26       1.0  0.8364858678808033  0.46367874405760284  0.5101334044210333  1.0000
  C   C27       1.0  0.882155201800451  0.561693548549229  0.5073148682610623  1.0000
  C   C28       1.0  0.6265014549143614  0.30788942811655307  0.9479256855987969  1.0000
  C   C29       1.0  0.9657614857819112  0.6500504511354704  0.5863185433791358  1.0000
  C   C30       1.0  0.9569690356154438  0.5474676440657118  0.6690590734478475  1.0000
  C   C31       1.0  0.8748544062634807  0.46061983452775485  0.5939767274345797  1.0000
  C   C32       1.0  0.45721230884078773  0.8159589578162212  0.3236746057863655  1.0000
  C   C33       1.0  0.5430722717725018  0.8567973772832643  0.6470110593236386  1.0000
  C   C34       1.0  0.5324565429365579  0.3230084889668774  0.9129230486592732  1.0000
  C   C35       1.0  0.6508417714875704  0.8756973990461033  0.5507500575616149  1.0000
  C   C36       1.0  0.6466011404007048  0.8858099861561399  0.6337529459815344  1.0000
  C   C37       1.0  0.44499782160391993  0.8059682966607224  0.5707377455993026  1.0000
  C   C38       1.0  0.44677225983693347  0.7957621233489646  0.48473927541231626  1.0000
  C   C39       1.0  0.551938040608988  0.8363198767577059  0.47510563998805116  1.0000
  C   C40       1.0  0.5614814269955558  0.8946718316003198  0.236556042397794  1.0000
  C   C41       1.0  0.5535494232358503  0.8449388031780387  0.3948344555620339  1.0000
  C   C42       1.0  0.352996737342572  0.7649652896213226  0.3306688070484967  1.0000
  C   C43       1.0  0.3483364057588076  0.7554931576730581  0.40835951235538914  1.0000
  C   C44       1.0  0.003571329028815637  0.008393064748332693  0.8915897775152644  1.0000
  C   C45       1.0  0.4480660880619212  0.8850154548449465  0.7638427222173405  1.0000
  C   C46       1.0  0.05355403031249755  0.024412614206973365  0.979624031471417  1.0000
  C   C47       1.0  0.9791496614211609  0.9745516328712112  0.02068319365127995  1.0000
  C   C48       1.0  0.8717052015276252  0.8700754666479114  0.9464156686470416  1.0000
  C   C49       1.0  0.8464250813675916  0.8454909305218834  0.858775454916703  1.0000
  C   C50       1.0  0.9081327618144143  0.9097203495247398  0.8302828935227139  1.0000
  C   C51       1.0  0.9526268315258122  0.9013909864546505  0.7536683255572144  1.0000
  C   C52       1.0  0.4425011627929221  0.2270793896557278  0.8855057984578778  1.0000
  C   C53       1.0  0.04498260070089096  0.013797980561648176  0.8156963160820041  1.0000
  C   C54       1.0  0.6749880745312423  0.28410803740359813  0.17433400345735353  1.0000
  C   C55       1.0  0.22216053696114096  0.007496438749882369  0.06234043485870439  1.0000
  C   C56       1.0  0.5864974917505988  0.800365001204618  0.9687434569760214  1.0000
  C   C57       1.0  0.1723987721260656  0.05301288900173519  0.015255197882950685  1.0000
  C   C58       1.0  0.13399882924411335  0.7406772896777055  0.8356752561165236  1.0000
  C   C59       1.0  0.8817032184280365  0.10046730071058343  0.031595621320718636  1.0000
  C   C60       1.0  0.8474560372925665  0.00703581083966026  0.10655838981122658  1.0000
  N   N1        1.0  0.3449832565845056  0.08005719333382186  0.010760773164172071  1.0000
  N   N2        1.0  0.4225703628449083  0.8864210308466767  0.13415503591131298  1.0000
  N   N3        1.0  0.5947908885254733  0.2112154912577395  0.9411968450295801  1.0000
  N   N4        1.0  0.5361045376230394  0.9189672532136299  0.16746790956218408  1.0000
  N   N5        1.0  0.4799451558031294  0.16100686811869014  0.9028789199298686  1.0000
  N   N6        1.0  0.6306498603293915  0.18614812463755465  0.1093936459929452  1.0000
  N   N7        1.0  0.32273645317555827  0.021269984295855693  0.05678084582285691  1.0000
  N   N8        1.0  0.4802756995383674  0.9521750574413799  0.8511945840025062  1.0000
  N   N9        1.0  0.5484004883482639  0.8734819916460167  0.987747557547891  1.0000
  N   N10       1.0  0.2218071921355643  0.8328322414623982  0.8918637654943212  1.0000
  N   N11       1.0  0.8014758857499229  0.1141110415551551  0.061646475017148795  1.0000
  N   N12       1.0  0.7799798209867674  0.05566007046276403  0.10869560024874392  1.0000
  N   N13       1.0  0.24553021706881156  0.8872968528300192  0.8426701478734487  1.0000
  N   N14       1.0  0.5937382393135096  0.0045315281319134385  0.8859829623435758  1.0000
  N   N15       1.0  0.43484601552869856  0.8246005464443086  0.9556847191153465  1.0000
  N   N16       1.0  0.5915275458281145  0.11997583342317601  0.1451180720789296  1.0000
  Cl  Cl1       1.0  0.8411227775223293  0.5637394969699726  0.033373096984945505  1.0000
  Cl  Cl2       1.0  0.7079920606483369  0.5668957451972219  0.14772802755929612  1.0000
  Cl  Cl3       1.0  0.7105806329818521  0.2569480768425691  0.43665996120716233  1.0000
  O   O1        1.0  0.7429349057657361  0.018008079986763906  0.8385269170237706  1.0000
  O   O2        1.0  0.7185718876269788  0.758892306007098  0.12243375201133942  1.0000
  O   O3        1.0  0.25699608310102207  0.7281405712143253  0.2573223556531374  1.0000
  O   O4        1.0  0.8857135701437711  0.8900258445016929  0.670110891975959  1.0000
