data_image0
_chemical_formula_structural       Zn2H26C46N12O8
_chemical_formula_sum              "Zn2 H26 C46 N12 O8"
_cell_length_a       9.761639453754105
_cell_length_b       10.66238030252909
_cell_length_c       11.601229396439042
_cell_angle_alpha    104.21158739467984
_cell_angle_beta     105.90812625181408
_cell_angle_gamma    112.55420935276129

_space_group_name_H-M_alt    "P 1"
_space_group_IT_number       1

loop_
  _space_group_symop_operation_xyz
  'x, y, z'

loop_
  _atom_site_type_symbol
  _atom_site_label
  _atom_site_symmetry_multiplicity
  _atom_site_fract_x
  _atom_site_fract_y
  _atom_site_fract_z
  _atom_site_occupancy
  Zn  Zn1       1.0  0.3850973778117108  0.24193103740823574  0.4951889794223093  1.0000
  Zn  Zn2       1.0  0.6149043709018401  0.7580655724871407  0.5048091868278635  1.0000
  H   H1        1.0  0.7371717397762579  0.12031640803688501  0.8089729661916537  1.0000
  H   H2        1.0  0.2628278942899486  0.8796802406082807  0.19102557463782696  1.0000
  H   H3        1.0  0.6655892925517293  0.2370746769259071  0.6545851867011268  1.0000
  H   H4        1.0  0.33440912176303067  0.7629196663291182  0.3454100175080157  1.0000
  H   H5        1.0  0.1748386582281398  0.00979325004352211  0.5721875627818707  1.0000
  H   H6        1.0  0.8251602615038107  0.9902081153316045  0.4278195205453415  1.0000
  H   H7        1.0  0.11026525890257236  0.603345457876543  0.7878750406890449  1.0000
  H   H8        1.0  0.8897353393407315  0.3966589670422281  0.21212615266793494  1.0000
  H   H9        1.0  0.8936115252146521  0.3908879390160039  0.7953426690971741  1.0000
  H   H10       1.0  0.10638796130329108  0.6091163618027056  0.20465478938518814  1.0000
  H   H11       1.0  0.2266161923657961  0.3741684500169598  0.09420707507979392  1.0000
  H   H12       1.0  0.7733789955762446  0.6258258078878073  0.905784768834039  1.0000
  H   H13       1.0  0.4583409868966584  0.5866625147757532  0.09865732033185994  1.0000
  H   H14       1.0  0.541655457064614  0.41333414416912023  0.9013404749784971  1.0000
  H   H15       1.0  0.8217473339427811  0.7952704064289122  0.1905568460673451  1.0000
  H   H16       1.0  0.1782535319641241  0.2047285794897178  0.8094459029745311  1.0000
  H   H17       1.0  0.9637695600659342  0.1651668872934025  0.07548267701229618  1.0000
  H   H18       1.0  0.03622919119361974  0.8348321373750238  0.9245204466088882  1.0000
  H   H19       1.0  0.2368851985640248  0.28549526314819224  0.26327455997774524  1.0000
  H   H20       1.0  0.7631165501495333  0.7145013467471771  0.7367236062724276  1.0000
  H   H21       1.0  0.10013744219152437  0.9211107233055101  0.36351819877823044  1.0000
  H   H22       1.0  0.899864790237778  0.07888481016987471  0.6364807266483014  1.0000
  H   H23       1.0  0.8892609871047836  0.28748367499026267  0.5597595516869448  1.0000
  H   H24       1.0  0.11074332044969279  0.7125216531989409  0.44023751855888105  1.0000
  H   H25       1.0  0.223454891972814  0.8673126904927315  0.7064135108777025  1.0000
  H   H26       1.0  0.7765481223721551  0.13269438709951234  0.29360085511864054  1.0000
  C   C1        1.0  0.519708726154569  0.9099521492472177  0.8562889490770972  1.0000
  C   C2        1.0  0.48029392706707336  0.0900501831649834  0.14371575432307543  1.0000
  C   C3        1.0  0.4350358545618961  0.7366131014944701  0.9390645845231236  1.0000
  C   C4        1.0  0.5649630289022625  0.26338816823068356  0.06093988402790982  1.0000
  C   C5        1.0  0.703902395013806  0.9016502481174133  0.01851341857478442  1.0000
  C   C6        1.0  0.2960975639079209  0.09835105005782913  0.9814921700746811  1.0000
  C   C7        1.0  0.4839961136553087  0.9822519778028181  0.7670653915267921  1.0000
  C   C8        1.0  0.5160071554866903  0.017751523246111803  0.2329414159795817  1.0000
  C   C9        1.0  0.610866201998384  0.08858493873589171  0.7535414054488999  1.0000
  C   C10       1.0  0.3891329725305963  0.9114128500959209  0.24645811938835033  1.0000
  C   C11       1.0  0.5724437875680765  0.15484043429398042  0.669998697142191  1.0000
  C   C12       1.0  0.42755702998177003  0.845158424091345  0.3300005655314494  1.0000
  C   C13       1.0  0.2965917676019175  0.026550360376738514  0.6216584832001077  1.0000
  C   C14       1.0  0.7034088072401589  0.9734521064352323  0.37834920955555884  1.0000
  C   C15       1.0  0.3244539203221848  0.950003447966033  0.6984150713459417  1.0000
  C   C16       1.0  0.6755483217192975  0.050000152166106204  0.3015941024302365  1.0000
  C   C17       1.0  0.3025873337551844  0.6104462752009497  0.9412534325680331  1.0000
  C   C18       1.0  0.6974077074158983  0.3895537405371954  0.058745571581489714  1.0000
  C   C19       1.0  0.14088149819519205  0.554230723565084  0.8560024219220995  1.0000
  C   C20       1.0  0.8591147022810119  0.44577143814657927  0.14399556088746837  1.0000
  C   C21       1.0  0.020165477745038643  0.43389230424775604  0.8601194098992412  1.0000
  C   C22       1.0  0.9798332848264762  0.5661086466441532  0.1398763427311991  1.0000
  C   C23       1.0  0.20461724408814058  0.42543224327161516  0.025537357240246236  1.0000
  C   C24       1.0  0.7953781002370304  0.5745643234565206  0.9744575747875573  1.0000
  C   C25       1.0  0.33461414338871986  0.5447852432407319  0.02906960128279934  1.0000
  C   C26       1.0  0.6653812372042438  0.4552114191373775  0.9709279455211831  1.0000
  C   C27       1.0  0.8720036580122184  0.9697249876535425  0.11810377985290188  1.0000
  C   C28       1.0  0.12799825917373645  0.03027396294852741  0.8818983461032917  1.0000
  C   C29       1.0  0.9117835203876369  0.9009899602156182  0.2001697282008337  1.0000
  C   C30       1.0  0.08821734551926852  0.09900902570301183  0.7998330208410497  1.0000
  C   C31       1.0  0.9915469442295547  0.10834677876653838  0.13732109292934783  1.0000
  C   C32       1.0  0.008454513419174267  0.8916533120221717  0.8626820170346153  1.0000
  C   C33       1.0  0.1436339525297257  0.1739111209089899  0.239495318752681  1.0000
  C   C34       1.0  0.8563684121041816  0.8260866576231082  0.7605049516036929  1.0000
  C   C35       1.0  0.0677419965485059  0.9724797640668328  0.29795745114955013  1.0000
  C   C36       1.0  0.9322587250645358  0.027516944911752717  0.7020430813704198  1.0000
  C   C37       1.0  0.6972238703317544  0.4096537966889074  0.5351791035348656  1.0000
  C   C38       1.0  0.3027791578022629  0.5903471723533825  0.4648185147131373  1.0000
  C   C39       1.0  0.8496681702985142  0.4574640184503736  0.5111049412775162  1.0000
  C   C40       1.0  0.1503354253988008  0.5425379916953477  0.4888912947084451  1.0000
  C   C41       1.0  0.8310565877680105  0.6684351388206552  0.4547810030435358  1.0000
  C   C42       1.0  0.16894320190402115  0.3315657129880379  0.5452123833171003  1.0000
  C   C43       1.0  0.9145892606141715  0.5783762253510929  0.47706567219962187  1.0000
  C   C44       1.0  0.08541444310922235  0.42162796608469943  0.52293016553206  1.0000
  C   C45       1.0  0.9362766741725819  0.3812416672874548  0.5329053563573752  1.0000
  C   C46       1.0  0.06372810500838005  0.6187625525984332  0.4670916014727455  1.0000
  N   N1        1.0  0.39431811340035955  0.7987181297455167  0.8567283651679249  1.0000
  N   N2        1.0  0.605683016915755  0.20128534628656072  0.14327707373364265  1.0000
  N   N3        1.0  0.5885376731955392  0.7841171954788141  0.021647879462015983  1.0000
  N   N4        1.0  0.4114612223578789  0.21588410612965703  0.978357460681075  1.0000
  N   N5        1.0  0.6767673237170868  0.9658963289399269  0.9351118533447933  1.0000
  N   N6        1.0  0.3232350650953535  0.0341015133588272  0.06489016019569502  1.0000
  N   N7        1.0  0.41867312369333837  0.1261725717074569  0.60620310945815  1.0000
  N   N8        1.0  0.5813243957255095  0.8738241156875048  0.3937958059506387  1.0000
  N   N9        1.0  0.04909626662306013  0.36820629462272353  0.9419067644073923  1.0000
  N   N10       1.0  0.9509002249179732  0.6317923861955992  0.058086274688392295  1.0000
  N   N11       1.0  0.18124814372359313  0.10707244698794231  0.31877659720445456  1.0000
  N   N12       1.0  0.8187530011588748  0.8929230261540226  0.6812203365315741  1.0000
  O   O1        1.0  0.5661107976275019  0.29879223448121917  0.4397487860614151  1.0000
  O   O2        1.0  0.4338931020011998  0.7012044323143343  0.5602516203856285  1.0000
  O   O3        1.0  0.7079733974374066  0.4663095095578243  0.6477298358464767  1.0000
  O   O4        1.0  0.2920297387226896  0.5336936407745368  0.35226738414724684  1.0000
  O   O5        1.0  0.6849962387219576  0.613240088818806  0.4506497894465797  1.0000
  O   O6        1.0  0.3150022473510887  0.38675634007632453  0.549342401732112  1.0000
  O   O7        1.0  0.9039303274695669  0.7885959406106765  0.44536505940120463  1.0000
  O   O8        1.0  0.09606841092342222  0.2114049465145769  0.5546289500451139  1.0000
