data_image0
_chemical_formula_structural       K2H2C28O8F20
_chemical_formula_sum              "K2 H2 C28 O8 F20"
_cell_length_a       6.594823841965956
_cell_length_b       7.393891240835081
_cell_length_c       16.007381666254894
_cell_angle_alpha    97.27306963026338
_cell_angle_beta     92.32375043334707
_cell_angle_gamma    103.58100964905937

_space_group_name_H-M_alt    "P 1"
_space_group_IT_number       1

loop_
  _space_group_symop_operation_xyz
  'x, y, z'

loop_
  _atom_site_type_symbol
  _atom_site_label
  _atom_site_symmetry_multiplicity
  _atom_site_fract_x
  _atom_site_fract_y
  _atom_site_fract_z
  _atom_site_occupancy
  K   K1        1.0  0.7121771628189962  0.3123162698122285  0.5014706989557708  1.0000
  K   K2        1.0  0.2878221573656817  0.6876655474563693  0.4985326800129997  1.0000
  H   H1        1.0  0.7466566948892533  0.8462045672852764  0.44765427865316093  1.0000
  H   H2        1.0  0.2533382875721912  0.15378422126828176  0.5523457075562277  1.0000
  C   C1        1.0  0.8194413017899791  0.821378268486235  0.5798452469306595  1.0000
  C   C2        1.0  0.1805740933416899  0.17862471828141926  0.42015772728873907  1.0000
  C   C3        1.0  0.8093550094779973  0.8774738092832592  0.673400700553529  1.0000
  C   C4        1.0  0.19065231482533554  0.12253331277550218  0.3266005372129186  1.0000
  C   C5        1.0  0.7817592101722255  0.05353257968521769  0.7072345596805076  1.0000
  C   C6        1.0  0.21824881772480603  0.946477352175229  0.29276560461438084  1.0000
  C   C7        1.0  0.7766238981875945  0.1069073186025449  0.7935770178587943  1.0000
  C   C8        1.0  0.22337991839684426  0.893103978453034  0.20642254657750667  1.0000
  C   C9        1.0  0.7942029887096425  0.9810483687014154  0.8497000554471298  1.0000
  C   C10       1.0  0.2057909344594222  0.018965646622426398  0.1503007878980185  1.0000
  C   C11       1.0  0.8186039963749251  0.8034522108989247  0.8182818026538  1.0000
  C   C12       1.0  0.18139725554911476  0.19656046737012636  0.18172343213221603  1.0000
  C   C13       1.0  0.8286927185829427  0.754895666299248  0.7317393955314271  1.0000
  C   C14       1.0  0.1713115510858572  0.24511142901072694  0.268261175236418  1.0000
  C   C15       1.0  0.6699738531035635  0.6411397172112244  0.3509963060278523  1.0000
  C   C16       1.0  0.3300230909171518  0.35884488255365443  0.649004082637276  1.0000
  C   C17       1.0  0.6912346799310425  0.5845515647106864  0.2590360736096144  1.0000
  C   C18       1.0  0.3087613704825287  0.4154414388237059  0.7409629273091622  1.0000
  C   C19       1.0  0.7039800347912503  0.7109023134448192  0.19998269129739296  1.0000
  C   C20       1.0  0.296026234916468  0.28909498503847425  0.8000167004098486  1.0000
  C   C21       1.0  0.7168273736649198  0.6562643086913553  0.1141653106962437  1.0000
  C   C22       1.0  0.2831701216207634  0.3437343152813527  0.8858334180296126  1.0000
  C   C23       1.0  0.7188892006879114  0.47093046274075323  0.08533302849818367  1.0000
  C   C24       1.0  0.28111358642406253  0.5290710112959828  0.9146659397123782  1.0000
  C   C25       1.0  0.7056901738647879  0.34140250556785645  0.14228777111205904  1.0000
  C   C26       1.0  0.2943119355715567  0.6585905503508799  0.8577100641369809  1.0000
  C   C27       1.0  0.6920471257751686  0.3987631637531165  0.22776184765390176  1.0000
  C   C28       1.0  0.3079481079905548  0.6012270274747991  0.7722326024858146  1.0000
  O   O1        1.0  0.9234119875363757  0.7056882599726392  0.5556523081700817  1.0000
  O   O2        1.0  0.07660676298544898  0.2943217662043409  0.4443517529117641  1.0000
  O   O3        1.0  0.7154403998393234  0.8988833182701937  0.530745609848253  1.0000
  O   O4        1.0  0.2845602513683971  0.10110972580485368  0.4692553289435323  1.0000
  O   O5        1.0  0.5659698233866309  0.5286219379229208  0.3937239913653697  1.0000
  O   O6        1.0  0.4340357812070367  0.4713669427206781  0.6062748922970798  1.0000
  O   O7        1.0  0.7675611970407702  0.8148177431712114  0.3798303371176955  1.0000
  O   O8        1.0  0.2324292859140228  0.18516539819524513  0.6201692542860116  1.0000
  F   F1        1.0  0.7622610592452475  0.18458243610014335  0.6574283015906629  1.0000
  F   F2        1.0  0.23774317273883835  0.8154246583748942  0.34257039442697845  1.0000
  F   F3        1.0  0.7544413027025029  0.2795943609399529  0.8234092640040274  1.0000
  F   F4        1.0  0.24556129439602606  0.720418326667989  0.17658724298861725  1.0000
  F   F5        1.0  0.7876107876016433  0.030393972287477294  0.9328602153246166  1.0000
  F   F6        1.0  0.21236117594263246  0.9696114399033318  0.06713982540267688  1.0000
  F   F7        1.0  0.8310768338329594  0.6793592660834091  0.8720611182885276  1.0000
  F   F8        1.0  0.16890549974431218  0.32065044439602264  0.12794681222805337  1.0000
  F   F9        1.0  0.8531844161236036  0.5807578482267886  0.7064386570165408  1.0000
  F   F10       1.0  0.14681986610676737  0.4192492473614989  0.2935625386680485  1.0000
  F   F11       1.0  0.6969582546661997  0.8904968365245408  0.22395547572607194  1.0000
  F   F12       1.0  0.30305671329919187  0.10950474367241009  0.7760442857286944  1.0000
  F   F13       1.0  0.72532947632925  0.7803556584876149  0.05902218198619379  1.0000
  F   F14       1.0  0.27465777374420236  0.21964427885251328  0.9409783623842853  1.0000
  F   F15       1.0  0.7326373162480023  0.41718867986649844  0.0029530991915435907  1.0000
  F   F16       1.0  0.26737072500554854  0.5828156433993285  0.9970442337535131  1.0000
  F   F17       1.0  0.7076367645317418  0.1625366063481053  0.11413800727768827  1.0000
  F   F18       1.0  0.29236718005323326  0.837457866871773  0.8858574375262973  1.0000
  F   F19       1.0  0.6855422355537398  0.2688842786395398  0.2803780613430717  1.0000
  F   F20       1.0  0.31443822836996566  0.7311015782120764  0.7196165598021123  1.0000
