data_image0
_chemical_formula_structural       Sm2Cu2H28C32N4O26
_chemical_formula_sum              "Sm2 Cu2 H28 C32 N4 O26"
_cell_length_a       8.120362800429035
_cell_length_b       10.930084212143086
_cell_length_c       12.180563338249339
_cell_angle_alpha    108.6632964142372
_cell_angle_beta     101.12933664195666
_cell_angle_gamma    98.54831272618944

_space_group_name_H-M_alt    "P 1"
_space_group_IT_number       1

loop_
  _space_group_symop_operation_xyz
  'x, y, z'

loop_
  _atom_site_type_symbol
  _atom_site_label
  _atom_site_symmetry_multiplicity
  _atom_site_fract_x
  _atom_site_fract_y
  _atom_site_fract_z
  _atom_site_occupancy
  Sm  Sm1       1.0  0.04701592691789361  0.2633798099916689  0.07640173942919402  1.0000
  Sm  Sm2       1.0  0.9529821404782338  0.7366206155933384  0.9235979194265268  1.0000
  Cu  Cu1       1.0  0.9883555165358829  0.7604988227535188  0.45671130696857903  1.0000
  Cu  Cu2       1.0  0.011643232563223199  0.2394996236062639  0.5432878557251613  1.0000
  H   H1        1.0  0.039004561248653105  0.3429168435442024  0.8462158229554219  1.0000
  H   H2        1.0  0.9609950459604376  0.6570845672493204  0.15378514633756876  1.0000
  H   H3        1.0  0.8847776562444097  0.3816115799627724  0.8962024156865523  1.0000
  H   H4        1.0  0.11522195444609906  0.6183898404878149  0.10379773588645949  1.0000
  H   H5        1.0  0.7537281437718448  0.02800311451340319  0.9269677891990964  1.0000
  H   H6        1.0  0.2462711762401142  0.9719973049165133  0.07303285046747023  1.0000
  H   H7        1.0  0.7763118466767693  0.12591511559624993  0.8613060559323812  1.0000
  H   H8        1.0  0.22368844571672503  0.8740843256291129  0.13869359947864282  1.0000
  H   H9        1.0  0.3722098061034629  0.21441916792149135  0.20686850072633686  1.0000
  H   H10       1.0  0.6277882752183076  0.785581296291781  0.7931278872494899  1.0000
  H   H11       1.0  0.23564319819247714  0.1199596716690081  0.23918415760931563  1.0000
  H   H12       1.0  0.764356703176567  0.8800427498022503  0.7608155058701412  1.0000
  H   H13       1.0  0.5406504798787495  0.4648646993271299  0.2877222921187936  1.0000
  H   H14       1.0  0.4593516360434294  0.5351367088132832  0.7122798210758956  1.0000
  H   H15       1.0  0.4416340242863157  0.3661660492847432  0.4291940100976674  1.0000
  H   H16       1.0  0.5583656902315042  0.6338313995563496  0.5708058037804875  1.0000
  H   H17       1.0  0.6529539889935095  0.273662982420305  0.5452485594406581  1.0000
  H   H18       1.0  0.3470482412002269  0.7263344830818069  0.45475076289925903  1.0000
  H   H19       1.0  0.5584701443813033  0.0016703207714883002  0.19272316913029638  1.0000
  H   H20       1.0  0.44152763233627473  0.9983291037928482  0.8072769778189793  1.0000
  H   H21       1.0  0.43821990937428973  0.9118470460823856  0.33316102809929043  1.0000
  H   H22       1.0  0.5617787219718551  0.0881553332586265  0.6668417431692076  1.0000
  H   H23       1.0  0.6285338247526512  0.813862244197182  0.4561701134599688  1.0000
  H   H24       1.0  0.37146520806217614  0.1861371838691355  0.5438301965801742  1.0000
  H   H25       1.0  0.5695901393350412  0.5936433856053895  0.13176903481210192  1.0000
  H   H26       1.0  0.4304095821456002  0.40635408254983213  0.8682291436261095  1.0000
  H   H27       1.0  0.406918380548916  0.6160366815178335  0.025800004684676026  1.0000
  H   H28       1.0  0.5930819153259891  0.38396276936459384  0.974198833006376  1.0000
  C   C1        1.0  0.8968820291240931  0.3620644215039022  0.38387392148527505  1.0000
  C   C2        1.0  0.10311797955368718  0.6379340380149187  0.6161245865793602  1.0000
  C   C3        1.0  0.7915733863306755  0.4186966352198099  0.3186213748222286  1.0000
  C   C4        1.0  0.2084274769756647  0.581304779075694  0.6813797575616289  1.0000
  C   C5        1.0  0.6262494598865447  0.42108830856708585  0.3365420708429525  1.0000
  C   C6        1.0  0.3737526595170523  0.5789131092303921  0.6634592246317722  1.0000
  C   C7        1.0  0.5708423461319825  0.3670844936684503  0.41591089946219734  1.0000
  C   C8        1.0  0.4291592023587611  0.6329149510588862  0.5840889190396935  1.0000
  C   C9        1.0  0.6844679357288471  0.3146975986844255  0.47941299704651646  1.0000
  C   C10       1.0  0.31553360928047874  0.6853018363858537  0.5205876391753532  1.0000
  C   C11       1.0  0.07737421910023563  0.34967042100193174  0.3761126658953202  1.0000
  C   C12       1.0  0.9226260698118408  0.6503290105663596  0.6238878072356826  1.0000
  C   C13       1.0  0.8459653631948427  0.4760859118410111  0.22995648399407292  1.0000
  C   C14       1.0  0.1540342440142481  0.5239154989525119  0.7700444852989106  1.0000
  C   C15       1.0  0.9088766722133884  0.916796112033225  0.3241502717979259  1.0000
  C   C16       1.0  0.0911220768857248  0.0832023343265575  0.6758488908958142  1.0000
  C   C17       1.0  0.8104732519010155  0.965570561194816  0.2476116369155718  1.0000
  C   C18       1.0  0.18952617193826174  0.034425886625598395  0.7523886650561381  1.0000
  C   C19       1.0  0.6388311559319392  0.9641961893718829  0.2512255937708476  1.0000
  C   C20       1.0  0.36116758968575624  0.0358022473308282  0.7487743866428643  1.0000
  C   C21       1.0  0.5705725338103136  0.9120209649485247  0.32743743168203576  1.0000
  C   C22       1.0  0.42942553358581403  0.08797946063648251  0.6725622271736922  1.0000
  C   C23       1.0  0.6742446589373259  0.8587336809834838  0.39646682788961135  1.0000
  C   C24       1.0  0.3257515744858709  0.14126474871527248  0.6035328263423735  1.0000
  C   C25       1.0  0.09853711331221858  0.9219209041007587  0.33902122174112753  1.0000
  C   C26       1.0  0.9014626012056013  0.0780765447403269  0.6609785921370344  1.0000
  C   C27       1.0  0.8813114819519328  0.0112264398481656  0.15824771213393518  1.0000
  C   C28       1.0  0.11868687264131952  0.9887749771004478  0.8417522763482097  1.0000
  C   C29       1.0  0.33217608628986284  0.45434070289006473  0.08132217231131027  1.0000
  C   C30       1.0  0.6678242095850353  0.5456587479923627  0.918676665379749  1.0000
  C   C31       1.0  0.464016592124139  0.5404216691874737  0.04989042472641364  1.0000
  C   C32       1.0  0.5359821639378027  0.45957679648644495  0.950107102527376  1.0000
  N   N1        1.0  0.8424584235459633  0.3133861616327352  0.46287400133144274  1.0000
  N   N2        1.0  0.1575431214633696  0.686613273437537  0.5371266348904271  1.0000
  N   N3        1.0  0.8387837341686222  0.8617748555401901  0.3941418408477375  1.0000
  N   N4        1.0  0.16121375883324163  0.13822358731761136  0.6058571587551353  1.0000
  O   O1        1.0  0.1577051746526337  0.30293641888627576  0.4500154291457647  1.0000
  O   O2        1.0  0.8422941418779145  0.6970639908865763  0.5499860282407738  1.0000
  O   O3        1.0  0.9631689488347775  0.3181968535824923  0.8943884738508103  1.0000
  O   O4        1.0  0.03682757874837249  0.6818025867939994  0.10560987456764787  1.0000
  O   O5        1.0  0.14189732946276482  0.3849230414222973  0.3022908363482131  1.0000
  O   O6        1.0  0.8581032431650327  0.6150773718525357  0.6977107841291925  1.0000
  O   O7        1.0  0.7614479274167963  0.12240662047974381  0.9384449898781778  1.0000
  O   O8        1.0  0.2385516832737055  0.8775947999708437  0.06155516169483393  1.0000
  O   O9        1.0  0.8736369801176452  0.6009045019172279  0.2599223958028461  1.0000
  O   O10       1.0  0.1263663988646115  0.39909692903930255  0.7400782450427598  1.0000
  O   O11       1.0  0.2612695912997012  0.1511930450394487  0.1751800274815807  1.0000
  O   O12       1.0  0.7387284795778299  0.8488073902026304  0.8248188136541686  1.0000
  O   O13       1.0  0.8481794727236008  0.3951882086326605  0.12954057984227063  1.0000
  O   O14       1.0  0.15181955660981566  0.6048112097765922  0.8704605479178438  1.0000
  O   O15       1.0  0.16073845076270743  0.8532879512145684  0.3984365435614166  1.0000
  O   O16       1.0  0.8392618346679582  0.14671147069666554  0.6015647472895651  1.0000
  O   O17       1.0  0.188027104459394  0.9922526333439664  0.29891767696618393  1.0000
  O   O18       1.0  0.8119734681684037  0.0077477799308596  0.7010839435112216  1.0000
  O   O19       1.0  0.9045681901392228  0.13391742826394903  0.17575748987678  1.0000
  O   O20       1.0  0.09543044468833276  0.8660849607341351  0.8242444636717394  1.0000
  O   O21       1.0  0.9047806772410781  0.9230786950092948  0.07030319786869663  1.0000
  O   O22       1.0  0.09522541123114078  0.07692774455257019  0.9296951656000231  1.0000
  O   O23       1.0  0.3406700170650296  0.33428836853482846  0.06629092304690694  1.0000
  O   O24       1.0  0.6593290192312082  0.6657110691885535  0.9337085692732572  1.0000
  O   O25       1.0  0.21130126914979286  0.4999801719181605  0.12257015157221221  1.0000
  O   O26       1.0  0.7886990267251123  0.5000192789642669  0.87742868611884  1.0000
