data_image0
_chemical_formula_structural       Al6H70C85O28
_chemical_formula_sum              "Al6 H70 C85 O28"
_cell_length_a       12.95931261271758
_cell_length_b       12.728686184632272
_cell_length_c       28.424717262392793
_cell_angle_alpha    90.01278436422294
_cell_angle_beta     89.64038843538255
_cell_angle_gamma    119.59147214414685

_space_group_name_H-M_alt    "P 1"
_space_group_IT_number       1

loop_
  _space_group_symop_operation_xyz
  'x, y, z'

loop_
  _atom_site_type_symbol
  _atom_site_label
  _atom_site_symmetry_multiplicity
  _atom_site_fract_x
  _atom_site_fract_y
  _atom_site_fract_z
  _atom_site_occupancy
  Al  Al1       1.0  0.5870608364829338  0.18035326333402676  0.5006291907679525  1.0000
  Al  Al2       1.0  0.34499614608110096  0.9250771631897406  0.5001245739139293  1.0000
  Al  Al3       1.0  0.5750687327750725  0.9225016870609435  0.5013288123829156  1.0000
  Al  Al4       1.0  0.08175947978237727  0.15170619142644876  0.998083553532041  1.0000
  Al  Al5       1.0  0.08662877071817113  0.4068770571258397  0.00018460671624610008  1.0000
  Al  Al6       1.0  0.31993077376179  0.41028025185478595  0.9992312705768641  1.0000
  H   H1        1.0  0.23620642220576116  0.7717089370879505  0.2165810041476774  1.0000
  H   H2        1.0  0.8965030678112812  0.03181279417867699  0.2925608614818813  1.0000
  H   H3        1.0  0.9322907889789036  0.05937969923475349  0.2113080604450843  1.0000
  H   H4        1.0  0.03446953270091766  0.21350345737344864  0.2206687741399875  1.0000
  H   H5        1.0  0.7753042909889772  0.2914012701114571  0.2918178417147814  1.0000
  H   H6        1.0  0.9263189869614266  0.3396067285168271  0.3017555466163699  1.0000
  H   H7        1.0  0.8134696485557457  0.32093399074020806  0.21068528347239382  1.0000
  H   H8        1.0  0.6300652314459256  0.07007825880246088  0.2782630030624063  1.0000
  H   H9        1.0  0.6662438031299232  0.09891164062865701  0.1972278366330045  1.0000
  H   H10       1.0  0.9642108302247722  0.36760271018435725  0.2206004864854734  1.0000
  H   H11       1.0  0.52169118572737  0.2440418625218114  0.2045305123562784  1.0000
  H   H12       1.0  0.12911352098106466  0.5888349185328178  0.2860346553403801  1.0000
  H   H13       1.0  0.5249985124646273  0.205935096922559  0.2851395387195481  1.0000
  H   H14       1.0  0.2879529852045692  0.28949887485644143  0.3039342953094533  1.0000
  H   H15       1.0  0.4425290460124315  0.3472886375585701  0.29855441282307993  1.0000
  H   H16       1.0  0.42870588525429537  0.3767265826871052  0.2178418095192001  1.0000
  H   H17       1.0  0.2730525344948944  0.30959052263150244  0.2226344942023601  1.0000
  H   H18       1.0  0.20460587125395316  0.9657549067771494  0.28335005148232273  1.0000
  H   H19       1.0  0.14729219199295332  0.06440859427304699  0.2920909060435619  1.0000
  H   H20       1.0  0.2064577499028102  0.9926133348003457  0.2015348623736202  1.0000
  H   H21       1.0  0.42663014550446127  0.05049291466609417  0.2762308237875288  1.0000
  H   H22       1.0  0.43075240247681285  0.08731899294477326  0.1953548451406704  1.0000
  H   H23       1.0  0.4514207341386082  0.8764416092045193  0.26760048486828947  1.0000
  H   H24       1.0  0.14176824603869417  0.08458583609098007  0.21028807379201453  1.0000
  H   H25       1.0  0.5014059317831752  0.7474588133974789  0.7926118477666719  1.0000
  H   H26       1.0  0.5125597680398358  0.802191992767696  0.7130572326277758  1.0000
  H   H27       1.0  0.266220472617185  0.4821452152811785  0.6960925018953291  1.0000
  H   H28       1.0  0.42027625515316896  0.5728837671708005  0.705668821924462  1.0000
  H   H29       1.0  0.38168171455004796  0.5203354383846841  0.7855415473445646  1.0000
  H   H30       1.0  0.2270299389545656  0.452056664091259  0.7768935402694838  1.0000
  H   H31       1.0  0.19575549171074147  0.7335342913445256  0.709693534702936  1.0000
  H   H32       1.0  0.13343071243469487  0.5751932154305092  0.7069877901168908  1.0000
  H   H33       1.0  0.20704441795459147  0.7331070822345891  0.792017128286318  1.0000
  H   H34       1.0  0.5247519029656686  0.7327277781928099  0.21699601027606974  1.0000
  H   H35       1.0  0.4169221465884972  0.861924971385242  0.722388509300977  1.0000
  H   H36       1.0  0.43066412926233233  0.8336662508102175  0.8029746975053058  1.0000
  H   H37       1.0  0.12016096187809197  0.5745284688555471  0.7895141546569847  1.0000
  H   H38       1.0  0.7940711623644034  0.3098894306185399  0.7876182842039441  1.0000
  H   H39       1.0  0.7432684998981003  0.2685726790646115  0.70898254411496  1.0000
  H   H40       1.0  0.02345630693475438  0.2697775526297476  0.6886316140195631  1.0000
  H   H41       1.0  0.9542241677101869  0.3584727467990375  0.6959896573238852  1.0000
  H   H42       1.0  0.012141494322897009  0.38187228034684745  0.7750427306436052  1.0000
  H   H43       1.0  0.060092557446793565  0.27449336408398745  0.7693578155638008  1.0000
  H   H44       1.0  0.7536590079788468  0.9720243742196997  0.7131545568104087  1.0000
  H   H45       1.0  0.41749916489435873  0.5496312855117221  0.2863683253623179  1.0000
  H   H46       1.0  0.908824252739805  0.048886429867721376  0.7069392179587979  1.0000
  H   H47       1.0  0.7652210234276993  0.004041436302770803  0.7949873596429455  1.0000
  H   H48       1.0  0.6950201641656619  0.15689050113167002  0.8012866865133361  1.0000
  H   H49       1.0  0.9177171077926971  0.052105537423194875  0.7895523796121822  1.0000
  H   H50       1.0  0.22329090867935256  0.991623132554764  0.8004979105677207  1.0000
  H   H51       1.0  0.20843987639518227  0.9665724493007626  0.7185893391159937  1.0000
  H   H52       1.0  0.2509952898381941  0.27400668360547087  0.6985346145976264  1.0000
  H   H53       1.0  0.14383759268328328  0.11926345150226328  0.7031986273429993  1.0000
  H   H54       1.0  0.1427019929357982  0.13342127875637996  0.7855607068641034  1.0000
  H   H55       1.0  0.20222799094627666  0.44489712427984773  0.2354354746683072  1.0000
  H   H56       1.0  0.240419363229563  0.2902261608202891  0.780285915683166  1.0000
  H   H57       1.0  0.5172299574541697  0.2375354990826466  0.707790300018246  1.0000
  H   H58       1.0  0.46714512230676764  0.34137910819490697  0.6984857491149583  1.0000
  H   H59       1.0  0.519676551291859  0.2706708661322209  0.789167649964547  1.0000
  H   H60       1.0  0.359795919346567  0.0077495963110507955  0.7168411086048962  1.0000
  H   H61       1.0  0.37794618186880063  0.047197488956164976  0.7978633932202329  1.0000
  H   H62       1.0  0.4647753836181108  0.3709569189269784  0.7798094395808519  1.0000
  H   H63       1.0  0.7152593568567268  0.9918788950258199  0.19705914444913472  1.0000
  H   H64       1.0  0.6796008390713766  0.963331529612972  0.2782588267070167  1.0000
  H   H65       1.0  0.9982366535760576  0.18625450985385317  0.3018573708368706  1.0000
  H   H66       1.0  0.5861620558084796  0.06286914117629999  0.6842364882917451  1.0000
  H   H67       1.0  0.6060334632170239  0.0016333138308083966  0.7375458718830998  1.0000
  H   H68       1.0  0.5499165448904648  0.10269518256126986  0.7395903699745006  1.0000
  H   H69       1.0  0.6610382414508251  0.37805968123547  0.47313643502715763  1.0000
  H   H70       1.0  0.9711746826656623  0.9529304286761611  0.025631476812606  1.0000
  C   C1        1.0  0.37937790709025876  0.09620646779248426  0.4330653185890014  1.0000
  C   C2        1.0  0.36612158991122357  0.7279704719222975  0.3901539013704607  1.0000
  C   C3        1.0  0.2578208256536669  0.5410934527020571  0.2430813445191617  1.0000
  C   C4        1.0  0.31745109354518053  0.642606038628301  0.20348071525566516  1.0000
  C   C5        1.0  0.3772900665243455  0.5989730174153393  0.2705518891619931  1.0000
  C   C6        1.0  0.3365666936026555  0.6789271485658187  0.2995198250956648  1.0000
  C   C7        1.0  0.43690493958841603  0.7007811236012312  0.2326360330507811  1.0000
  C   C8        1.0  0.395912190858837  0.7803834049749052  0.2599333528858594  1.0000
  C   C9        1.0  0.3053601337006029  0.6194756306883632  0.1545229202622025  1.0000
  C   C10       1.0  0.3507807184899789  0.7030387669544991  0.3483901705420465  1.0000
  C   C11       1.0  0.7038915375878434  0.05579128255902788  0.2677115120332019  1.0000
  C   C12       1.0  0.39252727776278806  0.7795655607639131  0.4364492023453863  1.0000
  C   C13       1.0  0.9193743487719958  0.12370892971265587  0.28175802585231224  1.0000
  C   C14       1.0  0.9431192095930713  0.14189685932911533  0.22815118562188993  1.0000
  C   C15       1.0  0.9034394903855444  0.2089809714865395  0.1129565281587546  1.0000
  C   C16       1.0  0.8157864894886304  0.14553734254300107  0.2954761438083437  1.0000
  C   C17       1.0  0.7276824476499613  0.0747183673137499  0.21416566902259151  1.0000
  C   C18       1.0  0.8564424833066937  0.1771628049550529  0.2048838960913741  1.0000
  C   C19       1.0  0.8732485718720185  0.294886993385674  0.22786976997729616  1.0000
  C   C20       1.0  0.8485480916094232  0.27601946921780746  0.28137614937674726  1.0000
  C   C21       1.0  0.8802475092681731  0.19409811732139554  0.1547460470594473  1.0000
  C   C22       1.0  0.7891462100753941  0.12669437346671228  0.3453871201294803  1.0000
  C   C23       1.0  0.7090056328415385  0.09253470024087555  0.433025948120168  1.0000
  C   C24       1.0  0.7609940053206757  0.11154383444739574  0.38673272925038304  1.0000
  C   C25       1.0  0.43982165631103953  0.1412787059691496  0.2693086853817945  1.0000
  C   C26       1.0  0.3561795715757512  0.27951301210593726  0.2845025692390948  1.0000
  C   C27       1.0  0.34866164762259183  0.29659688282506375  0.23102178781694246  1.0000
  C   C28       1.0  0.3170833581580297  0.21733206229247054  0.1124910303255717  1.0000
  C   C29       1.0  0.339077306740208  0.15231212977683836  0.2946139951783948  1.0000
  C   C30       1.0  0.4389444784616714  0.1641718993347112  0.2159075865476225  1.0000
  C   C31       1.0  0.33345477100703397  0.1840148204918249  0.2039923262498959  1.0000
  C   C32       1.0  0.2166336945442922  0.07227252732970157  0.2206021392174762  1.0000
  C   C33       1.0  0.2184553442753554  0.05584002802189758  0.274427623677326  1.0000
  C   C34       1.0  0.3778238157756987  0.09901872440917704  0.565933431105755  1.0000
  C   C35       1.0  0.3281074328332565  0.2024764268651324  0.15397228235507754  1.0000
  C   C36       1.0  0.3454666135882576  0.13507953144175386  0.3446568626682521  1.0000
  C   C37       1.0  0.3545492643728068  0.12020287441745836  0.386309182088155  1.0000
  C   C38       1.0  0.4276151446510141  0.7829813852517231  0.72902985534337  1.0000
  C   C39       1.0  0.33279442785765667  0.5590108506568042  0.716419807411569  1.0000
  C   C40       1.0  0.3118937668643083  0.5340885352624551  0.7699379139973672  1.0000
  C   C41       1.0  0.29158148013198115  0.599427495780766  0.8878425214661405  1.0000
  C   C42       1.0  0.32554628824777143  0.673301933650336  0.7036725385672824  1.0000
  C   C43       1.0  0.42549927314393415  0.7582070462930868  0.7823668471482321  1.0000
  C   C44       1.0  0.3096095664106144  0.6410581211475657  0.7952700571161843  1.0000
  C   C45       1.0  0.3852413436370694  0.7812945212063123  0.5661700196044636  1.0000
  C   C46       1.0  0.20297899307534797  0.6518543935260862  0.7767045706987403  1.0000
  C   C47       1.0  0.20614332072886293  0.6577439565517691  0.7222792058580368  1.0000
  C   C48       1.0  0.3003228635151913  0.6201510538839158  0.8457683870528925  1.0000
  C   C49       1.0  0.3395470421425131  0.6976990213472049  0.6534032349115719  1.0000
  C   C50       1.0  0.35679372442704954  0.7261432827212245  0.6120219826466098  1.0000
  C   C51       1.0  0.7383419865824267  0.18877633874635075  0.7262512356409873  1.0000
  C   C52       1.0  0.9561813254196494  0.2784709700549825  0.7093349489292962  1.0000
  C   C53       1.0  0.9859409661644919  0.29064604480982575  0.7623720564073722  1.0000
  C   C54       1.0  0.9211209576949813  0.22564464048661387  0.883207722285583  1.0000
  C   C55       1.0  0.8332361320214972  0.16595509552010404  0.7010312632707426  1.0000
  C   C56       1.0  0.7154687396462054  0.09689051167202219  0.5657336680939621  1.0000
  C   C57       1.0  0.7711761728815175  0.21679181959277108  0.7788918185765753  1.0000
  C   C58       1.0  0.8769227601793972  0.19828047886622358  0.7912729252262949  1.0000
  C   C59       1.0  0.8473982175550036  0.06902618848045709  0.7768017149165516  1.0000
  C   C60       1.0  0.8345906637218264  0.05515473288023999  0.7229058511554314  1.0000
  C   C61       1.0  0.9012668079740251  0.21525250490829248  0.8412441093891232  1.0000
  C   C62       1.0  0.8055802788553663  0.14657589764295403  0.6513181065378788  1.0000
  C   C63       1.0  0.7737803276414541  0.12573982476663295  0.6105994271259618  1.0000
  C   C64       1.0  0.297606523602319  0.037254524160957196  0.7289215269318419  1.0000
  C   C65       1.0  0.2303528967329598  0.18910654311106603  0.7163178675327018  1.0000
  C   C66       1.0  0.22806911707034766  0.20147876165211182  0.7704325235631232  1.0000
  C   C67       1.0  0.21698321879699725  0.6207531063092943  0.270440691222575  1.0000
  C   C68       1.0  0.31907753834752123  0.21997540534713517  0.8855927839790781  1.0000
  C   C69       1.0  0.325959491110993  0.15550076789701706  0.7025992594044865  1.0000
  C   C70       1.0  0.30557729818011137  0.057499517093695794  0.7826847184729715  1.0000
  C   C71       1.0  0.32824205166267006  0.18628140034363128  0.7935517887370693  1.0000
  C   C72       1.0  0.4488714196291426  0.27969726024866043  0.7718004087226121  1.0000
  C   C73       1.0  0.4485504350079665  0.2596197357606583  0.7182171449199188  1.0000
  C   C74       1.0  0.32569688704028005  0.20421964963360031  0.8437806974055846  1.0000
  C   C75       1.0  0.32942924606270907  0.13668296419797338  0.6525049450522006  1.0000
  C   C76       1.0  0.3426826175046144  0.12098173251979454  0.6112623700951333  1.0000
  C   C77       1.0  0.9520237747884295  0.23250969015175113  0.0660078427204596  1.0000
  C   C78       1.0  0.27653040340757673  0.7224585862324701  0.2324419300780391  1.0000
  C   C79       1.0  0.27097660870467877  0.5476685599188896  0.0657687335979062  1.0000
  C   C80       1.0  0.28644752217790875  0.23753508497672013  0.0661165408161608  1.0000
  C   C81       1.0  0.962704897504267  0.23988555725262725  0.9308423339743115  1.0000
  C   C82       1.0  0.26930286891310834  0.5516093904799462  0.9349151272843628  1.0000
  C   C83       1.0  0.2920159768910011  0.24142666171698574  0.9325097856226137  1.0000
  C   C84       1.0  0.29422737705409935  0.596372408340862  0.1125703017096455  1.0000
  C   C85       1.0  0.613052814581785  0.08292425563413268  0.7211821237018797  1.0000
  O   O1        1.0  0.6797949986788866  0.1683983419204153  0.44698274625243073  1.0000
  O   O2        1.0  0.31209041968582335  0.8105334863110654  0.5486727505442417  1.0000
  O   O3        1.0  0.4836228851202405  0.802655702236002  0.5472920736343028  1.0000
  O   O4        1.0  0.6863941478335531  0.9916878523121819  0.5487908949115763  1.0000
  O   O5        1.0  0.5012560685883329  0.007289786877059596  0.5004058296644374  1.0000
  O   O6        1.0  0.18537720411066516  0.16117622308551194  0.0511096733177681  1.0000
  O   O7        1.0  0.974539868956157  0.1555846306906971  0.0477860804087911  1.0000
  O   O8        1.0  0.973405299390201  0.3338299651699684  0.047356142853026  1.0000
  O   O9        1.0  0.17229991607125328  0.5245124815576289  0.0473100741324686  1.0000
  O   O10       1.0  0.34844061685264893  0.5257210443677565  0.0470570296462043  1.0000
  O   O11       1.0  0.3630938870582412  0.33483925344746973  0.044775175750793  1.0000
  O   O12       1.0  0.47409558742174346  0.17484689465694458  0.4520337780833544  1.0000
  O   O13       1.0  0.19543511750484302  0.16204494190341018  0.950429238947045  1.0000
  O   O14       1.0  0.9888823538052735  0.16287447672500116  0.9459320647120251  1.0000
  O   O15       1.0  0.9738070753832844  0.3327901434027892  0.9535581587378132  1.0000
  O   O16       1.0  0.17014894794935737  0.5273997319098453  0.9539196913154271  1.0000
  O   O17       1.0  0.34705441798215014  0.5306556268871744  0.9534402877154307  1.0000
  O   O18       1.0  0.3665740678095729  0.3430316909255281  0.9514579927970531  1.0000
  O   O19       1.0  0.1636983210100595  0.32513843466905706  0.9994661920425685  1.0000
  O   O20       1.0  0.3041557323708799  0.9926880892292894  0.45073199529828395  1.0000
  O   O21       1.0  0.31587943240064903  0.8014291974780928  0.4558517112978038  1.0000
  O   O22       1.0  0.49316542467705904  0.8052906751458762  0.4538366784383072  1.0000
  O   O23       1.0  0.6925219798848231  0.9972520868991164  0.4554990265812435  1.0000
  O   O24       1.0  0.6929692444052549  0.17379322239641934  0.547672372255569  1.0000
  O   O25       1.0  0.48253091733673165  0.17144080449019572  0.5526847558572499  1.0000
  O   O26       1.0  0.30104189300640644  0.004193284774892399  0.5436534462196079  1.0000
  O   O27       1.0  0.6664279349052151  0.33842152237254186  0.5012490027573477  1.0000
  O   O28       1.0  0.006951043110042506  0.9937439159708176  0.9963819092626452  1.0000
