data_image0
_chemical_formula_structural       Er2H14C16S2N2O14
_chemical_formula_sum              "Er2 H14 C16 S2 N2 O14"
_cell_length_a       6.980203141122057
_cell_length_b       10.436528285649159
_cell_length_c       10.43911473024828
_cell_angle_alpha    65.61542009666782
_cell_angle_beta     69.38491411181641
_cell_angle_gamma    69.47478501115086

_space_group_name_H-M_alt    "P 1"
_space_group_IT_number       1

loop_
  _space_group_symop_operation_xyz
  'x, y, z'

loop_
  _atom_site_type_symbol
  _atom_site_label
  _atom_site_symmetry_multiplicity
  _atom_site_fract_x
  _atom_site_fract_y
  _atom_site_fract_z
  _atom_site_occupancy
  Er  Er1       1.0  0.8695019379768283  0.8223034502222858  0.8225158968133357  1.0000
  Er  Er2       1.0  0.13050026688690503  0.17761829362607534  0.17755348765935958  1.0000
  H   H1        1.0  0.7572198374005339  0.6414482553168027  0.2743573273704172  1.0000
  H   H2        1.0  0.24286342053176926  0.7258008723949414  0.35868395816756765  1.0000
  H   H3        1.0  0.2428675734046662  0.35831520425610813  0.725486564828863  1.0000
  H   H4        1.0  0.7571339594452837  0.274344386157523  0.6414895480577485  1.0000
  H   H5        1.0  0.6851002240384358  0.8028744216570515  0.4198603982510677  1.0000
  H   H6        1.0  0.3149459520089337  0.5805703974487171  0.1970033458897832  1.0000
  H   H7        1.0  0.3149838880077667  0.19721982201699004  0.5796399076639318  1.0000
  H   H8        1.0  0.684961527343894  0.41987529788141836  0.8029084999713589  1.0000
  H   H9        1.0  0.7950265368413764  0.39245286126572404  0.3924272031273333  1.0000
  H   H10       1.0  0.20502814493728752  0.6073704180473455  0.6077697927115723  1.0000
  H   H11       1.0  0.15901712167193682  0.9057996498553817  0.9059515280434951  1.0000
  H   H12       1.0  0.8409465541171244  0.09386862036497227  0.09440513639891181  1.0000
  H   H13       1.0  0.3081937517588216  0.8081561497050342  0.8081361206933907  1.0000
  H   H14       1.0  0.691802230184848  0.1914630138908819  0.19226476198490866  1.0000
  C   C1        1.0  0.7416982448332873  0.6003999810301648  0.39115919517563924  1.0000
  C   C2        1.0  0.25833755851656554  0.6090054285944362  0.399647051868186  1.0000
  C   C3        1.0  0.2583432973374186  0.3995384163756484  0.6086946150133982  1.0000
  C   C4        1.0  0.7416289379938092  0.39114838250672795  0.600429175767374  1.0000
  C   C5        1.0  0.702685209823478  0.6863731954915125  0.4724832101855156  1.0000
  C   C6        1.0  0.29737457679629387  0.5278430074788574  0.3134982391516488  1.0000
  C   C7        1.0  0.2974179864568711  0.31371945787980593  0.5271937082775935  1.0000
  C   C8        1.0  0.7026183545308412  0.47247501828841376  0.6863971586036824  1.0000
  C   C9        1.0  0.6829004453647725  0.6243057368460185  0.6243092519373691  1.0000
  C   C10       1.0  0.3171505294698065  0.3760104945252962  0.375370030207229  1.0000
  C   C11       1.0  0.4224407933802753  0.9791990856462929  0.9794127618405711  1.0000
  C   C12       1.0  0.5775566217257405  0.0207998622919732  0.02058553430578771  1.0000
  C   C13       1.0  0.9185386657363563  0.5159695079064477  0.06726668085066488  1.0000
  C   C14       1.0  0.08149921906883154  0.932838843659901  0.4839498519052655  1.0000
  C   C15       1.0  0.08109074387760268  0.48390013598621096  0.9327308650469633  1.0000
  C   C16       1.0  0.9188223845360496  0.06715372048387988  0.5161850312059713  1.0000
  S   S1        1.0  0.6218349740443256  0.7297246873986791  0.7297503818769684  1.0000
  S   S2        1.0  0.37811065110913944  0.27094333816494737  0.26959926007526047  1.0000
  N   N1        1.0  0.7606212497460588  0.4558064131609853  0.455824893924131  1.0000
  N   N2        1.0  0.23934981059095142  0.5441620273392473  0.5442297318512246  1.0000
  O   O1        1.0  0.5036311740091789  0.8996316816104154  0.9002511874706303  1.0000
  O   O2        1.0  0.4963514078759701  0.1004619343707063  0.09965876669126313  1.0000
  O   O3        1.0  0.22741490040909434  0.027223059690278693  0.02733938772183819  1.0000
  O   O4        1.0  0.7725789215302538  0.9726812930246495  0.9727522175348539  1.0000
  O   O5        1.0  0.8178243619182906  0.64664459578308  0.05242932354300223  1.0000
  O   O6        1.0  0.18233035611147838  0.9477951300688402  0.3531627448006133  1.0000
  O   O7        1.0  0.18182992779406953  0.35324062713678467  0.9474923232432033  1.0000
  O   O8        1.0  0.817992287338356  0.05225578190169949  0.6469590745918196  1.0000
  O   O9        1.0  0.9010260474704024  0.4079675654743582  0.18186729428716578  1.0000
  O   O10       1.0  0.09904452562195595  0.8182946550485325  0.5919403162051609  1.0000
  O   O11       1.0  0.098636414924826  0.5919253738982134  0.8181577561267944  1.0000
  O   O12       1.0  0.9012611474967327  0.18169701695337184  0.40818404112334855  1.0000
  O   O13       1.0  0.15739777390710688  0.8503895428775577  0.8503917828921175  1.0000
  O   O14       1.0  0.842580183768035  0.14898830628472126  0.15024580845030047  1.0000
