data_image0
_chemical_formula_structural       Al2H16C28N2O10F2
_chemical_formula_sum              "Al2 H16 C28 N2 O10 F2"
_cell_length_a       6.667656079710156
_cell_length_b       11.144780851468358
_cell_length_c       17.722845408616724
_cell_angle_alpha    84.12521997744929
_cell_angle_beta     79.80007190332013
_cell_angle_gamma    72.24713882493892

_space_group_name_H-M_alt    "P 1"
_space_group_IT_number       1

loop_
  _space_group_symop_operation_xyz
  'x, y, z'

loop_
  _atom_site_type_symbol
  _atom_site_label
  _atom_site_symmetry_multiplicity
  _atom_site_fract_x
  _atom_site_fract_y
  _atom_site_fract_z
  _atom_site_occupancy
  Al  Al1       1.0  0.4908175375997316  0.5066574222350227  0.5025481370618934  1.0000
  Al  Al2       1.0  0.9895169248092799  0.5079156001640257  0.502434005748789  1.0000
  H   H1        1.0  0.2822587607728835  0.36646109148609435  0.5601456729396972  1.0000
  H   H2        1.0  0.6868236204338276  0.6578278477661286  0.460224388980471  1.0000
  H   H3        1.0  0.6996638141756648  0.43158856459628947  0.2801230755749984  1.0000
  H   H4        1.0  0.7878014374669674  0.40772183333653794  0.13791325459990839  1.0000
  H   H5        1.0  0.0315994778727032  0.5346628661772711  0.2647193434401629  1.0000
  H   H6        1.0  0.9200954573013435  0.5463820660437121  0.7368092775121013  1.0000
  H   H7        1.0  0.3587237768325906  0.4359270696291802  0.7322685928865269  1.0000
  H   H8        1.0  0.3003648998781899  0.4130938355618099  0.8759519842006256  1.0000
  H   H9        1.0  0.22332968032259254  0.2461141289857807  0.39416663683279296  1.0000
  H   H10       1.0  0.441115931144786  0.7758197660726155  0.3949228047365025  1.0000
  H   H11       1.0  0.7589682220537528  0.8888436773286938  0.5578224778754474  1.0000
  H   H12       1.0  0.6416475254829309  0.1248861024304162  0.5521297814603585  1.0000
  H   H13       1.0  0.12344261576704695  0.5401464984254075  0.0544258540853875  1.0000
  H   H14       1.0  0.9334577070353801  0.5761114199791065  0.13472572695823  1.0000
  H   H15       1.0  0.8345679823598003  0.549191423206679  0.9470670775832984  1.0000
  H   H16       1.0  0.9854157413059708  0.5862518506829204  0.863757298419891  1.0000
  C   C1        1.0  0.8572761599088707  0.28079528970239664  0.4914563923465706  1.0000
  C   C2        1.0  0.6819214803960207  0.5018438774173007  0.6415875560011557  1.0000
  C   C3        1.0  0.12894928900818312  0.7353431463361843  0.5006090446848432  1.0000
  C   C4        1.0  0.30675999306959784  0.4999366180011221  0.3638281615790432  1.0000
  C   C5        1.0  0.3601529437435859  0.4858668996424312  0.2794384646394262  1.0000
  C   C6        1.0  0.5747703184009865  0.4506218119412039  0.24457961898976774  1.0000
  C   C7        1.0  0.6226374844154776  0.43841692549521843  0.1659082888377839  1.0000
  C   C8        1.0  0.459648081517308  0.4657736684054895  0.12012813463395132  1.0000
  C   C9        1.0  0.24189594116272423  0.5014901153113482  0.155739254996945  1.0000
  C   C10       1.0  0.1963386070268101  0.5085811783678125  0.23578581215789998  1.0000
  C   C11       1.0  0.5068637015245016  0.4626613333639824  0.03938893693349847  1.0000
  C   C12       1.0  0.5333534539106707  0.4653234092584314  0.9690519040446617  1.0000
  C   C13       1.0  0.5713560170333949  0.472375504139528  0.8880319936480133  1.0000
  C   C14       1.0  0.749654728204348  0.5110336620893392  0.8488726742777785  1.0000
  C   C15       1.0  0.7834315184872478  0.5189968500390095  0.7683562991489339  1.0000
  C   C16       1.0  0.6426764775205456  0.4930245902533699  0.7271401606623086  1.0000
  C   C17       1.0  0.4658305928589004  0.45619593440247286  0.7656251888370633  1.0000
  C   C18       1.0  0.4335720836929441  0.44441303042073327  0.8451224884768677  1.0000
  C   C19       1.0  0.932384013612264  0.14120338359924736  0.4848134201289085  1.0000
  C   C20       1.0  0.1350779590123708  0.07745933976200799  0.4431066024744581  1.0000
  C   C21       1.0  0.7976328184952663  0.0735999323412813  0.5227236250906984  1.0000
  C   C22       1.0  0.26841483386777293  0.1435587245490595  0.3969203214233517  1.0000
  C   C23       1.0  0.45512100790114834  0.07819787387312967  0.3542323328400627  1.0000
  C   C24       1.0  0.06283230495484571  0.8756895436967438  0.4897498762403741  1.0000
  C   C25       1.0  0.8628888050087512  0.9414212054924956  0.5256782045623538  1.0000
  C   C26       1.0  0.20015500505525816  0.9416138818806346  0.4447854018017949  1.0000
  C   C27       1.0  0.3929124484874008  0.8778613927213427  0.3983971164906421  1.0000
  C   C28       1.0  0.5166971645852882  0.9451021340314156  0.35459464928240436  1.0000
  N   N1        1.0  0.08182027731102441  0.5255645273457361  0.11175736355911428  1.0000
  N   N2        1.0  0.8873163274232924  0.5359056329327031  0.8903440939389496  1.0000
  O   O1        1.0  0.6601534573458778  0.33481710594961817  0.4898595765548492  1.0000
  O   O2        1.0  0.8605077686454335  0.5157371078734913  0.6088076506826994  1.0000
  O   O3        1.0  0.9867438951918078  0.6809833798224998  0.4999826065796639  1.0000
  O   O4        1.0  0.4502692624470371  0.5159863421173084  0.39733173417210566  1.0000
  O   O5        1.0  0.32061357443566857  0.6801482207150045  0.5106507063716847  1.0000
  O   O6        1.0  0.12156525828326184  0.4965208822795048  0.3962654174082445  1.0000
  O   O7        1.0  0.9928097317867713  0.33519165879624063  0.5010987335706786  1.0000
  O   O8        1.0  0.5340824973241354  0.4926628425509563  0.6075515974322983  1.0000
  O   O9        1.0  0.25343130204710457  0.45002083115610964  0.5351709044958566  1.0000
  O   O10       1.0  0.7250297408403554  0.5670463823637633  0.4700317112921653  1.0000
  F   F1        1.0  0.5829731428016273  0.1397903294519836  0.3094201213915966  1.0000
  F   F2        1.0  0.6997192639185742  0.8850543146864354  0.3095329839221462  1.0000
