data_image0
_chemical_formula_structural       Zr6H30C57O48
_chemical_formula_sum              "Zr6 H30 C57 O48"
_cell_length_a       14.742225070743752
_cell_length_b       14.780940122400485
_cell_length_c       14.74975683154256
_cell_angle_alpha    60.06767017029682
_cell_angle_beta     59.862994078361716
_cell_angle_gamma    59.96310570440504

_space_group_name_H-M_alt    "P 1"
_space_group_IT_number       1

loop_
  _space_group_symop_operation_xyz
  'x, y, z'

loop_
  _atom_site_type_symbol
  _atom_site_label
  _atom_site_symmetry_multiplicity
  _atom_site_fract_x
  _atom_site_fract_y
  _atom_site_fract_z
  _atom_site_occupancy
  Zr  Zr1       1.0  0.8704665661871831  0.8850420249004424  0.6238619614424791  1.0000
  Zr  Zr2       1.0  0.11295907867572907  0.12157004498948956  0.38209252539438415  1.0000
  Zr  Zr3       1.0  0.10995736212737477  0.8846106686643719  0.6237778999638621  1.0000
  Zr  Zr4       1.0  0.8711859645387604  0.12415270399124267  0.38467364445396857  1.0000
  Zr  Zr5       1.0  0.11009460640426746  0.8830161782273647  0.38463421802465797  1.0000
  Zr  Zr6       1.0  0.8710147166340434  0.1249024304737742  0.6232295121653522  1.0000
  H   H1        1.0  0.08844520157503416  0.720004232686456  0.5954231950687968  1.0000
  H   H2        1.0  0.08842619842695139  0.09490980995191477  0.21970411112027927  1.0000
  H   H3        1.0  0.0848811473899928  0.09929677259282946  0.5969995495468013  1.0000
  H   H4        1.0  0.7072395295289622  0.10044985290013381  0.5998091160349971  1.0000
  H   H5        1.0  0.8231083685710272  0.6056955676944964  0.6294880848956693  1.0000
  H   H6        1.0  0.12627328997239576  0.6021343006030263  0.3494486248042819  1.0000
  H   H7        1.0  0.8308170363757623  0.4337498794911594  0.6264035698603293  1.0000
  H   H8        1.0  0.5889363368089278  0.844564179595373  0.9281545778205355  1.0000
  H   H9        1.0  0.5897879197221556  0.13292798790726545  0.9328630255605787  1.0000
  H   H10       1.0  0.41869836310900155  0.8434529298206567  0.0990169850532823  1.0000
  H   H11       1.0  0.11687525917611194  0.8399665285746137  0.10659002808205996  1.0000
  H   H12       1.0  0.8296363346257037  0.13517175756294347  0.1062078309385583  1.0000
  H   H13       1.0  0.1166072752071443  0.8440869093262007  0.9349814044184869  1.0000
  H   H14       1.0  0.5977425875991925  0.4427485282785353  0.6267389438499507  1.0000
  H   H15       1.0  0.574619204852354  0.4142256106316465  0.3634041583011651  1.0000
  H   H16       1.0  0.42800854643573416  0.612149935570514  0.6254657818532294  1.0000
  H   H17       1.0  0.5778231277490633  0.14610826293080936  0.3545583923108281  1.0000
  H   H18       1.0  0.5827813886515048  0.854687019352262  0.644518607152662  1.0000
  H   H19       1.0  0.41130284854424554  0.1400956621079813  0.3538990409340386  1.0000
  H   H20       1.0  0.2455491234663184  0.33441919004672355  0.40972485919237306  1.0000
  H   H21       1.0  0.3061848420425335  0.25004904962021607  0.040683480020909706  1.0000
  H   H22       1.0  0.9183488653297972  0.24663166666940825  0.8523761196715327  1.0000
  H   H23       1.0  0.27344747436779226  0.5288412255861202  0.4679028950347189  1.0000
  H   H24       1.0  0.28780047045190577  0.9098262562668463  0.7553492219402144  1.0000
  H   H25       1.0  0.04009037017293356  0.5082039416188663  0.18906616159607373  1.0000
  H   H26       1.0  0.0403492855623568  0.7197357250898265  0.920392163940626  1.0000
  H   H27       1.0  0.9839113823933728  0.18574915852359888  0.12014805258353085  1.0000
  H   H28       1.0  0.11833838138806378  0.19508412260704944  0.7880781940933659  1.0000
  H   H29       1.0  0.07211405500441964  0.4390675514436707  0.6332482557835206  1.0000
  H   H30       1.0  0.9848853738126165  0.6256059381138072  0.702898756828404  1.0000
  C   C1        1.0  0.979844621146846  0.7083133430343761  0.49689303709644145  1.0000
  C   C2        1.0  0.3021286361636442  0.9914035531084547  0.20604440893114884  1.0000
  C   C3        1.0  0.9872935290830681  0.3150983010942594  0.49276670815051904  1.0000
  C   C4        1.0  0.694874489740272  0.9952736018093729  0.8149226375836705  1.0000
  C   C5        1.0  0.9960757622186738  0.6925235171137697  0.8066422518062454  1.0000
  C   C6        1.0  0.6876800734782548  0.0036811766798904395  0.502471257038458  1.0000
  C   C7        1.0  0.9965525959079784  0.3020292071243557  0.19589964553694716  1.0000
  C   C8        1.0  0.2991434874469407  0.9992061772611076  0.5006203987485093  1.0000
  C   C9        1.0  0.29849452518653424  0.7027241756046576  0.5025056595296106  1.0000
  C   C10       1.0  0.98461588309776  9.107378396083431e-06  0.8139741226513024  1.0000
  C   C11       1.0  0.6930371434756352  0.31412139492386604  0.4987901551986908  1.0000
  C   C12       1.0  0.9804445651497534  0.9936788706311924  0.20986483145947693  1.0000
  C   C13       1.0  0.982165550653292  0.42166524052934284  0.4867103095822074  1.0000
  C   C14       1.0  0.9756592452814059  0.6125342542936919  0.49065765177764575  1.0000
  C   C15       1.0  0.06524668459070448  0.4700765505590849  0.406393346521874  1.0000
  C   C16       1.0  0.8904513022642604  0.5671585552984337  0.5675835312821319  1.0000
  C   C17       1.0  0.061376545284027105  0.5651414157566561  0.4091643949142707  1.0000
  C   C18       1.0  0.8943549589090054  0.4722390058349644  0.5654335982068872  1.0000
  C   C19       1.0  0.406273593274314  0.9903663806530713  0.10808448052940627  1.0000
  C   C20       1.0  0.5962390482412586  0.9913246147527413  0.9187434440769235  1.0000
  C   C21       1.0  0.45483738024412196  0.0719956630159046  0.062713864657546  1.0000
  C   C22       1.0  0.5500582661694725  0.9080658794150478  0.9660784419254826  1.0000
  C   C23       1.0  0.5498537444374422  0.0718942266218717  0.9678993048808805  1.0000
  C   C24       1.0  0.45558080898728565  0.9077168494272096  0.0603932808670464  1.0000
  C   C25       1.0  0.9760445706168354  0.9945254661608657  0.921635159438395  1.0000
  C   C26       1.0  0.9738667132093399  0.9881787497905987  0.11521724950451093  1.0000
  C   C27       1.0  0.8933643838764878  0.07670310494248848  0.9704553905714092  1.0000
  C   C28       1.0  0.05408383175667082  0.9047627594233061  0.06859137524548947  1.0000
  C   C29       1.0  0.8921490752001375  0.07170030931015949  0.06799735799560115  1.0000
  C   C30       1.0  0.05416062311468304  0.9077156661681726  0.9729807762684075  1.0000
  C   C31       1.0  0.40214336388605454  0.6042853985122887  0.4985158602317626  1.0000
  C   C32       1.0  0.5944898311792529  0.417746742520009  0.49642891268265993  1.0000
  C   C33       1.0  0.44382773613491383  0.5494250397323838  0.42290902988455764  1.0000
  C   C34       1.0  0.5541268672041608  0.47339085473208786  0.5701073526781214  1.0000
  C   C35       1.0  0.5406815578847741  0.45720892590512086  0.4216607515199229  1.0000
  C   C36       1.0  0.4589966833583717  0.566727468150034  0.5702839424391613  1.0000
  C   C37       1.0  0.013844912378040433  0.5839183151908997  0.8953662360148442  1.0000
  C   C38       1.0  0.024629353289753905  0.48473538368781977  0.8897051973210283  1.0000
  C   C39       1.0  0.015348949313896403  0.5826083625035137  0.9901737717215086  1.0000
  C   C40       1.0  0.0473781482423944  0.4752089439201439  0.7886729357693555  1.0000
  C   C41       1.0  0.07021276104338638  0.375099076166556  0.7828250786672868  1.0000
  C   C42       1.0  0.007553517947137404  0.39512984416808894  0.08741301763367204  1.0000
  C   C43       1.0  0.003444091123839076  0.48982336184757697  0.08972856245668477  1.0000
  C   C44       1.0  0.024941500140741365  0.38687104442863773  0.9867911318554405  1.0000
  C   C45       1.0  0.04930141260622628  0.28465609872132086  0.977799199936925  1.0000
  C   C46       1.0  0.07114204165053205  0.2793255515364236  0.8771172178168952  1.0000
  C   C47       1.0  0.40012649275616524  0.9977196630385519  0.5023543792656469  1.0000
  C   C48       1.0  0.5877647706608045  0.0020842641225371846  0.5014577592772724  1.0000
  C   C49       1.0  0.44886020821529365  0.9149913098035823  0.5845173964233155  1.0000
  C   C50       1.0  0.5403292041533801  0.08283542251549392  0.41896963330005116  1.0000
  C   C51       1.0  0.542765033812451  0.9181762079728766  0.5829217024064163  1.0000
  C   C52       1.0  0.4471805384116792  0.08026279808466075  0.41943113825541195  1.0000
  C   C53       1.0  0.15958223811529848  0.4294401591319569  0.31252495934524654  1.0000
  C   C54       1.0  0.41553798518162216  0.15722100871006703  0.11422501120223662  1.0000
  C   C55       1.0  0.8091251362214255  0.17647663086276547  0.9196204804360519  1.0000
  C   C56       1.0  0.3904018777323587  0.5816080841184216  0.3420322101560913  1.0000
  C   C57       1.0  0.412979969225944  0.8161777323519882  0.6715492598385566  1.0000
  O   O1        1.0  0.9036306879326405  0.746141427093789  0.5757979468818492  1.0000
  O   O2        1.0  0.2614988991444704  0.06837595206685873  0.246025835097889  1.0000
  O   O3        1.0  0.06777607355523675  0.2724939016776488  0.4188176810002844  1.0000
  O   O4        1.0  0.7355766128270961  0.9184544256062419  0.7742159113838271  1.0000
  O   O5        1.0  0.05548121377675847  0.7489979528580829  0.7784033023061738  1.0000
  O   O6        1.0  0.7269172785557102  0.08081619774105746  0.4258276053237465  1.0000
  O   O7        1.0  0.9130011944789375  0.26987939087386054  0.23944547164303018  1.0000
  O   O8        1.0  0.2584461759420336  0.9228929559718322  0.5780635381169859  1.0000
  O   O9        1.0  0.2575734580460036  0.7409806283703727  0.426767717402214  1.0000
  O   O10       1.0  0.9125801870801168  0.08060207836349022  0.7695897412528794  1.0000
  O   O11       1.0  0.7307049898391326  0.272834391662826  0.5776403558899402  1.0000
  O   O12       1.0  0.05845239819100141  0.9188479325582432  0.24768268791449094  1.0000
  O   O13       1.0  0.06490089068045532  0.9251662068018758  0.772488976579659  1.0000
  O   O14       1.0  0.7307472399366758  0.2724597646953552  0.42380424306060854  1.0000
  O   O15       1.0  0.9088895286629538  0.07710701094145359  0.24328380201695413  1.0000
  O   O16       1.0  0.25700803456454935  0.7405223911441109  0.5813083400539368  1.0000
  O   O17       1.0  0.9201033770001954  0.7274664204362079  0.7663784272581255  1.0000
  O   O18       1.0  0.2590202765587293  0.07703803567756033  0.4249294591792037  1.0000
  O   O19       1.0  0.07161621333465017  0.262257585777327  0.23761833221173131  1.0000
  O   O20       1.0  0.7257101307404598  0.9282960807512448  0.5809246265864942  1.0000
  O   O21       1.0  0.7307093422749843  0.07542851014078862  0.7723033316625062  1.0000
  O   O22       1.0  0.061521783103628915  0.7425055627625169  0.42529903615374554  1.0000
  O   O23       1.0  0.2592337436715512  0.9180364484501735  0.2422315286421152  1.0000
  O   O24       1.0  0.9131017605346584  0.27353481599003937  0.5731837603751373  1.0000
  O   O25       1.0  0.787895401384027  0.07265811295661702  0.5725279537707736  1.0000
  O   O26       1.0  0.0588619118962228  0.07160196450175241  0.5703544600529041  1.0000
  O   O27       1.0  0.059802794416512504  0.06777286366759935  0.30078302749704017  1.0000
  O   O28       1.0  0.058052747351858676  0.8005185588220338  0.5720605365770907  1.0000
  O   O29       1.0  0.14028200252361994  0.9525574657655579  0.4547600319490855  1.0000
  O   O30       1.0  0.9397609606604147  0.9544946034316408  0.45517774813029616  1.0000
  O   O31       1.0  0.9425621573093109  0.15236263356108976  0.4535386703869833  1.0000
  O   O32       1.0  0.9410156538109575  0.9548821112592376  0.6526366720325996  1.0000
  O   O33       1.0  0.2557946907315483  0.35622075547131954  0.3317459168043797  1.0000
  O   O34       1.0  0.15611050268010723  0.4685673916462035  0.21883638797508098  1.0000
  O   O35       1.0  0.33767627439067394  0.2555641077897589  0.08157917496590268  1.0000
  O   O36       1.0  0.4582860659001113  0.14374454442235413  0.17410789060092924  1.0000
  O   O37       1.0  0.8433159625219916  0.26694925939438696  0.8538663903939893  1.0000
  O   O38       1.0  0.7161149847893568  0.18272616519512713  0.9398563913703626  1.0000
  O   O39       1.0  0.29984540448299385  0.5491583796846625  0.3871362997279776  1.0000
  O   O40       1.0  0.42928780914541426  0.6217423809868163  0.2422518176410478  1.0000
  O   O41       1.0  0.3267166701524855  0.8308313313933976  0.7662115995105198  1.0000
  O   O42       1.0  0.4654703266814906  0.7238637819766037  0.664365232908814  1.0000
  O   O43       1.0  0.9793163883887459  0.4972208269105136  0.1879228757090559  1.0000
  O   O44       1.0  0.019224596142067  0.6682955256513378  0.9970624364889673  1.0000
  O   O45       1.0  0.05854332604870654  0.18639863077070368  0.0661061092241724  1.0000
  O   O46       1.0  0.09000151226833003  0.1825130321744267  0.8677405683265961  1.0000
  O   O47       1.0  0.09266790025607459  0.3639488668917748  0.6856788185924786  1.0000
  O   O48       1.0  0.05305438376623057  0.5614303886882794  0.6885763917001526  1.0000
