data_image0
_chemical_formula_structural       Li4H48C56N12O12
_chemical_formula_sum              "Li4 H48 C56 N12 O12"
_cell_length_a       7.700115409
_cell_length_b       10.195491961193463
_cell_length_c       16.119
_cell_angle_alpha    90.23348864822859
_cell_angle_beta     90.0
_cell_angle_gamma    90.0

_space_group_name_H-M_alt    "P 1"
_space_group_IT_number       1

loop_
  _space_group_symop_operation_xyz
  'x, y, z'

loop_
  _atom_site_type_symbol
  _atom_site_label
  _atom_site_symmetry_multiplicity
  _atom_site_fract_x
  _atom_site_fract_y
  _atom_site_fract_z
  _atom_site_occupancy
  Li  Li1       1.0  0.3410806021076382  0.3618482214587573  0.6842604423292471  1.0000
  Li  Li2       1.0  0.841077004174551  0.1381533820083263  0.8157398099581671  1.0000
  Li  Li3       1.0  0.6589225914808596  0.6381559663091991  0.315740064773756  1.0000
  Li  Li4       1.0  0.1589196960047801  0.8618439399230908  0.18425881828996177  1.0000
  H   H1        1.0  0.12035663763127503  0.5373399842349258  0.3457630995511494  1.0000
  H   H2        1.0  0.6203439489253528  0.9626609028311535  0.1542382675842688  1.0000
  H   H3        1.0  0.8796478546390605  0.4626602801978663  0.6542386382109129  1.0000
  H   H4        1.0  0.3796527512539783  0.0373393616016315  0.845760988634268  1.0000
  H   H5        1.0  0.07307682678915482  0.3032541915992866  0.3829492899778231  1.0000
  H   H6        1.0  0.5730680341287311  0.19674643103400058  0.11704971900964979  1.0000
  H   H7        1.0  0.9269237694356749  0.6967470536672947  0.617050589154772  1.0000
  H   H8        1.0  0.4269273673687622  0.8032538333987843  0.8829495372088871  1.0000
  H   H9        1.0  0.11577099207605103  0.176607951630686  0.5935031768207892  1.0000
  H   H10       1.0  0.6157699915066319  0.3233926710026012  0.9064964525525667  1.0000
  H   H11       1.0  0.8842270067851106  0.8233932936358953  0.4064967023118058  1.0000
  H   H12       1.0  0.38422800735452983  0.6766066125963945  0.0935009399801601  1.0000
  H   H13       1.0  0.05920560612210581  0.1378375535275254  0.4882621052592597  1.0000
  H   H14       1.0  0.5592046055526867  0.36216601160714385  0.0117375316986355  1.0000
  H   H15       1.0  0.9407923927390558  0.8621617300714773  0.5117396299746275  1.0000
  H   H16       1.0  0.440793393308475  0.6378362144932339  0.9882592480327403  1.0000
  H   H17       1.0  0.278380243170716  0.1270532859919982  0.5233053421382436  1.0000
  H   H18       1.0  0.7783805412831344  0.3729453749737104  0.9766949025646383  1.0000
  H   H19       1.0  0.7216190543722834  0.8729518826097474  0.4766957878788176  1.0000
  H   H20       1.0  0.22162005494169534  0.6270450811211674  0.023303087600375198  1.0000
  H   H21       1.0  0.22988486613213877  0.7594556812813309  0.3874864361713435  1.0000
  H   H22       1.0  0.7298747747898846  0.7405461866185375  0.1125130723346146  1.0000
  H   H23       1.0  0.7701196261381895  0.2405455639852505  0.6125134429612515  1.0000
  H   H24       1.0  0.27011413329844214  0.259453096980458  0.8874849405839882  1.0000
  H   H25       1.0  0.5245427874079811  0.9268114277585298  0.6305606527204262  1.0000
  H   H26       1.0  0.024538593250063908  0.5731904401413388  0.8694438188725755  1.0000
  H   H27       1.0  0.4754552114531806  0.0731917791756302  0.3694398518544091  1.0000
  H   H28       1.0  0.9754671977021021  0.42680982429144615  0.1305610208188881  1.0000
  H   H29       1.0  0.6173452925710592  0.8247134959190063  0.7619210370574123  1.0000
  H   H30       1.0  0.11733979973130462  0.675284448645705  0.7380803224934738  1.0000
  H   H31       1.0  0.3826643944266125  0.1752877493475751  0.2380776013034236  1.0000
  H   H32       1.0  0.8826776793573645  0.3247128732857121  0.26192388922757454  1.0000
  H   H33       1.0  0.6652263931022306  0.494900286918444  0.8002948146361959  1.0000
  H   H34       1.0  0.16522090026248296  0.0050983740472645  0.6997060504525692  1.0000
  H   H35       1.0  0.3347780991680978  0.5051029200157231  0.1997050695527491  1.0000
  H   H36       1.0  0.8347796959623468  0.9948999287179419  0.30029382109550073  1.0000
  H   H37       1.0  0.4505854543354958  0.5162854060705229  0.8361672948725953  1.0000
  H   H38       1.0  0.9505805577205708  0.9837125384941885  0.6638334442924076  1.0000
  H   H39       1.0  0.5494190379348397  0.4837178008636442  0.1638332097022328  1.0000
  H   H40       1.0  0.049416142458753115  0.0162818409358536  0.3361688986864664  1.0000
  H   H41       1.0  0.6110311014950158  0.6403157623176767  0.8552611104468469  1.0000
  H   H42       1.0  0.11102690733709862  0.8596812014132382  0.6447402465758643  1.0000
  H   H43       1.0  0.3889720920934821  0.3596854829489047  0.1447387686857482  1.0000
  H   H44       1.0  0.8889736888877311  0.1403151396843896  0.3552608606876078  1.0000
  H   H45       1.0  0.3784475745121939  0.9016530410112579  0.49077125631539786  1.0000
  H   H46       1.0  0.878447872624605  0.5983478460548213  0.009230110820020301  1.0000
  H   H47       1.0  0.6215478269853065  0.09834820425532338  0.5092311043607154  1.0000
  H   H48       1.0  0.12154882755471871  0.4016504567103851  0.9907697607280497  1.0000
  C   C1        1.0  0.2980202085436049  0.5286095826584187  0.5397879937303998  1.0000
  C   C2        1.0  0.7980153119286868  0.9713913044076676  0.9602139937909016  1.0000
  C   C3        1.0  0.7019816863630626  0.4713916626081626  0.4602137465598375  1.0000
  C   C4        1.0  0.20197879088697593  0.0286050366899602  0.03978401154316911  1.0000
  C   C5        1.0  0.24583008168780657  0.5838030617633905  0.4628082293945113  1.0000
  C   C6        1.0  0.7458238863910511  0.9161968444688994  0.0371937555986079  1.0000
  C   C7        1.0  0.7541718132188608  0.4161981835031909  0.5371928905098429  1.0000
  C   C8        1.0  0.2541689177427742  0.08380145829630689  0.9628061159494551  1.0000
  C   C9        1.0  0.16295340178063367  0.4994072181895461  0.4055182933867698  1.0000
  C   C10       1.0  0.6629420117565419  0.0005924236099588  0.0944819538442943  1.0000
  C   C11       1.0  0.8370497918078642  0.500593046243246  0.5944822036035333  1.0000
  C   C12       1.0  0.3370507923772834  0.999406859989044  0.9055172998460748  1.0000
  C   C13       1.0  0.1356654990883683  0.370207867862149  0.4263180964386066  1.0000
  C   C14       1.0  0.6356580051097753  0.1297927547711453  0.0736802921629902  1.0000
  C   C15       1.0  0.8643363958182988  0.629792396570643  0.5736811597799303  1.0000
  C   C16       1.0  0.36433479902405014  0.8702065288278575  0.9263177207556126  1.0000
  C   C17       1.0  0.188299775131334  0.3233053767951759  0.5049123823931437  1.0000
  C   C18       1.0  0.6882935798345786  0.1766962266719077  0.9950872495083942  1.0000
  C   C19       1.0  0.8116982237298347  0.6766958684714055  0.4950881171253343  1.0000
  C   C20       1.0  0.3116953282537481  0.8233010952595095  0.004910137967975499  1.0000
  C   C21       1.0  0.1569898547997184  0.1833325481039552  0.5285375706128549  1.0000
  C   C22       1.0  0.6569875555484688  0.31666807452933193  0.9714620587605011  1.0000
  C   C23       1.0  0.8430081440614432  0.8166696779964155  0.4714623110479153  1.0000
  C   C24       1.0  0.3430117419945304  0.6833312090696637  0.0285353337722185  1.0000
  C   C25       1.0  0.2756322324103522  0.7196328485200851  0.446273919324419  1.0000
  C   C26       1.0  0.7756260371135966  0.7803700002135797  0.0537262120955901  1.0000
  C   C27       1.0  0.7243683638144776  0.2803683967464963  0.5537253394223001  1.0000
  C   C28       1.0  0.22436806570206616  0.21963124505300158  0.946274907808764  1.0000
  C   C29       1.0  0.3850253980005008  0.6115998914092984  0.6000143155461402  1.0000
  C   C30       1.0  0.8850218000674135  0.8884029573243595  0.8999876770315111  1.0000
  C   C31       1.0  0.6149751982243288  0.3884023346910723  0.399986186500513  1.0000
  C   C32       1.0  0.11497360143008  0.1115953454408469  0.1000128149024349  1.0000
  C   C33       1.0  0.4148340421322133  0.7458809416095136  0.5807990484125582  1.0000
  C   C34       1.0  0.9148343402446246  0.7541209262903621  0.9192029416369181  1.0000
  C   C35       1.0  0.585165255410786  0.2541203036570678  0.4192014511059199  1.0000
  C   C36       1.0  0.0851662559802051  0.2458773764748443  0.0807987910687871  1.0000
  C   C37       1.0  0.5008808043957489  0.8227685025108257  0.6412100245512917  1.0000
  C   C38       1.0  0.0008766102378317002  0.6772323845552535  0.8587919629700025  1.0000
  C   C39       1.0  0.49912109051091863  0.177233723589552  0.35879047749536136  1.0000
  C   C40       1.0  0.9991265833506662  0.3227659182099529  0.14120914934981954  1.0000
  C   C41       1.0  0.5505112293570846  0.7661449677381142  0.7150680433723906  1.0000
  C   C42       1.0  0.05050313915366191  0.733852976826597  0.7849326957926195  1.0000
  C   C43       1.0  0.4494997563224176  0.2338552966946779  0.28492997207438714  1.0000
  C   C44       1.0  0.9495039504803346  0.26614434510482  0.2150696547707938  1.0000
  C   C45       1.0  0.5137000927773983  0.6322562510544287  0.7299223886543089  1.0000
  C   C46       1.0  0.013692002573982603  0.8677436551778612  0.7700795963388102  1.0000
  C   C47       1.0  0.48630699685659823  0.367745975045942  0.2700768726205851  1.0000
  C   C48       1.0  0.9863098923326776  0.1322526859197666  0.2299221313105377  1.0000
  C   C49       1.0  0.5627889674140363  0.5684657637685716  0.8101084816398725  1.0000
  C   C50       1.0  0.06278217589245122  0.9315321807961395  0.6898922575251376  1.0000
  C   C51       1.0  0.43721682353812963  0.43153548149800963  0.18989139749272968  1.0000
  C   C52       1.0  0.9372184203323786  0.06846416030148819  0.31010822935245125  1.0000
  C   C53       1.0  0.3565595908849559  0.797914174238862  0.5034066466971439  1.0000
  C   C54       1.0  0.8565585903155366  0.7020896553285922  0.9965953484086824  1.0000
  C   C55       1.0  0.6434397066580362  0.20208805186151577  0.4965944757353924  1.0000
  C   C56       1.0  0.14344070722745536  0.2979106091041928  0.0034057689674967  1.0000
  N   N1        1.0  0.2673635251744031  0.40131893488891984  0.5600877225080225  1.0000
  N   N2        1.0  0.7673599272413156  0.098680706910578  0.9399137654948007  1.0000
  N   N3        1.0  0.732635772368589  0.5986832912114508  0.4399127795386378  1.0000
  N   N4        1.0  0.2326315782106718  0.9013146533532534  0.060084857696971  1.0000
  N   N5        1.0  0.433484411947731  0.5575902786904477  0.6732704734101986  1.0000
  N   N6        1.0  0.9334795153328062  0.9424115892094206  0.8267315166392778  1.0000
  N   N7        1.0  0.5665187816407666  0.44241292824371203  0.32673065155051256  1.0000
  N   N8        1.0  0.0665171848465178  0.0575847518882  0.1732683498524352  1.0000
  N   N9        1.0  0.033069634216438715  0.3318739407961147  0.7772305166878938  1.0000
  N   N10       1.0  0.5330712310106875  0.1681257010033832  0.7227691101572874  1.0000
  N   N11       1.0  0.9669296633265534  0.6681273044704666  0.22276874205881822  1.0000
  N   N12       1.0  0.4669280665323044  0.8318765250969874  0.2772295307317307  1.0000
  O   O1        1.0  0.15070293604218685  0.4150162787846554  0.7608569449935416  1.0000
  O   O2        1.0  0.6507058315182732  0.0849823821810531  0.7391408181658221  1.0000
  O   O3        1.0  0.8492963615008051  0.5849839856481296  0.2391416908391193  1.0000
  O   O4        1.0  0.3492934660247258  0.9150188630855283  0.26085782019501375  1.0000
  O   O5        1.0  0.02995279781526961  0.2218685269309972  0.739512264629127  1.0000
  O   O6        1.0  0.529955693291349  0.278129153200922  0.760488597931456  1.0000
  O   O7        1.0  0.9700477984095601  0.7781307566680056  0.2604894706047531  1.0000
  O   O8        1.0  0.470043604251643  0.7218720920656594  0.2395094200434968  1.0000
  O   O9        1.0  0.918907006475493  0.35599264372459766  0.8313382208798004  1.0000
  O   O10       1.0  0.41890540968124423  0.14401092141007146  0.6686614160780876  1.0000
  O   O11       1.0  0.08109229106750601  0.6440115440433587  0.1686598046796917  1.0000
  O   O12       1.0  0.5810938878617551  0.8559913046902992  0.33133722481092326  1.0000
