data_image0
_chemical_formula_structural       U4H24C20O28
_chemical_formula_sum              "U4 H24 C20 O28"
_cell_length_a       8.351422664507687
_cell_length_b       9.675153299001252
_cell_length_c       10.614357430346955
_cell_angle_alpha    90.0000505812841
_cell_angle_beta     105.0296069061576
_cell_angle_gamma    89.99995329377812

_space_group_name_H-M_alt    "P 1"
_space_group_IT_number       1

loop_
  _space_group_symop_operation_xyz
  'x, y, z'

loop_
  _atom_site_type_symbol
  _atom_site_label
  _atom_site_symmetry_multiplicity
  _atom_site_fract_x
  _atom_site_fract_y
  _atom_site_fract_z
  _atom_site_occupancy
  U   U1        1.0  0.237192663063631  0.5067115609894018  0.5871299222255146  1.0000
  U   U2        1.0  0.7628024252762845  0.006709898027523302  0.41286343389558067  1.0000
  U   U3        1.0  0.21761262961511113  0.7538836426474662  0.12067382447774833  1.0000
  U   U4        1.0  0.7823858148780474  0.25388037118759854  0.8793392697337411  1.0000
  H   H1        1.0  0.9347499102760964  0.6856324440840712  0.4796056879995376  1.0000
  H   H2        1.0  0.06525123452206572  0.18563140698594083  0.5203909618670366  1.0000
  H   H3        1.0  0.9189363154028173  0.5764592455016742  0.9913026892536723  1.0000
  H   H4        1.0  0.08106608635263511  0.07645974480068672  0.00869979326748901  1.0000
  H   H5        1.0  0.5620990224287613  0.4586273214822966  0.3376836963915651  1.0000
  H   H6        1.0  0.4379006851095256  0.9586227105565758  0.6623138042597247  1.0000
  H   H7        1.0  0.6289862759999139  0.5292371117855127  0.4977239971709722  1.0000
  H   H8        1.0  0.3710174366434203  0.029234796203795106  0.5022749555829764  1.0000
  H   H9        1.0  0.8323123021609861  0.6359907670411646  0.2345382390643139  1.0000
  H   H10       1.0  0.16769631544199373  0.13598680190672496  0.7654599414637746  1.0000
  H   H11       1.0  0.7710812663297091  0.46192840926498496  0.19082070938825527  1.0000
  H   H12       1.0  0.22892344631375752  0.9619220349834522  0.8091731338880167  1.0000
  H   H13       1.0  0.9831166060385358  0.5031525220571141  0.26638902441134604  1.0000
  H   H14       1.0  0.0168871148967966  0.0031496699187343008  0.7336108521292104  1.0000
  H   H15       1.0  0.8604108422534225  0.6766219033351677  0.7589038866642711  1.0000
  H   H16       1.0  0.1395828700942587  0.17662569573405312  0.24109119581197552  1.0000
  H   H17       1.0  0.6842422847654461  0.7863907533961196  0.722304445403772  1.0000
  H   H18       1.0  0.31575130377981253  0.2863954859800587  0.2776954064204419  1.0000
  H   H19       1.0  0.5968049591468232  0.6666574219552931  0.9974082994572984  1.0000
  H   H20       1.0  0.4031924311064047  0.16665457567945913  0.0025922582593196127  1.0000
  H   H21       1.0  0.5478691174919206  0.8306527361668617  0.9219912609966557  1.0000
  H   H22       1.0  0.4521430951560177  0.3306478629780046  0.07800688218609513  1.0000
  H   H23       1.0  0.6797734887180625  0.8206906622407221  0.08244242489286796  1.0000
  H   H24       1.0  0.32023498249348853  0.32068673837492423  0.9175577515417855  1.0000
  C   C1        1.0  0.823677165603087  0.5046761381817861  0.39847463352848683  1.0000
  C   C2        1.0  0.17632037472147033  0.004672000364188002  0.6015220622649764  1.0000
  C   C3        1.0  0.8711227513199021  0.35462373755146365  0.43741159208599373  1.0000
  C   C4        1.0  0.1288721072983208  0.8546223551374798  0.562581041784405  1.0000
  C   C5        1.0  0.6427639221751137  0.5359439265315589  0.39790639885035267  1.0000
  C   C6        1.0  0.35723358698101754  0.035938621682881006  0.6020912566449397  1.0000
  C   C7        1.0  0.5876008700931835  0.6788181421592728  0.34511817561632807  1.0000
  C   C8        1.0  0.41239649248343113  0.17881181641503477  0.6548842699576625  1.0000
  C   C9        1.0  0.8541479966190978  0.5274953352292474  0.2637287140453212  1.0000
  C   C10       1.0  0.1458569569983013  0.02749032308929601  0.7362704979085779  1.0000
  C   C11       1.0  0.7958117599546883  0.7595623018721941  0.9298846784396133  1.0000
  C   C12       1.0  0.2041930436444872  0.2595648393994738  0.0701137387208703  1.0000
  C   C13       1.0  0.8710554440243358  0.9051258616228356  0.9349812712608951  1.0000
  C   C14       1.0  0.12893814007179571  0.4051243154256242  0.0650111339435426  1.0000
  C   C15       1.0  0.7472611275589641  0.7046721617618491  0.7884180698073706  1.0000
  C   C16       1.0  0.25273624619178753  0.20467584039508324  0.21158157159545252  1.0000
  C   C17       1.0  0.6370024800511447  0.5769336483183736  0.7690744823421058  1.0000
  C   C18       1.0  0.3630010742527929  0.07693829846474641  0.2309367218630669  1.0000
  C   C19       1.0  0.6459051764611772  0.7697348350130115  0.9870094759953645  1.0000
  C   C20       1.0  0.3541008502593784  0.2697341028089895  0.012990147947476821  1.0000
  O   O1        1.0  0.2662042150984406  0.5209210621636233  0.4253488636533619  1.0000
  O   O2        1.0  0.7337993777457046  0.020921651954793705  0.5746623054741492  1.0000
  O   O3        1.0  0.2098078729210968  0.48739102912681903  0.7489934276796006  1.0000
  O   O4        1.0  0.7901842023794856  0.9873919414506465  0.2510194514248951  1.0000
  O   O5        1.0  0.1593470388201439  0.7794750661964687  0.2708984646572219  1.0000
  O   O6        1.0  0.8406565209585041  0.2794788342066  0.7290987645603835  1.0000
  O   O7        1.0  0.2711015722060496  0.7371897431798475  0.9674635236260302  1.0000
  O   O8        1.0  0.7288994984989472  0.23718358524821087  0.03253691901159073  1.0000
  O   O9        1.0  0.9386675292210144  0.5823720724097685  0.49761671616978737  1.0000
  O   O10       1.0  0.06133368662426621  0.0823710199445031  0.5023798690327086  1.0000
  O   O11       1.0  0.019108920962715104  0.33874010344815997  0.5090414608761975  1.0000
  O   O12       1.0  0.9808834207568683  0.8387411178767011  0.4909553430730044  1.0000
  O   O13       1.0  0.7741579304302991  0.2560671737933547  0.39451281688002393  1.0000
  O   O14       1.0  0.22583576588071716  0.7560616287541325  0.6054785548575339  1.0000
  O   O15       1.0  0.6525706794787497  0.7836185583630172  0.4114360902152968  1.0000
  O   O16       1.0  0.3474178842900245  0.2836153142139325  0.5885692995552176  1.0000
  O   O17       1.0  0.4802612395968495  0.6893978039471094  0.23607876767135144  1.0000
  O   O18       1.0  0.5197423628496978  0.18939564358009878  0.7639202853790295  1.0000
  O   O19       1.0  0.9254541714995881  0.6781863338922137  0.012741331434078395  1.0000
  O   O20       1.0  0.0745532062621592  0.17818369631764602  0.987253794862049  1.0000
  O   O21       1.0  0.017095907765806804  0.9205621565782496  0.009664626961672704  1.0000
  O   O22       1.0  0.9829025089445552  0.42055884916023706  0.9903401105337153  1.0000
  O   O23       1.0  0.7883752184103943  0.0026523042746049003  0.8714059914520293  1.0000
  O   O24       1.0  0.21162606193797737  0.5026586889350926  0.12858960370883926  1.0000
  O   O25       1.0  0.5142051485438799  0.5729719486088599  0.6687851516057819  1.0000
  O   O26       1.0  0.4857897686820892  0.0729828109598287  0.3312204675934041  1.0000
  O   O27       1.0  0.6721867601565635  0.47861275411482773  0.8510362473790707  1.0000
  O   O28       1.0  0.3278115779896922  0.9786139054880826  0.14897228695662793  1.0000
