data_image0
_chemical_formula_structural       Al4H47C58N15O25
_chemical_formula_sum              "Al4 H47 C58 N15 O25"
_cell_length_a       6.772797179070257
_cell_length_b       22.346620252102397
_cell_length_c       24.86923405801414
_cell_angle_alpha    72.92793842861084
_cell_angle_beta     89.46914239153621
_cell_angle_gamma    89.47266499247893

_space_group_name_H-M_alt    "P 1"
_space_group_IT_number       1

loop_
  _space_group_symop_operation_xyz
  'x, y, z'

loop_
  _atom_site_type_symbol
  _atom_site_label
  _atom_site_symmetry_multiplicity
  _atom_site_fract_x
  _atom_site_fract_y
  _atom_site_fract_z
  _atom_site_occupancy
  Al  Al1       1.0  0.1519537029363676  0.49840748076905317  0.49973268775817564  1.0000
  Al  Al2       1.0  0.6522114311574184  0.49834179325530653  0.49760341293378474  1.0000
  Al  Al3       1.0  0.6395329132117025  0.9993397343864319  0.00016335629752008805  1.0000
  Al  Al4       1.0  0.1379359716365514  0.9982682468410927  0.9989567416602441  1.0000
  H   H1        1.0  0.6659825541101226  0.7258774814583757  0.6277748925417868  1.0000
  H   H2        1.0  0.6755940109974643  0.3455665077519611  0.303274596167455  1.0000
  H   H3        1.0  0.6494014584493897  0.14085465793538526  0.19941145623862866  1.0000
  H   H4        1.0  0.6635379496562874  0.0748607499370948  0.13410703382454162  1.0000
  H   H5        1.0  0.6729559105445801  0.8376975397257667  0.9891443403936577  1.0000
  H   H6        1.0  0.6544006256640953  0.7761918684148346  0.9568488128781993  1.0000
  H   H7        1.0  0.3966239041398012  0.7667906311970185  0.0322067426357436  1.0000
  H   H8        1.0  0.2992944462569227  0.841485679510022  0.996643265669654  1.0000
  H   H9        1.0  0.2830144946948038  0.7794686049861497  0.9654750143080193  1.0000
  H   H10       1.0  0.07890618712113448  0.21296026095984638  0.4368688157425851  1.0000
  H   H11       1.0  0.17817011412747516  0.19749229752864758  0.37548984593615126  1.0000
  H   H12       1.0  0.8346487626783909  0.19769871883146808  0.33747610862835137  1.0000
  H   H13       1.0  0.8607300826940969  0.13968066748753213  0.4042406879494749  1.0000
  H   H14       1.0  0.7346701013283974  0.21159329992612189  0.399011020240259  1.0000
  H   H15       1.0  0.03601773657052829  0.3920627742824222  0.445863311800089  1.0000
  H   H16       1.0  0.937299334517668  0.33695242159509314  0.4187913543296062  1.0000
  H   H17       1.0  0.16083559752574664  0.18497179646221437  0.9978235581248072  1.0000
  H   H18       1.0  0.05242151882410439  0.23200560891676497  0.03750453344240872  1.0000
  H   H19       1.0  0.830126425304698  0.236216101682416  0.9594834257456526  1.0000
  H   H20       1.0  0.8306632824962605  0.1537195941660841  0.9736227195204847  1.0000
  H   H21       1.0  0.7139613298708339  0.18867831848714192  0.021768200719456805  1.0000
  H   H22       1.0  0.9920000340000071  0.22140361921243817  0.17905019376607365  1.0000
  H   H23       1.0  0.8893861308953814  0.18685013632725858  0.1295709946630907  1.0000
  H   H24       1.0  0.5766185634498839  0.8445218780268248  0.7598489053357512  1.0000
  H   H25       1.0  0.4571557407540396  0.8921843736156844  0.7965624442504265  1.0000
  H   H26       1.0  0.2580467859852007  0.7766619151057199  0.8209173584582533  1.0000
  H   H27       1.0  0.3666925693679133  0.8141264444297392  0.8666258426308103  1.0000
  H   H28       1.0  0.21294874672884836  0.9628895793353178  0.8811173464214052  1.0000
  H   H29       1.0  0.3688441062878167  0.9062739585551258  0.8780641311499622  1.0000
  H   H30       1.0  0.5649634836518586  0.6215447640852858  0.5453845182612227  1.0000
  H   H31       1.0  0.4907764566410221  0.6865712494873719  0.5648607247771056  1.0000
  H   H32       1.0  0.196031280848878  0.5182310468136038  0.6261587503823804  1.0000
  H   H33       1.0  0.26439790466474716  0.5332661912960575  0.6889142497790316  1.0000
  H   H34       1.0  0.379885248113922  0.6836346107528825  0.6991127454241807  1.0000
  H   H35       1.0  0.4458174018429588  0.6138698223705886  0.6816711968758753  1.0000
  H   H36       1.0  0.6502827480506993  0.6223346859483173  0.7617312458018547  1.0000
  H   H37       1.0  0.4332336684771788  0.6304408383311113  0.8004305431082843  1.0000
  H   H38       1.0  0.4863951786795865  0.5582089287986776  0.7862989848835938  1.0000
  H   H39       1.0  0.648487481261398  0.5132025508042659  0.3410723861517795  1.0000
  H   H40       1.0  0.6667607350542539  0.4793644986361015  0.2842264667116582  1.0000
  H   H41       1.0  0.032096397368526694  0.46848618076955967  0.2963230439381661  1.0000
  H   H42       1.0  0.9606551654718058  0.5479387914394849  0.28733314635962875  1.0000
  H   H43       1.0  0.019413651282583495  0.4976684215767263  0.355438103093924  1.0000
  H   H44       1.0  0.39784590753280463  0.5771485111587894  0.4626930354985533  1.0000
  H   H45       1.0  0.9012932597651684  0.4191148518011829  0.533831154139591  1.0000
  H   H46       1.0  0.39929705315922337  0.9299351747525294  0.981741383988137  1.0000
  H   H47       1.0  0.8919203777511626  0.062485601346708095  0.023937486027612895  1.0000
  C   C1        1.0  0.40042732221792926  0.43277745170532  0.4366828062576786  1.0000
  C   C2        1.0  0.4092525673630405  0.414154169190219  0.5854475683021291  1.0000
  C   C3        1.0  0.9003146682626165  0.5621056367843238  0.5628933391170179  1.0000
  C   C4        1.0  0.8985295674931135  0.5839468001716241  0.41330991810345113  1.0000
  C   C5        1.0  0.9012710249621988  0.6355577174859093  0.3628614122693037  1.0000
  C   C6        1.0  0.9001824355454461  0.6788833274654708  0.31901635925535043  1.0000
  C   C7        1.0  0.8983290743674813  0.725841229484459  0.2710016744511493  1.0000
  C   C8        1.0  0.895335654219238  0.7689658055342078  0.22656168982057087  1.0000
  C   C9        1.0  0.892322065237842  0.8156427649426022  0.17834248535793057  1.0000
  C   C10       1.0  0.8897364949123697  0.8583607110263716  0.1341024448642684  1.0000
  C   C11       1.0  0.7246843819965605  0.8757972104760937  0.8755794038985629  1.0000
  C   C12       1.0  0.7305168907669353  0.8579232720699251  0.8256259437149894  1.0000
  C   C13       1.0  0.9123813879910614  0.8305004239121986  0.8133401182882736  1.0000
  C   C14       1.0  0.08115496335288698  0.8383683296689953  0.8443599282731429  1.0000
  C   C15       1.0  0.07630435460556129  0.8895013515394079  0.8689615415893147  1.0000
  C   C16       1.0  0.895700332875563  0.900951868768935  0.8928300155910948  1.0000
  C   C17       1.0  0.925765597575463  0.7221697758169298  0.707077240086676  1.0000
  C   C18       1.0  0.9212373055797298  0.7948721274653109  0.7731793519774399  1.0000
  C   C19       1.0  0.7699658141108897  0.6872738138737233  0.6324821742650998  1.0000
  C   C20       1.0  0.7521335087096401  0.6475449416368377  0.5984283698668806  1.0000
  C   C21       1.0  0.8971371139315067  0.5994606120001719  0.6026036841443982  1.0000
  C   C22       1.0  0.0429108886044887  0.5885628884773056  0.6457437980757703  1.0000
  C   C23       1.0  0.051044749811495586  0.6278005668790813  0.68129657787118  1.0000
  C   C24       1.0  0.9183663585541736  0.6783778930431907  0.6731899524895439  1.0000
  C   C25       1.0  0.5556486209483253  0.38645720535694744  0.3644204477269497  1.0000
  C   C26       1.0  0.5482016381477307  0.3483322263686475  0.3294683247678735  1.0000
  C   C27       1.0  0.3756345277432373  0.3145644045561156  0.3268570176845956  1.0000
  C   C28       1.0  0.21568829892036934  0.3173732238204465  0.36199932605727275  1.0000
  C   C29       1.0  0.22085416568486238  0.35577339705426425  0.39866729182598704  1.0000
  C   C30       1.0  0.3935849751409535  0.39183201698726583  0.3994933186456748  1.0000
  C   C31       1.0  0.3571168949305274  0.21363458170719699  0.21471706772366161  1.0000
  C   C32       1.0  0.3674753534381948  0.2800654026293543  0.28493092313358653  1.0000
  C   C33       1.0  0.5227618004173918  0.13810863745288063  0.1735888706744362  1.0000
  C   C34       1.0  0.5314076430305619  0.10168895024165892  0.1374425340442471  1.0000
  C   C35       1.0  0.3672288344874488  0.0988109413976233  0.10352771645462158  1.0000
  C   C36       1.0  0.19581722781298785  0.1327677897510569  0.10746802208229411  1.0000
  C   C37       1.0  0.1808195434012703  0.16815776526464526  0.14684621294134104  1.0000
  C   C38       1.0  0.3512936527531421  0.17262551692090966  0.17880645709706042  1.0000
  C   C39       1.0  0.4097178016424508  0.3638221336488882  0.6369027007935557  1.0000
  C   C40       1.0  0.4081425719730872  0.32050138116324683  0.6807588684232256  1.0000
  C   C41       1.0  0.4057047008218858  0.2730958641511805  0.728527846733826  1.0000
  C   C42       1.0  0.40247810365956127  0.22934141104724398  0.7724869904842536  1.0000
  C   C43       1.0  0.39823813019899734  0.1820336611103315  0.8203263366138956  1.0000
  C   C44       1.0  0.39377385985014257  0.1388189511912898  0.8642333382654357  1.0000
  C   C45       1.0  0.39023345685215816  0.0882147178803194  0.9159392243292501  1.0000
  C   C46       1.0  0.3814392004343431  0.05851516909782361  0.06535589408354528  1.0000
  C   C47       1.0  0.8894093037896624  0.908855430807236  0.08243338384736633  1.0000
  C   C48       1.0  0.887731713040857  0.939728868654448  0.931779453202772  1.0000
  C   C49       1.0  0.5785000878217375  0.8173558194826069  0.9633956661391636  1.0000
  C   C50       1.0  0.3773575327755764  0.8006821837219037  0.9904783775325753  1.0000
  C   C51       1.0  0.05236832627412719  0.21881274739329368  0.391865415739332  1.0000
  C   C52       1.0  0.8590237728756661  0.19018872392775427  0.3825435954961378  1.0000
  C   C53       1.0  0.0329523163041969  0.18952556251927888  0.024147959567521617  1.0000
  C   C54       1.0  0.8405535253164513  0.1916885615622945  0.9931486661936972  1.0000
  C   C55       1.0  0.3815933603993854  0.6322518306166812  0.7145949731006526  1.0000
  C   C56       1.0  0.4942740287375926  0.609389436244868  0.7690674527756797  1.0000
  C   C57       1.0  0.7349547597895736  0.480711568640558  0.324000396485701  1.0000
  C   C58       1.0  0.9494960271307135  0.49981241311944297  0.31526230519499887  1.0000
  N   N1        1.0  0.09120950239357478  0.7638542328893861  0.7673468794383214  1.0000
  N   N2        1.0  0.09499836084088288  0.7285375822065702  0.7333663525138548  1.0000
  N   N3        1.0  0.764368526767143  0.7587517013309646  0.7067088859435773  1.0000
  N   N4        1.0  0.763613603093084  0.7960370488116906  0.7387364570883649  1.0000
  N   N5        1.0  0.19514926991269016  0.27811177702513845  0.2585714980799523  1.0000
  N   N6        1.0  0.19005711858708446  0.2434885166075418  0.2238742010500943  1.0000
  N   N7        1.0  0.5370326221495674  0.22634461182857987  0.2330530765185088  1.0000
  N   N8        1.0  0.5411501302024319  0.2588178156109961  0.2691172362796195  1.0000
  N   N9        1.0  0.05975798915821429  0.3536874285345633  0.43257320628251256  1.0000
  N   N10       1.0  0.006464194360525301  0.19702120447586674  0.1503161965662088  1.0000
  N   N11       1.0  0.5683937514580036  0.8630057594628724  0.7929813241245117  1.0000
  N   N12       1.0  0.24427070906846632  0.8023625240866323  0.84894742536396  1.0000
  N   N13       1.0  0.23818568144091043  0.9282318724931216  0.862893005232081  1.0000
  N   N14       1.0  0.60175966321502  0.6579409868254871  0.5599528411472932  1.0000
  N   N15       1.0  0.16888144765604093  0.5385933156924381  0.6568795358720152  1.0000
  O   O1        1.0  0.5764937132487019  0.4372867497742591  0.5667648754789241  1.0000
  O   O2        1.0  0.23330932041545788  0.4534230659922259  0.4491819668675632  1.0000
  O   O3        1.0  0.06372809411058  0.5669503530207222  0.43741970778984307  1.0000
  O   O4        1.0  0.24104789651656225  0.43117717163072206  0.563217799174339  1.0000
  O   O5        1.0  0.0686208348501651  0.5405931837046225  0.5523598113879373  1.0000
  O   O6        1.0  0.565956129610825  0.44460475021202933  0.4552300633576324  1.0000
  O   O7        1.0  0.4012482080514203  0.537678054257647  0.49250757159100544  1.0000
  O   O8        1.0  0.7387020385626569  0.553759881449828  0.5394959691284954  1.0000
  O   O9        1.0  0.7301007977426365  0.55975186382895  0.4292881511871159  1.0000
  O   O10       1.0  0.9031825646242806  0.45933707278989994  0.5049926854000972  1.0000
  O   O11       1.0  0.22030668882244694  0.0414227667991227  0.0488304249709586  1.0000
  O   O12       1.0  0.5581591030712827  0.06993293691792252  0.9375585395616214  1.0000
  O   O13       1.0  0.7202338403592063  0.9551705068783252  0.9478561136624111  1.0000
  O   O14       1.0  0.5534117792585105  0.04333554045007299  0.0520409373350219  1.0000
  O   O15       1.0  0.7199037147095879  0.9284081765195396  0.06257402637236002  1.0000
  O   O16       1.0  0.21994842553777968  0.067806948390718  0.9343418788929796  1.0000
  O   O17       1.0  0.39080122539996137  0.9623470738675053  0.00045062256013048276  1.0000
  O   O18       1.0  0.0587758442387454  0.9278090620846482  0.06218125933580163  1.0000
  O   O19       1.0  0.05293848036767909  0.9556320216785892  0.9485636688413879  1.0000
  O   O20       1.0  0.8884485838135703  0.03553818570527059  0.9994518358514881  1.0000
  O   O21       1.0  0.5532794398777696  0.863345170425056  0.9083239254990546  1.0000
  O   O22       1.0  0.04335109284124879  0.2851032082392563  0.3621163027273512  1.0000
  O   O23       1.0  0.0314134019359429  0.135251450895268  0.07422632530729352  1.0000
  O   O24       1.0  0.17919119998458646  0.6105391614886814  0.7262553584075206  1.0000
  O   O25       1.0  0.7281883716799623  0.41877300644924986  0.36355015547313496  1.0000
