data_image0
_chemical_formula_structural       CuH18PdC18N6O2
_chemical_formula_sum              "Cu1 H18 Pd1 C18 N6 O2"
_cell_length_a       8.107950703788248
_cell_length_b       8.340953236118287
_cell_length_c       8.92547063932227
_cell_angle_alpha    116.90810937716135
_cell_angle_beta     107.32206588916074
_cell_angle_gamma    95.56086502942051

_space_group_name_H-M_alt    "P 1"
_space_group_IT_number       1

loop_
  _space_group_symop_operation_xyz
  'x, y, z'

loop_
  _atom_site_type_symbol
  _atom_site_label
  _atom_site_symmetry_multiplicity
  _atom_site_fract_x
  _atom_site_fract_y
  _atom_site_fract_z
  _atom_site_occupancy
  Cu  Cu1       1.0  0.999997705420462  0.49999787382899546  0.9999987128937203  1.0000
  H   H1        1.0  0.29026949053895357  0.8309995258814664  0.09180414943997299  1.0000
  H   H2        1.0  0.709727565247711  0.1689986080916555  0.90819762224487  1.0000
  H   H3        1.0  0.00416581012238739  0.1467894297071126  0.9678371556298443  1.0000
  H   H4        1.0  0.9958338085757249  0.8532087026608651  0.03216193557658192  1.0000
  H   H5        1.0  0.10159872510273962  0.8624645998064223  0.8108411819851681  1.0000
  H   H6        1.0  0.898408454765047  0.13753770550638925  0.1891616940757928  1.0000
  H   H7        1.0  0.2525630437580019  0.8535145399447898  0.5965844860932279  1.0000
  H   H8        1.0  0.7474406193667421  0.1464891775994488  0.4034158146693797  1.0000
  H   H9        1.0  0.2955740396322001  0.12678025162973228  0.5535528944131869  1.0000
  H   H10       1.0  0.7044263166564946  0.8732206751014219  0.44644758117908623  1.0000
  H   H11       1.0  0.061196198640551785  0.4657343015378714  0.6532433577024364  1.0000
  H   H12       1.0  0.9388021291008003  0.5342638345500957  0.3467553918488448  1.0000
  H   H13       1.0  0.2482991440587554  0.407039969156763  0.598813527864607  1.0000
  H   H14       1.0  0.7516999212731791  0.5929609612943737  0.40118660607251394  1.0000
  H   H15       1.0  0.4367095636175406  0.602025853702109  0.9490860260104909  1.0000
  H   H16       1.0  0.5632887704578309  0.3979722804409178  0.0509138448036879  1.0000
  H   H17       1.0  0.3615276397423344  0.7219748434344594  0.8317185494972249  1.0000
  H   H18       1.0  0.6384688626781454  0.2780260886218215  0.16828426491831286  1.0000
  Pd  Pd1       1.0  0.5000011955850283  0.5000018577147002  0.5000016614480883  1.0000
  C   C1        1.0  0.41949764490244223  0.2241995412375104  0.3433662867973694  1.0000
  C   C2        1.0  0.5805040213450708  0.7758013759388263  0.6566378942387769  1.0000
  C   C3        1.0  0.3021081601408753  0.5212920480402019  0.3234598487726714  1.0000
  C   C4        1.0  0.6978942183611422  0.47871167127907893  0.6765412315976886  1.0000
  C   C5        1.0  0.06770069896176518  0.1345855704038215  0.8730656968478882  1.0000
  C   C6        1.0  0.9323002170271265  0.8654125562992333  0.1269348572766018  1.0000
  C   C7        1.0  0.12243716205637156  0.9770070281649765  0.784838443959913  1.0000
  C   C8        1.0  0.8775700051433688  0.0229952810377156  0.2151621895752314  1.0000
  C   C9        1.0  0.20587208840318275  0.9730038900207488  0.6679276469204395  1.0000
  C   C10       1.0  0.7941325222191224  0.0269984188421404  0.3320767883560264  1.0000
  C   C11       1.0  0.23054470899148777  0.12586599176044896  0.6439183455535016  1.0000
  C   C12       1.0  0.7694576568424837  0.8741377314487123  0.35608049229104205  1.0000
  C   C13       1.0  0.16897301814724838  0.27931320210096533  0.7335478137735976  1.0000
  C   C14       1.0  0.8310256847234215  0.7206863292236461  0.26645274923350115  1.0000
  C   C15       1.0  0.19262559555334494  0.442555456325394  0.7045540606570737  1.0000
  C   C16       1.0  0.8073734697785894  0.5574454741257426  0.29544607328004713  1.0000
  C   C17       1.0  0.315611291260403  0.6261594878698276  0.87398239530593  1.0000
  C   C18       1.0  0.684387424278306  0.37384003956489675  0.12602041022699245  1.0000
  N   N1        1.0  0.37502873199595405  0.0609935299346915  0.25461538879248735  1.0000
  N   N2        1.0  0.6249664351296148  0.9390074194561748  0.7453792351275437  1.0000
  N   N3        1.0  0.18390521660580816  0.5305466080786302  0.21701381442686335  1.0000
  N   N4        1.0  0.8160910889222278  0.46944873542120996  0.7829843303463233  1.0000
  N   N5        1.0  0.08857000278659646  0.28097928619261836  0.8471584314500332  1.0000
  N   N6        1.0  0.9114303408340589  0.7190216444284232  0.15283980161642316  1.0000
  O   O1        1.0  0.2171755914934934  0.7047657220114019  0.9845418535999285  1.0000
  O   O2        1.0  0.7828236900794394  0.295231003450283  0.015462151728108508  1.0000
