data_image0
_chemical_formula_structural       Zn4H24C28Br8N16
_chemical_formula_sum              "Zn4 H24 C28 Br8 N16"
_cell_length_a       5.574630640004575
_cell_length_b       11.879881117005734
_cell_length_c       15.160872479008821
_cell_angle_alpha    90.0000572055638
_cell_angle_beta     89.9998903617904
_cell_angle_gamma    90.00009727725478

_space_group_name_H-M_alt    "P 1"
_space_group_IT_number       1

loop_
  _space_group_symop_operation_xyz
  'x, y, z'

loop_
  _atom_site_type_symbol
  _atom_site_label
  _atom_site_symmetry_multiplicity
  _atom_site_fract_x
  _atom_site_fract_y
  _atom_site_fract_z
  _atom_site_occupancy
  Zn  Zn1       1.0  0.13023162919310488  0.5366401977833062  0.1496241383697026  1.0000
  Zn  Zn2       1.0  0.3697671434788816  0.4633587344354381  0.6496229542553706  1.0000
  Zn  Zn3       1.0  0.8697644031381486  0.03664150999711069  0.35037598136937487  1.0000
  Zn  Zn4       1.0  0.6302314171896128  0.9633572360418435  0.8503773352178287  1.0000
  H   H1        1.0  0.007522062964675098  0.2964941626328468  0.7080292859104063  1.0000
  H   H2        1.0  0.49247999374017576  0.703504844139523  0.20803034520385214  1.0000
  H   H3        1.0  0.9924776892998893  0.7964928789974973  0.7919695540629874  1.0000
  H   H4        1.0  0.5075202285224164  0.2035066342483986  0.29196990484816615  1.0000
  H   H5        1.0  0.6824041336095661  0.28387568961810666  0.8186948379376562  1.0000
  H   H6        1.0  0.8175972329516341  0.7161238577426017  0.3186953706651253  1.0000
  H   H7        1.0  0.3175955731187017  0.7838779345185852  0.6813039921826417  1.0000
  H   H8        1.0  0.18240124100947236  0.21612272165678795  0.18130488924128232  1.0000
  H   H9        1.0  0.9615134628006531  0.5923730701610948  0.934978405297109  1.0000
  H   H10       1.0  0.5384872992129957  0.40762746738845823  0.43497955327475074  1.0000
  H   H11       1.0  0.03848375890748199  0.0923733542240868  0.5650215944531498  1.0000
  H   H12       1.0  0.46151545360886803  0.9076271535228385  0.0650201965940411  1.0000
  H   H13       1.0  0.2694481918974248  0.5932750836747259  0.8158100459413902  1.0000
  H   H14       1.0  0.23055330446499772  0.40672574419284047  0.3158123771256811  1.0000
  H   H15       1.0  0.7305508269053149  0.09327438905728506  0.6841899545122844  1.0000
  H   H16       1.0  0.7694476512603502  0.9067266701317391  0.1841886912253159  1.0000
  H   H17       1.0  0.6024822307589731  0.6000500221748337  0.009168359923613404  1.0000
  H   H18       1.0  0.8975189511652742  0.399949971851214  0.5091677663368446  1.0000
  H   H19       1.0  0.397517618111344  0.10004945298690866  0.4908311497411263  1.0000
  H   H20       1.0  0.10247938065055001  0.8999499147642849  0.9908324736174381  1.0000
  H   H21       1.0  0.49422628834199867  0.25749495470472533  0.9371550948255918  1.0000
  H   H22       1.0  0.0057781648431501015  0.7425043445342109  0.4371552081818778  1.0000
  H   H23       1.0  0.5057751170086462  0.7574963569299339  0.5628450338768334  1.0000
  H   H24       1.0  0.9942239920146178  0.24250454737020985  0.0628450723257998  1.0000
  C   C1        1.0  0.9911333990425746  0.3599876479263101  0.7595642569658526  1.0000
  C   C2        1.0  0.5088682749324178  0.6400126657174494  0.2595656072879819  1.0000
  C   C3        1.0  0.008866582384541702  0.8599871964559183  0.7404346325935196  1.0000
  C   C4        1.0  0.4911299243330731  0.14001353519525137  0.2404339335870418  1.0000
  C   C5        1.0  0.8105957020134297  0.35305741178408545  0.8222111082060621  1.0000
  C   C6        1.0  0.6894056462653922  0.6469412983056981  0.3222116771922075  1.0000
  C   C7        1.0  0.18940425440418812  0.8530587080554776  0.6777877759417736  1.0000
  C   C8        1.0  0.3105943718441466  0.1469411018730113  0.17778852868537606  1.0000
  C   C9        1.0  0.7971508499135992  0.43720054532756325  0.8864541503699358  1.0000
  C   C10       1.0  0.702851958217188  0.5628007720431824  0.3864546441749681  1.0000
  C   C11       1.0  0.20284941018901753  0.9372000868162613  0.6135454590819835  1.0000
  C   C12       1.0  0.2971495500542503  0.06280048286904359  0.11354483639921403  1.0000
  C   C13       1.0  0.963727068542184  0.5251316261131007  0.8859244731492099  1.0000
  C   C14       1.0  0.5362721546560251  0.474867165302335  0.3859250156058636  1.0000
  C   C15       1.0  0.036269910479376194  0.025132812781890793  0.6140754740887646  1.0000
  C   C16       1.0  0.4637272531692532  0.9748685993384493  0.11407478677615052  1.0000
  C   C17       1.0  0.1366518172482856  0.5258063446730075  0.8199687979968717  1.0000
  C   C18       1.0  0.36334606981354506  0.47419364674140496  0.3199697691568275  1.0000
  C   C19       1.0  0.8633469580493128  0.02580659256517489  0.6800304901743817  1.0000
  C   C20       1.0  0.6366533355797516  0.9741944613157612  0.1800300326989515  1.0000
  C   C21       1.0  0.5309777970253294  0.5150516661868847  0.005863133163245502  1.0000
  C   C22       1.0  0.9690251959232655  0.48494832362095497  0.5058625555944545  1.0000
  C   C23       1.0  0.46902353890897786  0.0150528418456375  0.49413762930682753  1.0000
  C   C24       1.0  0.0309752365081053  0.9849482136449832  0.9941384103318286  1.0000
  C   C25       1.0  0.4713943481980394  0.33911783626344766  0.9685002964797464  1.0000
  C   C26       1.0  0.0286081481906422  0.6608823447434627  0.4684990108269177  1.0000
  C   C27       1.0  0.5286073517415701  0.8391175331952992  0.531500555558573  1.0000
  C   C28       1.0  0.9713937140813796  0.16088333109570385  0.031499886752541804  1.0000
  Br  Br1       1.0  0.8545913774654039  0.3902636225312648  0.18277231416170286  1.0000
  Br  Br2       1.0  0.6454071080647807  0.6097357513303404  0.6827720619736937  1.0000
  Br  Br3       1.0  0.14540593117737188  0.8902667451671317  0.3172247837793378  1.0000
  Br  Br4       1.0  0.35459555782758656  0.10973492626649058  0.8172286109263781  1.0000
  Br  Br5       1.0  0.9856609552800178  0.7130985008380861  0.097427041955882  1.0000
  Br  Br6       1.0  0.514345149329138  0.2869032893637068  0.5974233319965307  1.0000
  Br  Br7       1.0  0.014344683125500498  0.21309751296573146  0.4025732155853846  1.0000
  Br  Br8       1.0  0.48565636215367647  0.7869009003733962  0.9025774792636839  1.0000
  N   N1        1.0  0.15106893133297916  0.44484590464584517  0.7578351340165455  1.0000
  N   N2        1.0  0.3489310725901619  0.5551523239416338  0.25783749774119974  1.0000
  N   N3        1.0  0.8489295625254343  0.944846126308917  0.7421638218143158  1.0000
  N   N4        1.0  0.6510686142345251  0.05515332336230468  0.24216329604630726  1.0000
  N   N5        1.0  0.612289996077216  0.4320565215168484  0.9505065957595067  1.0000
  N   N6        1.0  0.8877142728859228  0.5679415105766734  0.45050696338010005  1.0000
  N   N7        1.0  0.3877102454625216  0.9320586541656082  0.549493669268813  1.0000
  N   N8        1.0  0.11228904777970432  0.06794183376140948  0.04949318080102221  1.0000
  N   N9        1.0  0.35219804310343517  0.47415138391875167  0.05296601021498761  1.0000
  N   N10       1.0  0.1478030259254695  0.5258474249223751  0.5529650312347556  1.0000
  N   N11       1.0  0.6478049498193955  0.9741533899730114  0.44703445119963453  1.0000
  N   N12       1.0  0.8521957495177616  0.02584716296495059  0.9470349165610231  1.0000
  N   N13       1.0  0.31491112699091417  0.3630323972867017  0.029998304416267305  1.0000
  N   N14       1.0  0.18509185528562713  0.636966382238249  0.5299973859529175  1.0000
  N   N15       1.0  0.6850896710336514  0.8630319371592491  0.4700027298115829  1.0000
  N   N16       1.0  0.8149109088904183  0.13696611981823986  0.9700026486206642  1.0000
