data_image0
_chemical_formula_structural       Zn8H72C96O26
_chemical_formula_sum              "Zn8 H72 C96 O26"
_cell_length_a       23.781991601352683
_cell_length_b       23.783479296368732
_cell_length_c       23.781877641750167
_cell_angle_alpha    66.23503210039017
_cell_angle_beta     72.63804370502027
_cell_angle_gamma    107.37144049900766

_space_group_name_H-M_alt    "P 1"
_space_group_IT_number       1

loop_
  _space_group_symop_operation_xyz
  'x, y, z'

loop_
  _atom_site_type_symbol
  _atom_site_label
  _atom_site_symmetry_multiplicity
  _atom_site_fract_x
  _atom_site_fract_y
  _atom_site_fract_z
  _atom_site_occupancy
  Zn  Zn1       1.0  0.057170340552857905  0.9568710124606097  0.48596848188089603  1.0000
  Zn  Zn2       1.0  0.05716759693518011  0.10030029552002163  0.4568725813680956  1.0000
  Zn  Zn3       1.0  0.9428236043623738  0.985965235955426  0.45686398578274634  1.0000
  Zn  Zn4       1.0  0.9428409452934403  0.9568687254428456  0.6003028868235915  1.0000
  Zn  Zn5       1.0  0.9428305749340424  0.5431303756153982  0.014030495197644667  1.0000
  Zn  Zn6       1.0  0.057178278684723575  0.5140350313175545  0.04313388672208875  1.0000
  Zn  Zn7       1.0  0.9428298166021208  0.3996996351100675  0.04313274394683481  1.0000
  Zn  Zn8       1.0  0.05715908613736775  0.5431284210901238  0.8996974494106951  1.0000
  H   H1        1.0  0.9238013020181624  0.798452496225771  0.7777484934843455  1.0000
  H   H2        1.0  0.07620389806970697  0.7015472253306214  0.7222467396550484  1.0000
  H   H3        1.0  0.9237910207917323  0.7015501933130042  0.8746471869404854  1.0000
  H   H4        1.0  0.07621457533625166  0.7984509703047564  0.6253481925428377  1.0000
  H   H5        1.0  0.9237906577988468  0.12535754945204067  0.2984286997866404  1.0000
  H   H6        1.0  0.07621192439905392  0.3746449581032323  0.20157110118127258  1.0000
  H   H7        1.0  0.9237984537085282  0.22225892631931302  0.20153238383785782  1.0000
  H   H8        1.0  0.07620368857133289  0.27774313612709284  0.2984685679188034  1.0000
  H   H9        1.0  0.9235886337956886  0.6518932736425002  0.1122274913626525  1.0000
  H   H10       1.0  0.07641757806728572  0.612221775910122  0.15193141837903573  1.0000
  H   H11       1.0  0.9236226224851336  0.8878264281262601  0.3480223541394736  1.0000
  H   H12       1.0  0.0763332703059305  0.8480035162720014  0.3878748152059542  1.0000
  H   H13       1.0  0.07641764944109039  0.4641608989817528  0.771702929290008  1.0000
  H   H14       1.0  0.9235903562250485  0.2716575741882537  0.9642007412774091  1.0000
  H   H15       1.0  0.07633419112403317  0.22834098501355976  0.5358024452229202  1.0000
  H   H16       1.0  0.9236247532042652  0.03580412315248798  0.7283333391784695  1.0000
  H   H17       1.0  0.7358650703331476  0.46419189427805213  0.11215457780883044  1.0000
  H   H18       1.0  0.73585767411673  0.2716558169117605  0.1519801383788176  1.0000
  H   H19       1.0  0.26414453298765034  0.22833931457891052  0.34806350766550764  1.0000
  H   H20       1.0  0.2641332928320352  0.035834076285802006  0.38774125089284434  1.0000
  H   H21       1.0  0.2641446639867763  0.6121413590219332  0.9641898719207234  1.0000
  H   H22       1.0  0.26413392587474493  0.6519769943836663  0.7716451914779797  1.0000
  H   H23       1.0  0.7358687287540133  0.8480704590813062  0.7283418419568547  1.0000
  H   H24       1.0  0.7358544976284804  0.887754866449491  0.5358312528775854  1.0000
  H   H25       1.0  0.08095104093943213  0.622755160325525  0.2610304247087925  1.0000
  H   H26       1.0  0.08739794549700955  0.7037260534353392  0.24847483906142295  1.0000
  H   H27       1.0  0.1436707534949732  0.7020628466046902  0.18123555979115485  1.0000
  H   H28       1.0  0.9190419857046377  0.7609765049016629  0.12275874499496828  1.0000
  H   H29       1.0  0.9125869103594936  0.7484269656062992  0.2037332034729289  1.0000
  H   H30       1.0  0.8563179528116791  0.6811820848189214  0.20206592564393594  1.0000
  H   H31       1.0  0.14361910782703546  0.8187214631069891  0.2976935790138242  1.0000
  H   H32       1.0  0.08700753437398112  0.751055195302335  0.29678224356577243  1.0000
  H   H33       1.0  0.08109475611782804  0.7392097470752644  0.3773913921389321  1.0000
  H   H34       1.0  0.8563304533500754  0.7976118034095168  0.3187508054391372  1.0000
  H   H35       1.0  0.9129518760754887  0.7967193976089887  0.2510806120839177  1.0000
  H   H36       1.0  0.9188493061841425  0.8773165488990172  0.2392445932210736  1.0000
  H   H37       1.0  0.9190538147519618  0.1580294177224105  0.9582023355340039  1.0000
  H   H38       1.0  0.9125959392571588  0.16413507382937825  0.8836785720016634  1.0000
  H   H39       1.0  0.856330154896156  0.17510717171727216  0.94161398220065  1.0000
  H   H40       1.0  0.08096319763974688  0.4581735041345212  0.658068961487686  1.0000
  H   H41       1.0  0.08740738386702418  0.38365292160956704  0.6641677588619501  1.0000
  H   H42       1.0  0.1436813243288881  0.44157678965976294  0.6751510723495214  1.0000
  H   H43       1.0  0.8563333409492914  0.058723147497126156  0.8248897501578867  1.0000
  H   H44       1.0  0.9129543219751214  0.11622857161422938  0.8359548255300027  1.0000
  H   H45       1.0  0.9188493717392561  0.04153011211567284  0.8418888106695449  1.0000
  H   H46       1.0  0.14362518079342823  0.324899749427189  0.5587205827140805  1.0000
  H   H47       1.0  0.08701205464289785  0.3359523865594838  0.6162370100448983  1.0000
  H   H48       1.0  0.08110151798459227  0.3418902547026689  0.5415372368704325  1.0000
  H   H49       1.0  0.6163769188230788  0.17509847643869855  0.18124591973447216  1.0000
  H   H50       1.0  0.5478097832615347  0.16404502861302464  0.24891603495696293  1.0000
  H   H51       1.0  0.6165742900138654  0.15811014574596538  0.26075810177388775  1.0000
  H   H52       1.0  0.6163926549443274  0.44127668861596453  0.20236265226949962  1.0000
  H   H53       1.0  0.547818416093982  0.3837656864330656  0.20325667775137643  1.0000
  H   H54       1.0  0.6165778079413116  0.45846420520214787  0.12265692049173534  1.0000
  H   H55       1.0  0.38375404133631724  0.04182112218345681  0.37719879281745955  1.0000
  H   H56       1.0  0.45217512137632815  0.11634102133619009  0.2962332888357294  1.0000
  H   H57       1.0  0.3832681864970127  0.05841803070065774  0.2978828330172973  1.0000
  H   H58       1.0  0.38377198496405646  0.3419667530910787  0.23896203916802244  1.0000
  H   H59       1.0  0.4521891332220917  0.33586075629580847  0.251526732839082  1.0000
  H   H60       1.0  0.3832825956524529  0.3248900930248979  0.31876407222856074  1.0000
  H   H61       1.0  0.3836078676219187  0.6812426842489785  0.6750891906882474  1.0000
  H   H62       1.0  0.4521779114203779  0.7489161005833508  0.6640367100632504  1.0000
  H   H63       1.0  0.3834106029407564  0.7607494115234843  0.6581020721713529  1.0000
  H   H64       1.0  0.3836226156955859  0.7023353542738137  0.9412876267174822  1.0000
  H   H65       1.0  0.45219133068765416  0.7032389700883712  0.8837713084665567  1.0000
  H   H66       1.0  0.38343247459466306  0.6226360877154775  0.9584650049228003  1.0000
  H   H67       1.0  0.616231905294732  0.8772182746300526  0.5418209587982759  1.0000
  H   H68       1.0  0.5478107948660236  0.7962479592092604  0.6163370605884637  1.0000
  H   H69       1.0  0.616714685305055  0.7979093842886157  0.5584066195301391  1.0000
  H   H70       1.0  0.6162451862929215  0.7389769574285692  0.8419697164828152  1.0000
  H   H71       1.0  0.5478254953051759  0.7515344136286402  0.8358648730537438  1.0000
  H   H72       1.0  0.6167393010613222  0.8187751231928643  0.8248928436373006  1.0000
  C   C1        1.0  0.18212590495336659  0.0910776992192197  0.40892639120383484  1.0000
  C   C2        1.0  0.9999900306719737  0.13875736360200372  0.36123708019079703  1.0000
  C   C3        1.0  0.9999870533063908  0.908929060780238  0.40894560017734716  1.0000
  C   C4        1.0  0.8178728725922965  0.9089221587951356  0.5910861983320642  1.0000
  C   C5        1.0  1.1561900656257773e-05  0.8612411810590501  0.6387625735775444  1.0000
  C   C6        1.0  0.9999908378738526  0.09105907649468771  0.5910697708585669  1.0000
  C   C7        1.0  2.489601314358148e-06  0.5910540745406577  0.09107038641523246  1.0000
  C   C8        1.0  7.07458106307638e-06  0.36123913106173683  0.1387655045148293  1.0000
  C   C9        1.0  0.8178718834906462  0.40892950668268907  0.09105741539763561  1.0000
  C   C10       1.0  0.9999922597537533  0.4089170937067977  0.9089565484830756  1.0000
  C   C11       1.0  0.9999872600860656  0.6387573698057666  0.8612384061826504  1.0000
  C   C12       1.0  0.18212830059886898  0.5910593713052209  0.9089166656140789  1.0000
  C   C13       1.0  3.518251453489359e-06  0.8037186851560776  0.6962796930196404  1.0000
  C   C14       1.0  0.9999996803121148  0.6962795566094329  0.8037158909578039  1.0000
  C   C15       1.0  0.9568795882485188  0.7767460248924819  0.7663741224128556  1.0000
  C   C16       1.0  0.04312420437521767  0.72325437996507  0.7336216810804855  1.0000
  C   C17       1.0  0.9568715911020502  0.7232562399048987  0.8198659530185495  1.0000
  C   C18       1.0  0.04313220151463771  0.7767441611491536  0.6801306929790556  1.0000
  C   C19       1.0  1.8493545609643974e-06  0.19628388400588648  0.3037182418907349  1.0000
  C   C20       1.0  1.4723706768572073e-06  0.3037185581567599  0.19628154358225194  1.0000
  C   C21       1.0  0.9568712063634025  0.18013440561075092  0.276734534887531  1.0000
  C   C22       1.0  0.04312966006141741  0.31986533596707284  0.2232660445899343  1.0000
  C   C23       1.0  0.9568780166094086  0.23363032278834353  0.22324439698915208  1.0000
  C   C24       1.0  0.043123047838996266  0.26637014172190726  0.2767558344081493  1.0000
  C   C25       1.0  3.167033689438418e-06  0.6284654469867448  0.128494172453955  1.0000
  C   C26       1.0  0.9569069032041211  0.6573515509301443  0.13498258547681272  1.0000
  C   C27       1.0  0.9559753013567586  0.692507722754847  0.1697156211452014  1.0000
  C   C28       1.0  0.9999908595194068  0.6989856243970747  0.19902426691919578  1.0000
  C   C29       1.0  0.04401455615923307  0.6696913370113934  0.1925510812926845  1.0000
  C   C30       1.0  0.043092019448188336  0.6349641643160665  0.15738991463240387  1.0000
  C   C31       1.0  0.9999840373607255  0.734603590824193  0.2346513206319046  1.0000
  C   C32       1.0  0.9999786783013747  0.765346042598566  0.2653985312201213  1.0000
  C   C33       1.0  0.9999750896864155  0.8009688294586466  0.3010218484810991  1.0000
  C   C34       1.0  0.9559965211688916  0.8303192098407022  0.3074382443533851  1.0000
  C   C35       1.0  0.9569194977803475  0.8650468181361363  0.3426003664855629  1.0000
  C   C36       1.0  0.9999751135836946  0.8715021638269748  0.3715385423250907  1.0000
  C   C37       1.0  0.04303169629352512  0.8425677942548261  0.3650968725268628  1.0000
  C   C38       1.0  0.04395331172324281  0.8073984283002745  0.33037883106347715  1.0000
  C   C39       1.0  4.680611262075311e-06  0.3714959998265286  0.871540459483505  1.0000
  C   C40       1.0  0.04309845378372747  0.4080929226246041  0.7995607724754021  1.0000
  C   C41       1.0  0.04402501413291298  0.37429167987773576  0.7634750943610699  1.0000
  C   C42       1.0  4.328410447721717e-06  0.30097546402387815  0.801014129275849  1.0000
  C   C43       1.0  0.9559868528996277  0.2634344352577499  0.874329970233326  1.0000
  C   C44       1.0  0.9569139810352779  0.2995167729167818  0.9081334050951354  1.0000
  C   C45       1.0  0.9999980509677254  0.26535671121133925  0.7653881993403074  1.0000
  C   C46       1.0  0.9999907429344362  0.23462045478942906  0.7346360118864154  1.0000
  C   C47       1.0  0.9999830280535491  0.19900418263839004  0.6990071807821182  1.0000
  C   C48       1.0  0.043959268742739234  0.23655897702892048  0.6256801456793681  1.0000
  C   C49       1.0  0.04303552701667705  0.20047268898392898  0.5918789529654802  1.0000
  C   C50       1.0  0.9999819063231713  0.12848549437469356  0.6284807645637471  1.0000
  C   C51       1.0  0.9569232105194487  0.0918791297915007  0.7004684046401407  1.0000
  C   C52       1.0  0.9560012685745888  0.12567974948223792  0.7365558880536297  1.0000
  C   C53       1.0  0.7430359152273168  0.3715106952565179  0.12847691649498935  1.0000
  C   C54       1.0  0.7076550436707266  0.4081173948486736  0.13492971230247966  1.0000
  C   C55       1.0  0.6377654677055915  0.37431796132972295  0.16965309337869883  1.0000
  C   C56       1.0  0.6019895135128195  0.3009938404444625  0.19899443390055885  1.0000
  C   C57       1.0  0.6377612611109669  0.26343919430191687  0.19257017435987211  1.0000
  C   C58       1.0  0.7076507809379606  0.2995249138656604  0.15740921729857146  1.0000
  C   C59       1.0  0.5307453537842264  0.2653763059687009  0.2346078024687371  1.0000
  C   C60       1.0  0.4692550969513078  0.23463842776360624  0.26534150343666596  1.0000
  C   C61       1.0  0.39800985935953287  0.1990192782359372  0.30095794291465683  1.0000
  C   C62       1.0  0.3622375160019756  0.2365610442742607  0.30743714149019746  1.0000
  C   C63       1.0  0.29235063561976193  0.2004779611321936  0.3425987763573134  1.0000
  C   C64       1.0  0.25696222553750653  0.12849903523802905  0.37148937723718944  1.0000
  C   C65       1.0  0.2923438243850498  0.09190216974182876  0.3649899673085954  1.0000
  C   C66       1.0  0.36223054163915686  0.12570401816286392  0.33025765026539483  1.0000
  C   C67       1.0  0.2569635418919843  0.6284685216947351  0.8715054446938877  1.0000
  C   C68       1.0  0.29235138825728757  0.6349176514076476  0.908114172912434  1.0000
  C   C69       1.0  0.36223860263779517  0.6696378993993903  0.8743181602908549  1.0000
  C   C70       1.0  0.39801014159481696  0.6989860804217116  0.8009917917294658  1.0000
  C   C71       1.0  0.3622314934300802  0.6925638530488242  0.7634350857465081  1.0000
  C   C72       1.0  0.29234405502035765  0.657402371665995  0.7995173462762893  1.0000
  C   C73       1.0  0.4692543013480871  0.734603628209733  0.7653754743963718  1.0000
  C   C74       1.0  0.5307453502823801  0.7653444019480486  0.734639538603517  1.0000
  C   C75       1.0  0.6019901705420309  0.8009678570460322  0.6990202440701054  1.0000
  C   C76       1.0  0.6377708929564534  0.8074476972874863  0.7365625773356042  1.0000
  C   C77       1.0  0.7076564175800825  0.8426056954656858  0.7004801796391575  1.0000
  C   C78       1.0  0.7430385311827125  0.8714976793053212  0.628498643412044  1.0000
  C   C79       1.0  0.7076476442661813  0.8650025368202208  0.5919028904503206  1.0000
  C   C80       1.0  0.637762275995101  0.8302715637358279  0.6257013689720735  1.0000
  C   C81       1.0  0.09137873807338073  0.6750737469116926  0.22254961338532556  1.0000
  C   C82       1.0  0.908609592525991  0.72249749936433  0.17508367719667448  1.0000
  C   C83       1.0  0.09128206662431625  0.777361022873471  0.3250568655334688  1.0000
  C   C84       1.0  0.9086676877072789  0.8249843948317022  0.2773932764169942  1.0000
  C   C85       1.0  0.9086204809206109  0.18607893648790252  0.9163120679403959  1.0000
  C   C86       1.0  0.09139001042196057  0.41627839448363346  0.6861208759362467  1.0000
  C   C87       1.0  0.908669304230905  0.08368309884234283  0.8139222350302617  1.0000
  C   C88       1.0  0.09128847412572572  0.31392446022425696  0.5836867212254546  1.0000
  C   C89       1.0  0.6023883039149068  0.18607389292155574  0.22260743626804214  1.0000
  C   C90       1.0  0.6023967883461198  0.4163139494697318  0.17498928972845113  1.0000
  C   C91       1.0  0.39759662702174137  0.0837150547066018  0.3248773792424586  1.0000
  C   C92       1.0  0.3976127149810082  0.3139168648412749  0.2774463020477783  1.0000
  C   C93       1.0  0.39759920362251217  0.7226029225792345  0.686066295686814  1.0000
  C   C94       1.0  0.3976132107605179  0.6749682818683738  0.916317857377244  1.0000
  C   C95       1.0  0.6023884762382036  0.8248964157984914  0.5837113114053666  1.0000
  C   C96       1.0  0.6024035625361605  0.7774577289182646  0.8139200606467512  1.0000
  O   O1        1.0  7.4610639439983e-07  2.21301957029983e-06  0.49999943360113264  1.0000
  O   O2        1.0  0.15300034083780634  0.025179466879677582  0.43482064255999126  1.0000
  O   O3        1.0  0.04043465125565148  0.1570441815763743  0.3833901662639434  1.0000
  O   O4        1.0  0.9599780028320096  0.934822016584974  0.41217666203194614  1.0000
  O   O5        1.0  0.15299910926879784  0.12784195949026156  0.4121771599960411  1.0000
  O   O6        1.0  0.03999464979219868  0.9121708152141038  0.43483742205095416  1.0000
  O   O7        1.0  0.9595356590189255  0.07616023339624425  0.38338614919361186  1.0000
  O   O8        1.0  0.8469964839329474  0.9348210648468934  0.5251728820777546  1.0000
  O   O9        1.0  0.9595793675419415  0.8833945568082343  0.6570464992157524  1.0000
  O   O10       1.0  0.8470036452007719  0.9121634762012006  0.6278455039823496  1.0000
  O   O11       1.0  0.04046252372528146  0.8833915043154263  0.5761608672666796  1.0000
  O   O12       1.0  0.04000122733869919  0.1278372458378954  0.5251642374447697  1.0000
  O   O13       1.0  0.9600046952208957  0.025167981226211077  0.6278351375577245  1.0000
  O   O14       1.0  1.9121616717255672e-06  0.5000014555064141  0.9999986208596496  1.0000
  O   O15       1.0  0.959997509977896  0.5878102077510334  0.06518282693948411  1.0000
  O   O16       1.0  0.040470530173372654  0.42384378407242446  0.1166144887627993  1.0000
  O   O17       1.0  0.8469970509747  0.37216038763817494  0.08782673596043362  1.0000
  O   O18       1.0  0.04002770651803891  0.5651747320986544  0.08782525059697124  1.0000
  O   O19       1.0  0.8470003290018439  0.4748301280483459  0.06515629910460057  1.0000
  O   O20       1.0  0.9595667214523544  0.3429597055879726  0.11661575450757762  1.0000
  O   O21       1.0  0.9599877359280665  0.37215295017700356  0.9748469121106496  1.0000
  O   O22       1.0  0.04042525982359264  0.6165972787471998  0.8429457468415291  1.0000
  O   O23       1.0  0.03998994172746955  0.4748184561052895  0.872178752231207  1.0000
  O   O24       1.0  0.9595498903972196  0.6166112617905171  0.923830563572011  1.0000
  O   O25       1.0  0.15300378817947533  0.5651653492919165  0.9748236772045829  1.0000
  O   O26       1.0  0.15299673718996584  0.5878256604802843  0.8721520377287958  1.0000
