data_image0
_chemical_formula_structural       Mg2H28C24N4O16
_chemical_formula_sum              "Mg2 H28 C24 N4 O16"
_cell_length_a       6.238303187001584
_cell_length_b       8.207129690003846
_cell_length_c       13.598222988003299
_cell_angle_alpha    90.00007659305666
_cell_angle_beta     90.00002184546904
_cell_angle_gamma    90.00007954391859

_space_group_name_H-M_alt    "P 1"
_space_group_IT_number       1

loop_
  _space_group_symop_operation_xyz
  'x, y, z'

loop_
  _atom_site_type_symbol
  _atom_site_label
  _atom_site_symmetry_multiplicity
  _atom_site_fract_x
  _atom_site_fract_y
  _atom_site_fract_z
  _atom_site_occupancy
  Mg  Mg1       1.0  0.9999989891103311  0.9587650167244065  0.4999996241420846  1.0000
  Mg  Mg2       1.0  0.49999978243062776  0.041235141368844104  5.732361070000001e-08  1.0000
  H   H1        1.0  0.32260637845435275  0.8313791769021321  0.5892964794219042  1.0000
  H   H2        1.0  0.6773902736708521  0.8313791659581399  0.4107033198519403  1.0000
  H   H3        1.0  0.1773913804350471  0.16862065361171827  0.0892963091828776  1.0000
  H   H4        1.0  0.8226072603901641  0.16862068014794573  0.9107036888692266  1.0000
  H   H5        1.0  0.2642297540614748  0.678826338412577  0.5143608863514899  1.0000
  H   H6        1.0  0.7357698238674288  0.6788265541171652  0.4856387894060533  1.0000
  H   H7        1.0  0.23576954113511311  0.3211721082587005  0.014360849116101804  1.0000
  H   H8        1.0  0.7642309828849462  0.3211734573804251  0.9856385370619949  1.0000
  H   H9        1.0  0.30182189541411464  0.9619580533639719  0.35338997112585707  1.0000
  H   H10       1.0  0.6981749965481325  0.9619585849005504  0.6466099338733217  1.0000
  H   H11       1.0  0.1981760985154111  0.038042360032626704  0.8533902141955211  1.0000
  H   H12       1.0  0.8018239054742081  0.0380418967772229  0.14661041352207602  1.0000
  H   H13       1.0  0.08530949299574077  0.9876270220698301  0.29680168759663433  1.0000
  H   H14       1.0  0.9146874461123531  0.9876266872432707  0.7031982381854506  1.0000
  H   H15       1.0  0.41468845056979825  0.012372047977677898  0.7968019450703565  1.0000
  H   H16       1.0  0.5853115062717293  0.012372700878039204  0.2031986618633397  1.0000
  H   H17       1.0  0.6447511603939731  0.19201228056701314  0.7632094118941951  1.0000
  H   H18       1.0  0.3552475233935652  0.1920103292915059  0.23679134048668263  1.0000
  H   H19       1.0  0.8552494484004071  0.8079884584588797  0.2632097882337733  1.0000
  H   H20       1.0  0.1447487637620029  0.8079873898522222  0.7367907274913394  1.0000
  H   H21       1.0  0.8972559413452218  0.4238303860044894  0.7818171046346195  1.0000
  H   H22       1.0  0.10274477122950287  0.42383178405741967  0.2181831000524923  1.0000
  H   H23       1.0  0.6027462870066457  0.5761667387336047  0.28181798763075966  1.0000
  H   H24       1.0  0.39724989636984276  0.5761719862772382  0.718180869618486  1.0000
  H   H25       1.0  0.917501961566238  0.6321186559965283  0.6446360308540663  1.0000
  H   H26       1.0  0.08250073657406178  0.6321191171253914  0.355363607086268  1.0000
  H   H27       1.0  0.5825017476980036  0.367880602873818  0.14463600652693742  1.0000
  H   H28       1.0  0.41750046511079836  0.3678813006260029  0.8553612112986286  1.0000
  C   C1        1.0  0.3850714407984341  0.12351908718672885  0.6083266256757514  1.0000
  C   C2        1.0  0.6149255141870072  0.12351775024299631  0.3916740712487226  1.0000
  C   C3        1.0  0.11492793802972297  0.8764832222348886  0.10832628302502914  1.0000
  C   C4        1.0  0.8850720029367025  0.8764808354097581  0.8916735527672728  1.0000
  C   C5        1.0  0.5594027152411627  0.38776496625576584  0.5474783550288791  1.0000
  C   C6        1.0  0.4405979310901245  0.3877647991334286  0.4525218204567025  1.0000
  C   C7        1.0  0.940599304555178  0.6122352966295284  0.04747858674529231  1.0000
  C   C8        1.0  0.05940175406427529  0.6122346146053914  0.9525217704858024  1.0000
  C   C9        1.0  0.5332993852299238  0.26755004448510517  0.6202128079236076  1.0000
  C   C10       1.0  0.46669783430068895  0.26754974422011907  0.37978800561808174  1.0000
  C   C11       1.0  0.9666994932989041  0.7324503789304445  0.12021240582573263  1.0000
  C   C12       1.0  0.03330018312266961  0.7324507274395131  0.8797880487395631  1.0000
  C   C13       1.0  0.6591669957596551  0.2816659794340097  0.7048805044165933  1.0000
  C   C14       1.0  0.3408318526998854  0.28166779712807255  0.29512032055525594  1.0000
  C   C15       1.0  0.8408335611215705  0.7183334124009376  0.20488080582331494  1.0000
  C   C16       1.0  0.15916608937331486  0.7183361430185613  0.7951196373129363  1.0000
  C   C17       1.0  0.8003032546122383  0.4113922962434414  0.715759195715414  1.0000
  C   C18       1.0  0.1996974351174501  0.41139394182862776  0.28424099890111887  1.0000
  C   C19       1.0  0.699700517949708  0.5886059011506931  0.21575936914945973  1.0000
  C   C20       1.0  0.3003037032692433  0.5886063189478178  0.784238762779829  1.0000
  C   C21       1.0  0.8120292718106866  0.5263215598954359  0.6408421013821199  1.0000
  C   C22       1.0  0.18797323201064128  0.5263221400743348  0.35915818628829055  1.0000
  C   C23       1.0  0.6879744340770487  0.47367769060141984  0.1408421798567048  1.0000
  C   C24       1.0  0.31202957605314907  0.47367950450741614  0.8591573298002404  1.0000
  N   N1        1.0  0.6926714480857683  0.5149983252270403  0.5589740370617095  1.0000
  N   N2        1.0  0.3073294319371414  0.5149979928896685  0.4410262414401701  1.0000
  N   N3        1.0  0.8073305819404198  0.4850007445775263  0.0589741441022937  1.0000
  N   N4        1.0  0.19267184598708545  0.48500261392991456  0.9410253747224219  1.0000
  O   O1        1.0  0.22369421041916837  0.1345958955181032  0.5528355429063441  1.0000
  O   O2        1.0  0.7763059709111815  0.13459485038815444  0.4471644275968033  1.0000
  O   O3        1.0  0.2763067220222908  0.8654062914288686  0.05283448212421151  1.0000
  O   O4        1.0  0.7236931985996832  0.8654050761920826  0.9471646093097522  1.0000
  O   O5        1.0  0.4374021960135224  0.9934444971293671  0.6563214884854605  1.0000
  O   O6        1.0  0.5625947537796847  0.9934442177955488  0.3436784420068549  1.0000
  O   O7        1.0  0.0625956225272404  0.006555481315608299  0.1563211683711856  1.0000
  O   O8        1.0  0.9374043236285202  0.006554261926659401  0.8436779630718763  1.0000
  O   O9        1.0  0.2096348880185701  0.7795363442255335  0.5490161861283128  1.0000
  O   O10       1.0  0.7903616688847207  0.779535322275244  0.4509828357795983  1.0000
  O   O11       1.0  0.2903628350230107  0.2204646158383028  0.049016076225314  1.0000
  O   O12       1.0  0.7096375040248971  0.22046461273367157  0.9509839638031325  1.0000
  O   O13       1.0  0.1426904756468517  0.9510564805357832  0.36036733605290294  1.0000
  O   O14       1.0  0.857307999291301  0.9510559452022421  0.6396325601193525  1.0000
  O   O15       1.0  0.3573075244916666  0.048942729808665306  0.8603683492011387  1.0000
  O   O16       1.0  0.6426924995198104  0.0489433026229591  0.13963228734252206  1.0000
