data_image0
_chemical_formula_structural       Mn2H12C16Br4N8
_chemical_formula_sum              "Mn2 H12 C16 Br4 N8"
_cell_length_a       7.847839574541008
_cell_length_b       9.527562482163143
_cell_length_c       9.596427205733963
_cell_angle_alpha    62.10199188918616
_cell_angle_beta     65.80421762518743
_cell_angle_gamma    65.62983476285352

_space_group_name_H-M_alt    "P 1"
_space_group_IT_number       1

loop_
  _space_group_symop_operation_xyz
  'x, y, z'

loop_
  _atom_site_type_symbol
  _atom_site_label
  _atom_site_symmetry_multiplicity
  _atom_site_fract_x
  _atom_site_fract_y
  _atom_site_fract_z
  _atom_site_occupancy
  Mn  Mn1       1.0  0.7669439801551973  0.749964815217318  0.24973584601649176  1.0000
  Mn  Mn2       1.0  0.23306692853206107  0.25003436564651327  0.7502566421880702  1.0000
  H   H1        1.0  0.8814270335048777  0.3996596290143017  0.21062299747645613  1.0000
  H   H2        1.0  0.4910953725675071  0.10023159602045692  0.2897404105144972  1.0000
  H   H3        1.0  0.11856731759554864  0.6003358585193654  0.7893759177665912  1.0000
  H   H4        1.0  0.5089074331670175  0.8997651367239573  0.7102673247561738  1.0000
  H   H5        1.0  0.0787829180538893  0.10277871625999781  0.332035885450388  1.0000
  H   H6        1.0  0.5129004030487182  0.3970663044077797  0.16843204278501386  1.0000
  H   H7        1.0  0.9212216777390554  0.8972217032030443  0.6679578614698091  1.0000
  H   H8        1.0  0.48710028916722375  0.6029341324873129  0.8315738944578613  1.0000
  H   H9        1.0  0.20088768760145126  0.0365106178829251  0.5661715627283  1.0000
  H   H10       1.0  0.8030517450465029  0.4633660069199266  0.9342450349386482  1.0000
  H   H11       1.0  0.79910994629995  0.9634922791832211  0.4338260251075284  1.0000
  H   H12       1.0  0.19694774702772117  0.5366307179476949  0.06575627398113681  1.0000
  C   C1        1.0  0.9475137803449771  0.3605052027222797  0.3076735090970788  1.0000
  C   C2        1.0  0.6151582691060967  0.13939243382376532  0.192516152847823  1.0000
  C   C3        1.0  0.05247860193834715  0.6394927582567008  0.6923270739487036  1.0000
  C   C4        1.0  0.38484819445332624  0.8606092300321109  0.8074846180336265  1.0000
  C   C5        1.0  0.05119357473911636  0.19777477299017926  0.37711956098466715  1.0000
  C   C6        1.0  0.6255627814985802  0.3020863513842968  0.12322667129142686  1.0000
  C   C7        1.0  0.9488007641295366  0.802226887568452  0.6228765783384278  1.0000
  C   C8        1.0  0.37444592485125144  0.6979140784433896  0.8767754865692866  1.0000
  C   C9        1.0  0.12058898295399702  0.1616931772968044  0.5052994734985887  1.0000
  C   C10       1.0  0.7872139783564193  0.3382351952816549  0.9949974213137197  1.0000
  C   C11       1.0  0.8794053591125391  0.8383109554589441  0.4946977667836093  1.0000
  C   C12       1.0  0.21279366032140248  0.6617664648381663  0.005000798134474797  1.0000
  C   C13       1.0  0.005956657653364079  0.4343190336847799  0.47659576479471616  1.0000
  C   C14       1.0  0.9167748441376774  0.06566566827027032  0.02347506960045824  1.0000
  C   C15       1.0  0.9940293931081002  0.5656813945241268  0.5234010991285489  1.0000
  C   C16       1.0  0.08322465753020959  0.9343384731887171  0.9765295421966229  1.0000
  Br  Br1       1.0  0.44642519834830824  0.7730729303149388  0.4647210663050457  1.0000
  Br  Br2       1.0  0.6830750678408467  0.7257965189411522  0.03639091870025642  1.0000
  Br  Br3       1.0  0.5535886574494527  0.22690402981118754  0.5352835322768003  1.0000
  Br  Br4       1.0  0.3169297710660785  0.27421254159469294  0.9635981292438274  1.0000
  N   N1        1.0  0.9277583976431885  0.4798116216720204  0.3549500230019973  1.0000
  N   N2        1.0  0.7621468360824794  0.020192904663971903  0.14496348718061816  1.0000
  N   N3        1.0  0.07222937298539038  0.5201888094379683  0.6450492980928928  1.0000
  N   N4        1.0  0.2378626639660555  0.979805055454449  0.855039554310622  1.0000
  N   N5        1.0  0.09583464441817567  0.2795936555137644  0.5570764806801023  1.0000
  N   N6        1.0  0.9324012456735461  0.22036091057067608  0.9432479195039534  1.0000
  N   N7        1.0  0.9041540523788145  0.7204092482065647  0.4429244139558863  1.0000
  N   N8        1.0  0.0675958871299968  0.7796444669911295  0.05675681732149235  1.0000
