data_image0
_chemical_formula_structural       Al4H28C64N16Cl8O20
_chemical_formula_sum              "Al4 H28 C64 N16 Cl8 O20"
_cell_length_a       6.694034712194586
_cell_length_b       24.99600125019088
_cell_length_c       28.501317565637272
_cell_angle_alpha    90.05330099361433
_cell_angle_beta     90.27315855484288
_cell_angle_gamma    90.37341368299903

_space_group_name_H-M_alt    "P 1"
_space_group_IT_number       1

loop_
  _space_group_symop_operation_xyz
  'x, y, z'

loop_
  _atom_site_type_symbol
  _atom_site_label
  _atom_site_symmetry_multiplicity
  _atom_site_fract_x
  _atom_site_fract_y
  _atom_site_fract_z
  _atom_site_occupancy
  Al  Al1       1.0  0.7914746280195856  0.7514942095208639  0.7500958373772804  1.0000
  Al  Al2       1.0  0.20753614040749818  0.24857113752512547  0.24979426253133147  1.0000
  Al  Al3       1.0  0.2914198397090217  0.749270593935371  0.7493402863812265  1.0000
  Al  Al4       1.0  0.707837059535862  0.2514660024630685  0.24994360811100347  1.0000
  H   H1        1.0  0.7251756663446897  0.6227774050448713  0.6630731730211324  1.0000
  H   H2        1.0  0.2707980576082463  0.37667736022979875  0.3366392834496637  1.0000
  H   H3        1.0  0.26763429419468565  0.3279954472880249  0.1265829749398222  1.0000
  H   H4        1.0  0.734459344376887  0.6724875717421026  0.8732317324460157  1.0000
  H   H5        1.0  0.23912748386523214  0.8813551889815298  0.8339287736788279  1.0000
  H   H6        1.0  0.7598622824584137  0.1744066810286852  0.1233545819607329  1.0000
  H   H7        1.0  0.7674344363367069  0.1722062004948198  0.3720086102059312  1.0000
  H   H8        1.0  0.23255484155291126  0.8278312738254312  0.626262056220952  1.0000
  H   H9        1.0  0.3063045367024273  0.5947469545947681  0.558439237716783  1.0000
  H   H10       1.0  0.6920254982417616  0.40514511030048056  0.4418156757815268  1.0000
  H   H11       1.0  0.7064300214539541  0.4504456717172685  0.0919792555193339  1.0000
  H   H12       1.0  0.2950470789128516  0.5497414372367897  0.9076385125227446  1.0000
  H   H13       1.0  0.8096678206971717  0.9028192778105931  0.9441451533972584  1.0000
  H   H14       1.0  0.18950362745683688  0.05186152021528299  0.0910792480772855  1.0000
  H   H15       1.0  0.2040927025387305  0.04944278914972238  0.40820512365213096  1.0000
  H   H16       1.0  0.7972842547266764  0.9508057311789454  0.5920304885404164  1.0000
  H   H17       1.0  0.3302694452219939  0.6606432368115163  0.6244442952436486  1.0000
  H   H18       1.0  0.6670898900025222  0.3387648465573391  0.3762151369604255  1.0000
  H   H19       1.0  0.676232258154073  0.38402901254944055  0.1570254426939073  1.0000
  H   H20       1.0  0.32694844736511197  0.6168340501876697  0.843168234243237  1.0000
  H   H21       1.0  0.836441170345104  0.8400407934347384  0.8759508577063145  1.0000
  H   H22       1.0  0.16449213209406824  0.12035930253072276  0.15492147477087312  1.0000
  H   H23       1.0  0.16960922486330082  0.11636340534434447  0.3436591304527852  1.0000
  H   H24       1.0  0.8287354503468194  0.8835281947974561  0.6564312361145568  1.0000
  H   H25       1.0  0.5449285182350962  0.679770891038501  0.7533435643680592  1.0000
  H   H26       1.0  0.45266451937533964  0.3208739982049451  0.24813020456713997  1.0000
  H   H27       1.0  0.04835486941350099  0.8210983857433333  0.7505745178718258  1.0000
  H   H28       1.0  0.9488250080578096  0.17913826381681722  0.24712673018740364  1.0000
  C   C1        1.0  0.5393284437173591  0.8137328184939673  0.6855616671845368  1.0000
  C   C2        1.0  0.45662218501920643  0.18576948737828755  0.313211891898618  1.0000
  C   C3        1.0  0.4611036928222206  0.187389417179638  0.1850752003602949  1.0000
  C   C4        1.0  0.5424159214472795  0.8161854973818731  0.8123663273204967  1.0000
  C   C5        1.0  0.0394937822626034  0.6866773267317042  0.8138534252521126  1.0000
  C   C6        1.0  0.9644675483761063  0.3143997490450586  0.18646425973298622  1.0000
  C   C7        1.0  0.9591216470093401  0.31386834520712625  0.3136378821965522  1.0000
  C   C8        1.0  0.036136473466946484  0.6854727939719036  0.6866043021893233  1.0000
  C   C9        1.0  0.8519529775583621  0.6166241494375695  0.6399402095274169  1.0000
  C   C10       1.0  0.1446427251070048  0.38286566503914066  0.3599210017009256  1.0000
  C   C11       1.0  0.1429360433018729  0.35411055054875346  0.1182268005610609  1.0000
  C   C12       1.0  0.8592111018356687  0.6463689070138227  0.8815665304811162  1.0000
  C   C13       1.0  0.3646850011698959  0.8862878570269642  0.8579957645639524  1.0000
  C   C14       1.0  0.634739210386968  0.14752081714993173  0.11617740299091392  1.0000
  C   C15       1.0  0.642038180229953  0.14615458257608077  0.3807474790566729  1.0000
  C   C16       1.0  0.3580700746894578  0.8539932020328959  0.6179074938546804  1.0000
  C   C17       1.0  0.8415373814019913  0.5785649472113688  0.6042817119317052  1.0000
  C   C18       1.0  0.155948650637086  0.4210360485579938  0.3954596682773471  1.0000
  C   C19       1.0  0.1555681024298607  0.38925683194509725  0.0804489720948993  1.0000
  C   C20       1.0  0.8460727240501312  0.6109972442070272  0.9191801394623411  1.0000
  C   C21       1.0  0.3540547565610552  0.9233622781433434  0.8944161474003991  1.0000
  C   C22       1.0  0.6447531300552357  0.11124965057592813  0.0791037611216154  1.0000
  C   C23       1.0  0.6561182967062749  0.11116338291012079  0.4186463079975979  1.0000
  C   C24       1.0  0.34501671868967076  0.8894599987934266  0.5803732614006096  1.0000
  C   C25       1.0  0.0044316711593452955  0.5712304045329615  0.5738386140483911  1.0000
  C   C26       1.0  0.9936674876230143  0.42854485542783033  0.42605193083972653  1.0000
  C   C27       1.0  0.9976830307340093  0.42476630757295175  0.0706306967223611  1.0000
  C   C28       1.0  0.003801215471320095  0.575415195705446  0.9289632138529598  1.0000
  C   C29       1.0  0.5126342509839927  0.9282866640252502  0.9271357574893031  1.0000
  C   C30       1.0  0.48664102786768376  0.07454451836633066  0.07093512153452508  1.0000
  C   C31       1.0  0.497843168808096  0.07551661205327057  0.4288716645866728  1.0000
  C   C32       1.0  0.504015709100301  0.9250704805829383  0.5706749094133842  1.0000
  C   C33       1.0  0.17970483421352404  0.6012500443726905  0.5815994701262639  1.0000
  C   C34       1.0  0.818300078005336  0.398481668412998  0.4186001152935789  1.0000
  C   C35       1.0  0.8274894381169203  0.422773713704636  0.09939391498821241  1.0000
  C   C36       1.0  0.1743581748813838  0.5775646173270058  0.9003416540657201  1.0000
  C   C37       1.0  0.6864207451333685  0.8979964131168073  0.919357342139513  1.0000
  C   C38       1.0  0.3128717069651259  0.07931111789378058  0.0983764671314944  1.0000
  C   C39       1.0  0.32519470155470026  0.07735049081711047  0.4005869235987235  1.0000
  C   C40       1.0  0.6756739354080779  0.9229461969100538  0.5992856543399299  1.0000
  C   C41       1.0  0.19324145691131633  0.6379527315523956  0.6181726183350946  1.0000
  C   C42       1.0  0.804148818994143  0.36151327654985715  0.3822482702226893  1.0000
  C   C43       1.0  0.8109561729403792  0.3862149805547474  0.1358529810918299  1.0000
  C   C44       1.0  0.19178346030093252  0.614497179830671  0.8641905789020045  1.0000
  C   C45       1.0  0.7009005358439921  0.8629640959892412  0.8817210037346896  1.0000
  C   C46       1.0  0.2994176014414904  0.11699864725383684  0.1339707822925149  1.0000
  C   C47       1.0  0.3064189205918168  0.11410165260554804  0.36436427600343546  1.0000
  C   C48       1.0  0.6929303807604228  0.8859391238880788  0.6353610838296933  1.0000
  C   C49       1.0  0.027699761804349493  0.6461901880702283  0.6471050372682328  1.0000
  C   C50       1.0  0.9689221967553293  0.35319218985102196  0.3530866506420622  1.0000
  C   C51       1.0  0.9707317236544737  0.3521548421215426  0.14583530625515104  1.0000
  C   C52       1.0  0.03224398389991019  0.6486399748587883  0.8542620964411826  1.0000
  C   C53       1.0  0.5369456883531071  0.855846815733855  0.8515637959638838  1.0000
  C   C54       1.0  0.4637599260671407  0.15008985628274019  0.1441082989071489  1.0000
  C   C55       1.0  0.4669216519459525  0.14811005864150664  0.35383127367594375  1.0000
  C   C56       1.0  0.532153499740616  0.851752899829918  0.6451861730580007  1.0000
  C   C57       1.0  0.9990294122734156  0.46710033622947816  0.4651854172483283  1.0000
  C   C58       1.0  0.9996190578179095  0.532923062632946  0.5345212775283557  1.0000
  C   C59       1.0  0.999322307333486  0.535482604899883  0.9669346244908255  1.0000
  C   C60       1.0  0.0018355283492609978  0.46458693773695336  0.0325717001500436  1.0000
  C   C61       1.0  0.49567944832142524  0.03050739626763029  0.03685694009664791  1.0000
  C   C62       1.0  0.5041929674098924  0.9617581176493599  0.9694732738191192  1.0000
  C   C63       1.0  0.5001423579456059  0.9649066189374476  0.5326516897306561  1.0000
  C   C64       1.0  0.5032376387343049  0.035685887901806296  0.466921292159391  1.0000
  N   N1        1.0  0.16192377717894857  0.5015823189876512  0.5291286251728522  1.0000
  N   N2        1.0  0.8371149594008928  0.49862012395585953  0.47044051314646407  1.0000
  N   N3        1.0  0.9179321864243661  0.5125265725993767  0.042084545123977114  1.0000
  N   N4        1.0  0.083155335847394  0.4875425010260343  0.9574129711166748  1.0000
  N   N5        1.0  0.6785411077272627  0.9749205653969919  0.9907885143953408  1.0000
  N   N6        1.0  0.3215986694867681  0.007309678662878098  0.023411297344587502  1.0000
  N   N7        1.0  0.41805977521319443  0.9875646068432286  0.45736953392596297  1.0000
  N   N8        1.0  0.5864707901354862  0.012880490989438394  0.5421102997796794  1.0000
  N   N9        1.0  0.1616033953790463  0.4677067363791918  0.4935408064739732  1.0000
  N   N10       1.0  0.8374428376804134  0.5324997132975253  0.5060265832726643  1.0000
  N   N11       1.0  0.916938648318144  0.5488657201859936  0.0085533144333496  1.0000
  N   N12       1.0  0.08411740071899489  0.45119452299116586  0.990944181371603  1.0000
  N   N13       1.0  0.674666688005459  0.008636787087219497  0.0262673111569782  1.0000
  N   N14       1.0  0.3255427980435215  0.9708504997519892  0.9901024173361109  1.0000
  N   N15       1.0  0.4168000679957302  0.9512794106349456  0.4909375085004868  1.0000
  N   N16       1.0  0.5877782781263932  0.04918052515925808  0.5085244629150267  1.0000
  Cl  Cl1       1.0  0.6305269858101425  0.5386058591299372  0.6005203259573335  1.0000
  Cl  Cl2       1.0  0.36714335449148194  0.4609755415190618  0.3988808050311334  1.0000
  Cl  Cl3       1.0  0.37502836931254535  0.38948750379323355  0.0487377601560581  1.0000
  Cl  Cl4       1.0  0.6263405604835769  0.6106150420681826  0.950775706798467  1.0000
  Cl  Cl5       1.0  0.14584056382425098  0.9638323512149467  0.8959797939214056  1.0000
  Cl  Cl6       1.0  0.8519471590625824  0.11495245732331938  0.0433047639140725  1.0000
  Cl  Cl7       1.0  0.877427498004806  0.11130335587994718  0.4501220797068584  1.0000
  Cl  Cl8       1.0  0.12406080656899832  0.8899063810255823  0.5487568953412918  1.0000
  O   O1        1.0  0.3742825981623525  0.8008602920268612  0.7958422528137206  1.0000
  O   O2        1.0  0.6295161347147767  0.20589718931248766  0.1986206528010612  1.0000
  O   O3        1.0  0.622820382739299  0.19949384444510795  0.2952041281324895  1.0000
  O   O4        1.0  0.37128264268972083  0.7970319750507214  0.7004233822462497  1.0000
  O   O5        1.0  0.8693999340105023  0.7008776571103396  0.7030019725373791  1.0000
  O   O6        1.0  0.1244936252048063  0.3006715812898334  0.29511779485336836  1.0000
  O   O7        1.0  0.1316518331370347  0.29534026788461176  0.19948178423476998  1.0000
  O   O8        1.0  0.8714813378311063  0.7030093911326387  0.7987209791910461  1.0000
  O   O9        1.0  0.7098912675479739  0.8016666856263082  0.7023790281109826  1.0000
  O   O10       1.0  0.28432587846635465  0.20052789775094473  0.2994052563910756  1.0000
  O   O11       1.0  0.2925737348524464  0.19698272533868522  0.2038601002138307  1.0000
  O   O12       1.0  0.7135132254055279  0.8011167194239519  0.7983572488568599  1.0000
  O   O13       1.0  0.21026105240682819  0.6991568119958129  0.797373722871697  1.0000
  O   O14       1.0  0.7955392942410171  0.3047935362343636  0.2052710468931522  1.0000
  O   O15       1.0  0.7868178683793872  0.2972273402319557  0.3010249003824157  1.0000
  O   O16       1.0  0.20833312753187272  0.6998178994606403  0.7012753880708047  1.0000
  O   O17       1.0  0.542043475321435  0.7182914982033276  0.7502166559313821  1.0000
  O   O18       1.0  0.45666201102105936  0.2822718988250371  0.2501977007613831  1.0000
  O   O19       1.0  0.0435086625491863  0.7824322643766732  0.7495525973935387  1.0000
  O   O20       1.0  0.9550253955481834  0.2177294119821268  0.2493952333562248  1.0000
