data_image0
_chemical_formula_structural       Cd2H28C24S4N8
_chemical_formula_sum              "Cd2 H28 C24 S4 N8"
_cell_length_a       3.873272995467519
_cell_length_b       11.930594465207111
_cell_length_c       15.110989422280278
_cell_angle_alpha    90.0005038162902
_cell_angle_beta     94.64621523518893
_cell_angle_gamma    90.00039933126321

_space_group_name_H-M_alt    "P 1"
_space_group_IT_number       1

loop_
  _space_group_symop_operation_xyz
  'x, y, z'

loop_
  _atom_site_type_symbol
  _atom_site_label
  _atom_site_symmetry_multiplicity
  _atom_site_fract_x
  _atom_site_fract_y
  _atom_site_fract_z
  _atom_site_occupancy
  Cd  Cd1       1.0  0.49999944169216803  0.9999931339619438  0.9999938008965543  1.0000
  Cd  Cd2       1.0  0.49997695984581725  0.49999936265557926  0.5000062457597281  1.0000
  H   H1        1.0  0.4211655566044216  0.7492540577247555  0.31384274152256353  1.0000
  H   H2        1.0  0.42122359935075343  0.7507529706750234  0.8138544265898062  1.0000
  H   H3        1.0  0.5788193919560529  0.25074634390320943  0.6861551662355581  1.0000
  H   H4        1.0  0.5787743222303449  0.24924994554546492  0.1861497034157082  1.0000
  H   H5        1.0  0.7145425800400035  0.7538580651645503  0.0801017453026631  1.0000
  H   H6        1.0  0.7145435041159092  0.7461403375224127  0.5801062696183193  1.0000
  H   H7        1.0  0.28548641550589343  0.24612976381816762  0.9199003754444632  1.0000
  H   H8        1.0  0.2854414395157435  0.25384665319901967  0.4198903144509814  1.0000
  H   H9        1.0  0.4009157871584891  0.6631985930660348  0.12279918778303771  1.0000
  H   H10       1.0  0.4009292550838808  0.8367937083628829  0.6228072522133845  1.0000
  H   H11       1.0  0.5991106324551866  0.3367951032038191  0.8772068507286905  1.0000
  H   H12       1.0  0.5990686640227665  0.16320166422313784  0.3771962159445792  1.0000
  H   H13       1.0  0.7950473921430617  0.6859509778892204  0.18642364631342903  1.0000
  H   H14       1.0  0.7950551198924745  0.8140521320972951  0.6864274628241347  1.0000
  H   H15       1.0  0.20495312678648503  0.31404271835222636  0.8135825222882005  1.0000
  H   H16       1.0  0.20494019944148792  0.18594910773931161  0.3135733049058871  1.0000
  H   H17       1.0  0.9517021830533281  0.9962127087390515  0.4110106017198234  1.0000
  H   H18       1.0  0.9516921411379117  0.5037990996970052  0.9110198196770652  1.0000
  H   H19       1.0  0.0483112280100926  0.0037977510510743004  0.5889792873280086  1.0000
  H   H20       1.0  0.04830581148601001  0.49620800747700866  0.0889929139944741  1.0000
  H   H21       1.0  0.32987685636057057  0.9153888936272667  0.4441288831417793  1.0000
  H   H22       1.0  0.3298506172737988  0.5846202055832563  0.9441376734362876  1.0000
  H   H23       1.0  0.6701469230119272  0.08461569891824186  0.5558632040335424  1.0000
  H   H24       1.0  0.6701524826273088  0.41539025427080395  0.0558659011241431  1.0000
  H   H25       1.0  0.9349612505595744  0.8458455179987754  0.4148230018486601  1.0000
  H   H26       1.0  0.9349677692029771  0.6541553985469903  0.9148349373916673  1.0000
  H   H27       1.0  0.0650418015601559  0.15415655997016842  0.5851673362952425  1.0000
  H   H28       1.0  0.06503536635834452  0.3458466795498865  0.0851785644261369  1.0000
  C   C1        1.0  0.16810139674711175  0.9987962749747936  0.1678988583512151  1.0000
  C   C2        1.0  0.16807059892251172  0.5012043824896113  0.6679155733311077  1.0000
  C   C3        1.0  0.8319223490277353  0.0011898775331147002  0.8320839632853776  1.0000
  C   C4        1.0  0.8318807353007146  0.49880021009406056  0.3320981886759355  1.0000
  C   C5        1.0  0.17797504782237186  0.9136093296106081  0.3041142338447004  1.0000
  C   C6        1.0  0.1779359451228757  0.5863970444569235  0.8041353461812405  1.0000
  C   C7        1.0  0.8220720180568366  0.08639274837994289  0.6958710518658151  1.0000
  C   C8        1.0  0.8220257551358828  0.41361090087168145  0.19587995216862453  1.0000
  C   C9        1.0  0.4324818992735047  0.8235396745565567  0.1834881636011758  1.0000
  C   C10       1.0  0.4324915286193446  0.6764625877039595  0.6834963487552771  1.0000
  C   C11       1.0  0.5675625952406593  0.1764515071044173  0.8165023634495655  1.0000
  C   C12       1.0  0.567477894818687  0.3235403284739533  0.31650587270944197  1.0000
  C   C13       1.0  0.3514469764949269  0.8212577032661129  0.2717758284496696  1.0000
  C   C14       1.0  0.35150586219620555  0.6787554094489398  0.7717810701351127  1.0000
  C   C15       1.0  0.6485379959662796  0.1787477274856073  0.7282286975198602  1.0000
  C   C16       1.0  0.6485101987450224  0.32125253589216385  0.2282254175575815  1.0000
  C   C17       1.0  0.5999253369955185  0.7271068797054382  0.14073811177105  1.0000
  C   C18       1.0  0.5999528054358977  0.7728961254397789  0.6407433685329522  1.0000
  C   C19       1.0  0.40009848757338773  0.2728893310975026  0.859266549938667  1.0000
  C   C20       1.0  0.40004510411447575  0.2270975707692244  0.3592574523417085  1.0000
  C   C21       1.0  0.09244423421073833  0.9187930696418718  0.399000794406362  1.0000
  C   C22       1.0  0.09245417537271551  0.5812108066540987  0.8990096417434259  1.0000
  C   C23       1.0  0.9075614058418183  0.08120984650782502  0.6009889350943709  1.0000
  C   C24       1.0  0.9075592952315648  0.4187946241401975  0.1009967927668995  1.0000
  S   S1        1.0  0.05249848028871181  0.10897252189557351  0.0951109822981806  1.0000
  S   S2        1.0  0.05248219784068201  0.39102828464731937  0.5951280809835637  1.0000
  S   S3        1.0  0.9474889989071189  0.8910220123758067  0.904870433129503  1.0000
  S   S4        1.0  0.94749503953107  0.6089830134180121  0.4048862127779813  1.0000
  N   N1        1.0  0.34864546049472284  0.9139119986110631  0.13297055679517203  1.0000
  N   N2        1.0  0.34865291400932824  0.586088679324348  0.63297541665181  1.0000
  N   N3        1.0  0.6513679432256866  0.086082535725275  0.8670173467351532  1.0000
  N   N4        1.0  0.651321697053824  0.4139025023341248  0.3670288965725206  1.0000
  N   N5        1.0  0.0789729298202175  0.0013115553173080002  0.2517418570638057  1.0000
  N   N6        1.0  0.0789514238213513  0.4986935540666835  0.7517503384987663  1.0000
  N   N7        1.0  0.9210301199255185  0.9986913608291843  0.7482478192639874  1.0000
  N   N8        1.0  0.9210231850285455  0.5013118766685595  0.2482533129597613  1.0000
