data_image0
_chemical_formula_structural       Zn2H24C36N4O8
_chemical_formula_sum              "Zn2 H24 C36 N4 O8"
_cell_length_a       8.63133152240634
_cell_length_b       10.199800573227751
_cell_length_c       10.15298710313041
_cell_angle_alpha    78.02181194203507
_cell_angle_beta     74.16281471201441
_cell_angle_gamma    79.44950261017402

_space_group_name_H-M_alt    "P 1"
_space_group_IT_number       1

loop_
  _space_group_symop_operation_xyz
  'x, y, z'

loop_
  _atom_site_type_symbol
  _atom_site_label
  _atom_site_symmetry_multiplicity
  _atom_site_fract_x
  _atom_site_fract_y
  _atom_site_fract_z
  _atom_site_occupancy
  Zn  Zn1       1.0  0.4311374083943064  0.3713539319694164  0.896088902457869  1.0000
  Zn  Zn2       1.0  0.5688605299090668  0.6286458590249352  0.10391183369046796  1.0000
  H   H1        1.0  0.7426187527063989  0.5554626366887305  0.3972746496999875  1.0000
  H   H2        1.0  0.2573768497095089  0.4445361592141239  0.6027219374286332  1.0000
  H   H3        1.0  0.392212510467779  0.9133426919190835  0.9333458721590517  1.0000
  H   H4        1.0  0.6077843853091592  0.08665608888072998  0.06665532798753307  1.0000
  H   H5        1.0  0.5309066311896729  0.5509635077977393  0.6172326183742171  1.0000
  H   H6        1.0  0.46908888060764314  0.4490362883910705  0.3827677232148474  1.0000
  H   H7        1.0  0.32363546200910775  0.16580510824637423  0.15754379449751352  1.0000
  H   H8        1.0  0.6763634638056788  0.8341966876703211  0.8424621946633835  1.0000
  H   H9        1.0  0.12523010778247115  0.1597529024128264  0.38779066053830036  1.0000
  H   H10       1.0  0.8747699867808979  0.8402488978543087  0.6122130727142691  1.0000
  H   H11       1.0  0.13683939742432472  0.5581399548831101  0.022449535184271993  1.0000
  H   H12       1.0  0.8631597808347495  0.44185982934540385  0.9775528701564723  1.0000
  H   H13       1.0  0.932432174065141  0.5720605971519034  0.243404235836458  1.0000
  H   H14       1.0  0.06756815514074083  0.4279391942061253  0.7565949323207734  1.0000
  H   H15       1.0  0.9923808257265065  0.18901642024695778  0.593056109346861  1.0000
  H   H16       1.0  0.007615547360075016  0.8109863867082793  0.4069512771648434  1.0000
  H   H17       1.0  0.2867071738591846  0.1689000682541604  0.5663579533078718  1.0000
  H   H18       1.0  0.7133046062152175  0.8310956721838493  0.4336372946385368  1.0000
  H   H19       1.0  0.26747860984001187  0.9635296593982687  0.473370062555432  1.0000
  H   H20       1.0  0.7325315532219605  0.036468118947226506  0.5266202310924298  1.0000
  H   H21       1.0  0.7638497528274399  0.20058143015371144  0.8029883534759819  1.0000
  H   H22       1.0  0.2361452006759636  0.7994223977486498  0.19701621192783142  1.0000
  H   H23       1.0  0.30433457152808074  0.7355784616617455  0.6159812820640411  1.0000
  H   H24       1.0  0.6956744761906394  0.26441930399609953  0.38401421131770513  1.0000
  C   C1        1.0  0.7565561447215005  0.47460923456630166  0.4838662052033485  1.0000
  C   C2        1.0  0.2434351241532369  0.5253875183512732  0.5161407281143582  1.0000
  C   C3        1.0  0.8886831803529062  0.3708363688136274  0.4729972590221651  1.0000
  C   C4        1.0  0.11131499098328129  0.6291623996622276  0.5270075728671983  1.0000
  C   C5        1.0  0.33855629872879683  0.0529661861516004  0.7555991487040147  1.0000
  C   C6        1.0  0.6614495858070415  0.9470285544807947  0.24439577412211827  1.0000
  C   C7        1.0  0.3612537644612885  0.9241170209891009  0.8340836085881094  1.0000
  C   C8        1.0  0.638744300064232  0.07588176416115289  0.16591533565014768  1.0000
  C   C9        1.0  0.6357849238615999  0.4728353686495694  0.6063577124141374  1.0000
  C   C10       1.0  0.3642030737750233  0.5271664520317144  0.3936460105924553  1.0000
  C   C11       1.0  0.012324070370034718  0.36728392186581255  0.339614057770369  1.0000
  C   C12       1.0  0.9876771929419235  0.6327178827517628  0.6603874195738727  1.0000
  C   C13       1.0  0.3463601631668141  0.8098580066608038  0.7845340644845606  1.0000
  C   C14       1.0  0.6536399686098165  0.19014280165757916  0.2154629704820081  1.0000
  C   C15       1.0  0.3699112886354071  0.6715964755508352  0.8693444814228714  1.0000
  C   C16       1.0  0.6300866318661917  0.328403318222577  0.1306552734502802  1.0000
  C   C17       1.0  0.23555111397335787  0.2537630714008046  0.1827664853423983  1.0000
  C   C18       1.0  0.7644468955371269  0.7462367084772693  0.8172381759066738  1.0000
  C   C19       1.0  0.12471738841778553  0.2520322708653211  0.3113252925534411  1.0000
  C   C20       1.0  0.8752811781420391  0.7479715534139613  0.6886783927764952  1.0000
  C   C21       1.0  0.35846274817694734  0.1743558209054967  0.8077360537066767  1.0000
  C   C22       1.0  0.6415373479961277  0.825644992971021  0.1922590187095281  1.0000
  C   C23       1.0  0.1312858306027067  0.4727680178845687  0.10702544259403621  1.0000
  C   C24       1.0  0.8687120170820748  0.527232773395731  0.8929790480147445  1.0000
  C   C25       1.0  0.017104971313251807  0.4793937239643569  0.2323899540410039  1.0000
  C   C26       1.0  0.9828939366997606  0.5206080747314059  0.7676150538447076  1.0000
  C   C27       1.0  0.8923317047325909  0.27125687319207964  0.591295557178853  1.0000
  C   C28       1.0  0.10766596332471316  0.7287449322695069  0.4087077815144511  1.0000
  C   C29       1.0  0.3017898269668109  0.06760543695700251  0.626573319919757  1.0000
  C   C30       1.0  0.6982207309536719  0.9323903074677701  0.3734212401094298  1.0000
  C   C31       1.0  0.2904173796661809  0.9536506853783705  0.5756820779731129  1.0000
  C   C32       1.0  0.70959438260644  0.04634505783870679  0.42431218869811715  1.0000
  C   C33       1.0  0.7656169560211481  0.27695499244025257  0.7100619471089544  1.0000
  C   C34       1.0  0.23437796187870666  0.7230488410202512  0.2899406557444949  1.0000
  C   C35       1.0  0.31240762419004403  0.8253851276313565  0.6543521352195542  1.0000
  C   C36       1.0  0.6875979900997253  0.17461162746828757  0.345645390151546  1.0000
  N   N1        1.0  0.24029256766902313  0.36304701561603275  0.0817261292356619  1.0000
  N   N2        1.0  0.7597064309625736  0.6369537827937818  0.9182751241895987  1.0000
  N   N3        1.0  0.6377205282921992  0.37535988851298896  0.7178072830610062  1.0000
  N   N4        1.0  0.3622719452998099  0.6246439529210333  0.2821939439579851  1.0000
  O   O1        1.0  0.3556829971285254  0.5709128420306583  0.8182017226391167  1.0000
  O   O2        1.0  0.64431749390306  0.4290859379251442  0.18179761615840556  1.0000
  O   O3        1.0  0.44145784239177743  0.157008729856031  0.8982407677368228  1.0000
  O   O4        1.0  0.5585359617745169  0.8429941045262054  0.10175837401413204  1.0000
  O   O5        1.0  0.39751371842103106  0.6619952005538892  0.9873316167178247  1.0000
  O   O6        1.0  0.602484525731967  0.3380025704150711  0.012668479435916384  1.0000
  O   O7        1.0  0.2958150644928352  0.2912582041056099  0.7594442426777518  1.0000
  O   O8        1.0  0.7041933909381227  0.7087426124333122  0.2405448511320003  1.0000
