data_image0
_chemical_formula_structural       Zn4H80C104N4O16
_chemical_formula_sum              "Zn4 H80 C104 N4 O16"
_cell_length_a       13.050553156089583
_cell_length_b       13.050704860020899
_cell_length_c       16.103133668515056
_cell_angle_alpha    91.9057867411793
_cell_angle_beta     91.90443111085403
_cell_angle_gamma    107.83186800120797

_space_group_name_H-M_alt    "P 1"
_space_group_IT_number       1

loop_
  _space_group_symop_operation_xyz
  'x, y, z'

loop_
  _atom_site_type_symbol
  _atom_site_label
  _atom_site_symmetry_multiplicity
  _atom_site_fract_x
  _atom_site_fract_y
  _atom_site_fract_z
  _atom_site_occupancy
  Zn  Zn1       1.0  0.4385534113151621  0.42846268612161237  0.5596367141394369  1.0000
  Zn  Zn2       1.0  0.5715392164319582  0.5614471803832188  0.9403584734912658  1.0000
  Zn  Zn3       1.0  0.5614491738047037  0.571541613007767  0.4403638544578642  1.0000
  Zn  Zn4       1.0  0.42845938661364597  0.4385527877776169  0.05964120075433501  1.0000
  H   H1        1.0  0.23190193557521613  0.2593332686207219  0.547694248401946  1.0000
  H   H2        1.0  0.7406600072516909  0.7681025779432673  0.952304259218245  1.0000
  H   H3        1.0  0.7681015858007852  0.7406621396858668  0.4523048165372004  1.0000
  H   H4        1.0  0.25934429931152186  0.23189538634060372  0.047694294530501204  1.0000
  H   H5        1.0  0.10839449202403269  0.13321974867871939  0.6401446997950162  1.0000
  H   H6        1.0  0.8667803027295732  0.891602864350723  0.8598574958271288  1.0000
  H   H7        1.0  0.8916042426586303  0.8667749387267705  0.3598498367760997  1.0000
  H   H8        1.0  0.13322797816363874  0.10839478406951739  0.1401467675860388  1.0000
  H   H9        1.0  0.3563263317305498  0.2460712817942508  0.8370514021412847  1.0000
  H   H10       1.0  0.7539504377877008  0.6436801605907477  0.6629486132372904  1.0000
  H   H11       1.0  0.6436714137582414  0.7539345630900057  0.16294657401481066  1.0000
  H   H12       1.0  0.2460546066830744  0.35631953924971776  0.337053748107195  1.0000
  H   H13       1.0  0.4688082611017066  0.3648252168976072  0.7361309904758857  1.0000
  H   H14       1.0  0.635191110787943  0.5311996891739099  0.763864610028705  1.0000
  H   H15       1.0  0.5311878907086651  0.6351793586607287  0.2638662705106399  1.0000
  H   H16       1.0  0.36481391037884237  0.4688038532951992  0.23613601376542456  1.0000
  H   H17       1.0  0.07028323737947771  0.06031207004610909  0.7740884264226084  1.0000
  H   H18       1.0  0.9396953614031531  0.9297224173491683  0.7259102158358531  1.0000
  H   H19       1.0  0.92971302983657  0.9396872085397092  0.22590493791320657  1.0000
  H   H20       1.0  0.06030566815915249  0.07027755781198408  0.27408953840363653  1.0000
  H   H21       1.0  0.2274144996013305  0.17852507988256858  0.9172385829065565  1.0000
  H   H22       1.0  0.8214652714311086  0.7725925271147103  0.5827641282483854  1.0000
  H   H23       1.0  0.7725867173648028  0.8214658043289376  0.08275528916127682  1.0000
  H   H24       1.0  0.17853326810345743  0.22740660440825872  0.4172411058071007  1.0000
  H   H25       1.0  0.9973036816019344  0.1918348597774225  0.8531769147985175  1.0000
  H   H26       1.0  0.8081653120047603  0.002695718021541827  0.6468233886921554  1.0000
  H   H27       1.0  0.002691703710233597  0.808170271206052  0.14681661298344306  1.0000
  H   H28       1.0  0.19183560498091617  0.9973080105737965  0.3531814536276913  1.0000
  H   H29       1.0  0.9066177689953748  0.20405783960512025  0.9296469535674493  1.0000
  H   H30       1.0  0.7959358856455411  0.09338290821235523  0.5703560562333438  1.0000
  H   H31       1.0  0.0933809166216832  0.7959414378724289  0.07034711127413831  1.0000
  H   H32       1.0  0.20405856698239688  0.90662029260843  0.42964855623808534  1.0000
  H   H33       1.0  0.8633223402226234  0.10236738538141296  0.8504098602660763  1.0000
  H   H34       1.0  0.8976356152522486  0.13667691526125478  0.6495922117759749  1.0000
  H   H35       1.0  0.1366762066847684  0.8976410316972973  0.1495863636758656  1.0000
  H   H36       1.0  0.10236460864789619  0.8633228030129345  0.35040750753319844  1.0000
  H   H37       1.0  0.25789781387531013  0.01650165687615868  0.941304127058274  1.0000
  H   H38       1.0  0.9834879421281427  0.7421021416428956  0.5586902212937802  1.0000
  H   H39       1.0  0.742104840413667  0.9835003918144238  0.058693264588434615  1.0000
  H   H40       1.0  0.0165074721461025  0.2578960596352715  0.4413074268978435  1.0000
  H   H41       1.0  0.21056311233652988  0.8909380308839374  0.9879061476909146  1.0000
  H   H42       1.0  0.10906058215822868  0.7894363308401396  0.5120876176569241  1.0000
  H   H43       1.0  0.7894363016578864  0.10906374581078629  0.012091749543465398  1.0000
  H   H44       1.0  0.8909372138106875  0.21056415220289887  0.48791142594352993  1.0000
  H   H45       1.0  0.26425806579787553  0.008956718394109902  0.05145316522659731  1.0000
  H   H46       1.0  0.9910358589108128  0.7357428208465535  0.4485421336501077  1.0000
  H   H47       1.0  0.7357380683665866  0.9910486127162204  0.9485447410688723  1.0000
  H   H48       1.0  0.008958681946673194  0.2642566022142745  0.5514592522766224  1.0000
  H   H49       1.0  0.11778058666900648  0.4314955068938388  0.4792071205517915  1.0000
  H   H50       1.0  0.5685014723882489  0.8822142220911857  0.020786893286633305  1.0000
  H   H51       1.0  0.8822196252433158  0.5685018798556739  0.5207956269256259  1.0000
  H   H52       1.0  0.4314971645346475  0.11778500673484156  0.979210894626249  1.0000
  H   H53       1.0  0.9518292510147431  0.43600650069350866  0.40123284647283  1.0000
  H   H54       1.0  0.563998219465269  0.04816836103242384  0.09876204235166602  1.0000
  H   H55       1.0  0.0481710381823888  0.5639886437257998  0.5987661035421042  1.0000
  H   H56       1.0  0.43600927304025566  0.9518329136724472  0.9012373460214109  1.0000
  H   H57       1.0  0.1447675029563342  0.6907992640566292  0.2562148294085561  1.0000
  H   H58       1.0  0.30919755261360393  0.8552394425007106  0.24378186517190414  1.0000
  H   H59       1.0  0.8552335495385321  0.30920150719944656  0.7437824675804521  1.0000
  H   H60       1.0  0.6907969564527575  0.1447684538037634  0.756214208915516  1.0000
  H   H61       1.0  0.31039364396373503  0.6786926163878134  0.3312560643501642  1.0000
  H   H62       1.0  0.3212952016903969  0.6896114356672173  0.16874100759301316  1.0000
  H   H63       1.0  0.6896081940897788  0.32130607212197054  0.6687449162492884  1.0000
  H   H64       1.0  0.6786896923677334  0.31039111133772224  0.831252711403778  1.0000
  H   H65       1.0  0.8242027105205878  0.501983440131788  0.3660841401521894  1.0000
  H   H66       1.0  0.4980156608825085  0.17579646119121145  0.13391500533209927  1.0000
  H   H67       1.0  0.17579919282991344  0.4980106745231153  0.6339160711530243  1.0000
  H   H68       1.0  0.5019932778044165  0.8242067086541667  0.866095671709637  1.0000
  H   H69       1.0  0.6643706411869204  0.4816811900334768  0.274323604538914  1.0000
  H   H70       1.0  0.518314216254481  0.33563140432769956  0.22567005607428575  1.0000
  H   H71       1.0  0.3356320964163899  0.5183108905266565  0.7256765673054419  1.0000
  H   H72       1.0  0.4816818438256475  0.6643699868509285  0.7743370339141367  1.0000
  H   H73       1.0  0.8661921703171486  0.6030129624499877  0.07145935247088182  1.0000
  H   H74       1.0  0.3969885243853001  0.13381477475655854  0.4285407082519869  1.0000
  H   H75       1.0  0.13380639885115636  0.3969877450456636  0.9285422081074233  1.0000
  H   H76       1.0  0.6030181236655493  0.8661807920256664  0.5714665382658527  1.0000
  H   H77       1.0  0.02845087876697509  0.6126787481103195  0.16044360858037984  1.0000
  H   H78       1.0  0.38732639919533096  0.9715581329343479  0.3395562879814023  1.0000
  H   H79       1.0  0.9715492798361822  0.3873255440187434  0.8395568800230324  1.0000
  H   H80       1.0  0.6126754106389711  0.02843820783358806  0.6604489618100617  1.0000
  C   C1        1.0  0.2555444205450925  0.2529171838268596  0.6123237512837678  1.0000
  C   C2        1.0  0.7470829407588793  0.744459042822818  0.8876765141626637  1.0000
  C   C3        1.0  0.7444558968712515  0.7470803083342901  0.38767092953915505  1.0000
  C   C4        1.0  0.2529221213578126  0.2555399014656601  0.11232520187287781  1.0000
  C   C5        1.0  0.18738802284297407  0.18365969136730342  0.664417425183764  1.0000
  C   C6        1.0  0.8163417965591362  0.8126143722456475  0.8355853232928684  1.0000
  C   C7        1.0  0.8126091072165308  0.8163352621420116  0.3355758253000119  1.0000
  C   C8        1.0  0.18366238648270888  0.1873888809021551  0.16441774761847947  1.0000
  C   C9        1.0  0.21982231861966986  0.1812007046627072  0.7482756437138465  1.0000
  C   C10       1.0  0.8188079796810827  0.7801841639240691  0.7517258901298762  1.0000
  C   C11       1.0  0.7801780192716237  0.8187944884081233  0.25171958322978594  1.0000
  C   C12       1.0  0.1812011121609416  0.21981529303005942  0.2482765962720778  1.0000
  C   C13       1.0  0.32463176704408164  0.2456981210319285  0.7736151425312559  1.0000
  C   C14       1.0  0.754318213702554  0.6753714160462039  0.7263836532747592  1.0000
  C   C15       1.0  0.675368493190973  0.7543039530926875  0.22637968707402226  1.0000
  C   C16       1.0  0.24568686606004772  0.32462677269028023  0.27361741745184537  1.0000
  C   C17       1.0  0.388380239704226  0.31206185646244927  0.7174998767716051  1.0000
  C   C18       1.0  0.6879422580173014  0.6116246661254792  0.7824967365900551  1.0000
  C   C19       1.0  0.6116240735601579  0.6879368876991734  0.2824974607504346  1.0000
  C   C20       1.0  0.31205961249898445  0.3883740548186551  0.21750176196186297  1.0000
  C   C21       1.0  0.14339186129522122  0.11592267537847076  0.8042500753901863  1.0000
  C   C22       1.0  0.8840849143695025  0.8566150078258942  0.6957503028816919  1.0000
  C   C23       1.0  0.8566083484597087  0.8840847605873634  0.19574368677073295  1.0000
  C   C24       1.0  0.11591287914180978  0.14338238003189469  0.30425174408994593  1.0000
  C   C25       1.0  0.1539105826808296  0.1221995921604062  0.8878186032973547  1.0000
  C   C26       1.0  0.8777953401269085  0.8460942581830577  0.6121812504522455  1.0000
  C   C27       1.0  0.8460865378484569  0.8777961250094889  0.11217467198347464  1.0000
  C   C28       1.0  0.12220075241599912  0.1539071654299207  0.3878233574886424  1.0000
  C   C29       1.0  0.07330401266617059  0.05927223496060207  0.9440168704875519  1.0000
  C   C30       1.0  0.9407219924759856  0.9266951032389907  0.5559785985708033  1.0000
  C   C31       1.0  0.9266946295433842  0.9407285455123359  0.05597910548380723  1.0000
  C   C32       1.0  0.059272572728581  0.07330434414760839  0.4440209258202686  1.0000
  C   C33       1.0  0.9688504804798654  0.07028744014739627  0.9459925032158555  1.0000
  C   C34       1.0  0.9297113793845854  0.03114982644567724  0.5540062481578688  1.0000
  C   C35       1.0  0.0311465027542823  0.9297166448545012  0.054003526880158914  1.0000
  C   C36       1.0  0.0702840348896601  0.9688483748324898  0.4459914000337549  1.0000
  C   C37       1.0  0.1041533726234718  0.9893750565769965  0.9977419943532483  1.0000
  C   C38       1.0  0.010618443919952387  0.8958444714299392  0.5022548090339144  1.0000
  C   C39       1.0  0.8958468145703264  0.010626944570333217  0.002258419858982597  1.0000
  C   C40       1.0  0.989372894392396  0.10415626371629819  0.4977427884914223  1.0000
  C   C41       1.0  0.9332235024621909  0.14603795532229205  0.8916640359498305  1.0000
  C   C42       1.0  0.8539600984276773  0.06677957692577494  0.6083371199465547  1.0000
  C   C43       1.0  0.06677674824263849  0.8539648824629039  0.10833081845250803  1.0000
  C   C44       1.0  0.14603685941629857  0.9332206167959499  0.39166437077111743  1.0000
  C   C45       1.0  0.2147199022182633  0.9763191643765198  0.9941927169685274  1.0000
  C   C46       1.0  0.023677945971932998  0.7852786369751357  0.5058017688617725  1.0000
  C   C47       1.0  0.7852811298016532  0.023683905969882204  0.005804033899778494  1.0000
  C   C48       1.0  0.9763190524505134  0.21472159728952528  0.4941966192964815  1.0000
  C   C49       1.0  0.2239073253313109  0.5530456474674139  0.4087835527270941  1.0000
  C   C50       1.0  0.4469503412670974  0.7760918389885916  0.09121569196386761  1.0000
  C   C51       1.0  0.7760935725939362  0.4469596084490774  0.5912213391868733  1.0000
  C   C52       1.0  0.5530433882701331  0.22391041426193672  0.9087832761732388  1.0000
  C   C53       1.0  0.12227142206926797  0.48769897011826663  0.4299628360114341  1.0000
  C   C54       1.0  0.5123005995514305  0.877726181980911  0.0700318639693478  1.0000
  C   C55       1.0  0.8777311524772885  0.5123022257172777  0.5700413564689273  1.0000
  C   C56       1.0  0.4876947861321668  0.12227431027898919  0.92996585861345  1.0000
  C   C57       1.0  0.029712405269208392  0.4914557383956861  0.3865932504130712  1.0000
  C   C58       1.0  0.5085403950848146  0.9702845651855158  0.11340412708533174  1.0000
  C   C59       1.0  0.9702878175878524  0.5085401129240877  0.6134100679821091  1.0000
  C   C60       1.0  0.4914630433482828  0.029716172527940905  0.8865963524569909  1.0000
  C   C61       1.0  0.036015280975263395  0.5623288637339812  0.32159528455138553  1.0000
  C   C62       1.0  0.43767425960896134  0.9639856818348207  0.1784024685988754  1.0000
  C   C63       1.0  0.9639849295225317  0.4376692947847046  0.6784068672112086  1.0000
  C   C64       1.0  0.562337996657341  0.036015517676219105  0.8216039053926993  1.0000
  C   C65       1.0  0.1382343171585134  0.6324348439221977  0.30429930336185157  1.0000
  C   C66       1.0  0.3675684117966043  0.8617680965144671  0.19570066989459184  1.0000
  C   C67       1.0  0.8617650887202117  0.3675669246639328  0.6956992143844121  1.0000
  C   C68       1.0  0.6324293446369254  0.13823621294004337  0.8042978771792735  1.0000
  C   C69       1.0  0.23094114668398896  0.6271611375405469  0.34650288182330513  1.0000
  C   C70       1.0  0.37283146779947174  0.7690609811625959  0.15349328320047564  1.0000
  C   C71       1.0  0.7690567145819144  0.37283477164761064  0.653495392482917  1.0000
  C   C72       1.0  0.6271606189937486  0.2309445928340707  0.8465044980375256  1.0000
  C   C73       1.0  0.9392521730873682  0.5586952816823754  0.2701768374111283  1.0000
  C   C74       1.0  0.4413082385188858  0.06074725744456796  0.22982499277870974  1.0000
  C   C75       1.0  0.06074719787096681  0.44130335928415576  0.7298271657538538  1.0000
  C   C76       1.0  0.558706444635554  0.9392493103432002  0.7701856560075913  1.0000
  C   C77       1.0  0.8351928036424496  0.5219607365944015  0.301062195050129  1.0000
  C   C78       1.0  0.47803697132942347  0.16480403739155486  0.1989331902063612  1.0000
  C   C79       1.0  0.1648018268591045  0.47803413693731034  0.6989365600467112  1.0000
  C   C80       1.0  0.5219607367813737  0.8351955846878596  0.8010732747396435  1.0000
  C   C81       1.0  0.7444040619493536  0.5116710441299688  0.24977738948191336  1.0000
  C   C82       1.0  0.48832393577443867  0.25559427190928824  0.25021812660387616  1.0000
  C   C83       1.0  0.25559298553869075  0.48832460006263995  0.7502214704058761  1.0000
  C   C84       1.0  0.5116754041356373  0.7444035648537265  0.7497889543234638  1.0000
  C   C85       1.0  0.7554289947771551  0.5415944866061507  0.1669553223710737  1.0000
  C   C86       1.0  0.4584050018025608  0.24457031212178745  0.3330393178653993  1.0000
  C   C87       1.0  0.24457122346490215  0.45840831874469495  0.8330420140787994  1.0000
  C   C88       1.0  0.5416040374731709  0.7554267727647285  0.6669692992642171  1.0000
  C   C89       1.0  0.8586739620219247  0.5803945478567697  0.13604838572505432  1.0000
  C   C90       1.0  0.41960589447457863  0.1413295054879171  0.3639513776634687  1.0000
  C   C91       1.0  0.1413279194390995  0.4196026376576185  0.8639506837446336  1.0000
  C   C92       1.0  0.5803999260246328  0.8586688752668292  0.6360546920885215  1.0000
  C   C93       1.0  0.9490622812874818  0.5873593122024514  0.18662008592148996  1.0000
  C   C94       1.0  0.41264101296629  0.050943867928410144  0.31338080367739013  1.0000
  C   C95       1.0  0.05093950807186331  0.41263932765581035  0.8133846177492644  1.0000
  C   C96       1.0  0.5873648008317504  0.9490537329485843  0.686626482301307  1.0000
  C   C97       1.0  0.3237435205674474  0.5378963727497775  0.4474952966278282  1.0000
  C   C98       1.0  0.4620987709537586  0.6762633593804351  0.052499936800728605  1.0000
  C   C99       1.0  0.6762606529441796  0.4621076440586052  0.55250779908058  1.0000
  C   C100      1.0  0.537889363398925  0.32373945962037  0.9474932766083912  1.0000
  C   C101      1.0  0.6590771533647911  0.5326331025765114  0.11095484243391952  1.0000
  C   C102      1.0  0.4673656283404597  0.34092472566853615  0.3890425809185346  1.0000
  C   C103      1.0  0.34092152450801194  0.4673615280688708  0.8890440377203819  1.0000
  C   C104      1.0  0.5326393550768954  0.659077232719312  0.6109623368646668  1.0000
  N   N1        1.0  0.35388046166321624  0.31746269173669356  0.6383264713321495  1.0000
  N   N2        1.0  0.6825385093926642  0.6461190697694192  0.8616721254767727  1.0000
  N   N3        1.0  0.6461149607267203  0.6825355176500594  0.3616705563475834  1.0000
  N   N4        1.0  0.3174641247927923  0.35388063928790814  0.13832891485005663  1.0000
  O   O1        1.0  0.3124161486968832  0.4749973955506946  0.5077442846979923  1.0000
  O   O2        1.0  0.5249897296475723  0.6875798947043422  0.992243893880016  1.0000
  O   O3        1.0  0.6875831961284148  0.5250066315828191  0.4922567894869872  1.0000
  O   O4        1.0  0.47498813718981847  0.31241360521870826  0.0077387388683761065  1.0000
  O   O5        1.0  0.4119295875139102  0.5866121719509679  0.41472393952478387  1.0000
  O   O6        1.0  0.4133901832080156  0.5880760663071527  0.08528041775870322  1.0000
  O   O7        1.0  0.5880738685651039  0.41338781021049437  0.5852758947085945  1.0000
  O   O8        1.0  0.586621160106148  0.4119301813980271  0.914729197441389  1.0000
  O   O9        1.0  0.6765822502071259  0.5804877175852852  0.04268782052771771  1.0000
  O   O10       1.0  0.41952374893576666  0.3234165550389534  0.4573120823026359  1.0000
  O   O11       1.0  0.3234087881247588  0.41952586194479113  0.9573207472496396  1.0000
  O   O12       1.0  0.5804772425056796  0.6765864747645124  0.5426877711250881  1.0000
  O   O13       1.0  0.5669989304939663  0.4783756617000208  0.13524556835054827  1.0000
  O   O14       1.0  0.5216215512043191  0.4330039031924002  0.3647528298599668  1.0000
  O   O15       1.0  0.4330039825253564  0.5216049963857968  0.8647517494903953  1.0000
  O   O16       1.0  0.47838017568708585  0.5669977669824106  0.6352538345346732  1.0000
