data_image0
_chemical_formula_structural       Zn4H96C136N24O32
_chemical_formula_sum              "Zn4 H96 C136 N24 O32"
_cell_length_a       11.502405608433971
_cell_length_b       14.746105610251385
_cell_length_c       21.932384554219155
_cell_angle_alpha    89.99954042080991
_cell_angle_beta     103.8596682500214
_cell_angle_gamma    90.00057713327257

_space_group_name_H-M_alt    "P 1"
_space_group_IT_number       1

loop_
  _space_group_symop_operation_xyz
  'x, y, z'

loop_
  _atom_site_type_symbol
  _atom_site_label
  _atom_site_symmetry_multiplicity
  _atom_site_fract_x
  _atom_site_fract_y
  _atom_site_fract_z
  _atom_site_occupancy
  Zn  Zn1       1.0  0.5332727629981449  0.15221549264027345  0.5144382628617592  1.0000
  Zn  Zn2       1.0  0.46672792191844786  0.1522131168989631  0.9855625203046119  1.0000
  Zn  Zn3       1.0  0.46672612460736224  0.8477834590905714  0.48555972083472215  1.0000
  Zn  Zn4       1.0  0.5332772923629392  0.8477885474164638  0.014438958750083903  1.0000
  H   H1        1.0  0.5489742634244265  0.532005082294191  0.8975808879057541  1.0000
  H   H2        1.0  0.451027142885664  0.5320152659843203  0.6024211371552468  1.0000
  H   H3        1.0  0.4510237287843922  0.4679945475789395  0.10241698829607772  1.0000
  H   H4        1.0  0.5489789766019939  0.46798572018614226  0.39758090654588335  1.0000
  H   H5        1.0  0.020254724771355405  0.7718841057731537  0.4188027589378295  1.0000
  H   H6        1.0  0.9797514472022756  0.7718857870647896  0.08119757032876869  1.0000
  H   H7        1.0  0.9797387708159704  0.22811552409101668  0.5811936654940199  1.0000
  H   H8        1.0  0.020238506063108702  0.228121302373907  0.9188002527220649  1.0000
  H   H9        1.0  0.15535407732826204  0.1118855203269504  0.4945652894139628  1.0000
  H   H10       1.0  0.844645612129149  0.1118870447192322  0.005436888696479487  1.0000
  H   H11       1.0  0.8446430685242349  0.8881134313848023  0.505434765054858  1.0000
  H   H12       1.0  0.1553569453758215  0.8881139414344402  0.9945656393350721  1.0000
  H   H13       1.0  0.9364520879550399  0.0938738892007436  0.4534858501416822  1.0000
  H   H14       1.0  0.0635464856766674  0.09387628362677698  0.046515378644038215  1.0000
  H   H15       1.0  0.0635450088495375  0.9061250625243743  0.5465119185682286  1.0000
  H   H16       1.0  0.9364551568200099  0.9061267369648291  0.9534861275865725  1.0000
  H   H17       1.0  0.7587332378523043  0.2268290512654403  0.3265771952346982  1.0000
  H   H18       1.0  0.24126859906652237  0.22682861632441842  0.17342325641629233  1.0000
  H   H19       1.0  0.24126572823743686  0.7731712567343222  0.6734244456733054  1.0000
  H   H20       1.0  0.7587348342348647  0.7731750824180637  0.826578464799525  1.0000
  H   H21       1.0  0.66672594666867  0.9722666797930941  0.471851743379368  1.0000
  H   H22       1.0  0.33326911663163367  0.9722666522544685  0.028150281572770625  1.0000
  H   H23       1.0  0.3332756271382351  0.0277322719463271  0.5281465627969624  1.0000
  H   H24       1.0  0.6667307154336015  0.027734333901314294  0.9718500953718064  1.0000
  H   H25       1.0  0.6363191469525874  0.24112070451027987  0.40342812199352823  1.0000
  H   H26       1.0  0.3636801042585773  0.2411228155936342  0.09656920675609373  1.0000
  H   H27       1.0  0.3636770446343788  0.7588768909243486  0.5965690820740407  1.0000
  H   H28       1.0  0.6363223355502896  0.7588815613178638  0.9034278354472608  1.0000
  H   H29       1.0  0.9377652820118173  0.024182457125299095  0.3081815535513358  1.0000
  H   H30       1.0  0.062232465575434014  0.0241831178814707  0.19181766989822793  1.0000
  H   H31       1.0  0.0622309684326439  0.9758151382932994  0.691818393426928  1.0000
  H   H32       1.0  0.9377664514852809  0.9758205808574019  0.8081816852440442  1.0000
  H   H33       1.0  0.8900370229767772  0.9265736387884473  0.21194849768849622  1.0000
  H   H34       1.0  0.10995835761153219  0.9265708184355502  0.288050618556376  1.0000
  H   H35       1.0  0.10996011307368998  0.07342666921627482  0.7880510996258181  1.0000
  H   H36       1.0  0.8900387293834555  0.07342813329224641  0.7119466930017496  1.0000
  H   H37       1.0  0.5570319930240472  0.066405961260628  0.1460065647197197  1.0000
  H   H38       1.0  0.4429724047623296  0.06639478826757989  0.3539891269447679  1.0000
  H   H39       1.0  0.44297135202132426  0.9336031626671115  0.8539910421191481  1.0000
  H   H40       1.0  0.5570273095425335  0.9335980601784826  0.6460057641947972  1.0000
  H   H41       1.0  0.6046616945902414  0.16641911101709886  0.24063055962555074  1.0000
  H   H42       1.0  0.39534923972748  0.1664147915461029  0.2593676603181977  1.0000
  H   H43       1.0  0.39534702283524586  0.8335859440568925  0.7593676921812076  1.0000
  H   H44       1.0  0.6046585724501554  0.8335834820762001  0.740630026857133  1.0000
  H   H45       1.0  0.9547035113446041  0.24741038733574783  0.2892186130762227  1.0000
  H   H46       1.0  0.0452976792574944  0.24741069084895878  0.21078256256988948  1.0000
  H   H47       1.0  0.04529631092616881  0.7525933114033097  0.7107813067111124  1.0000
  H   H48       1.0  0.9547048292222372  0.7525943641889795  0.7892176796945665  1.0000
  H   H49       1.0  0.17577833228108375  0.26343438204924746  0.3305452279931487  1.0000
  H   H50       1.0  0.8242239323636157  0.2634331233452087  0.16945599067322095  1.0000
  H   H51       1.0  0.8242206632600856  0.7365699948133865  0.6694577843620169  1.0000
  H   H52       1.0  0.17577858590301076  0.7365678628191576  0.8305447087512052  1.0000
  H   H53       1.0  0.43161677631711376  0.36821662124527416  0.4994596839430302  1.0000
  H   H54       1.0  0.5683822285860031  0.36821536723552134  0.0005428614007456966  1.0000
  H   H55       1.0  0.5683866079174466  0.6317836867848212  0.5005397515206982  1.0000
  H   H56       1.0  0.4316202504422861  0.6317856189395387  0.9994560094165552  1.0000
  H   H57       1.0  0.7577150105633593  0.25340939040322036  0.5947678499416968  1.0000
  H   H58       1.0  0.24228679277219106  0.25341096100147803  0.9052320688883814  1.0000
  H   H59       1.0  0.24228834420843268  0.7465848143285427  0.40523021407896936  1.0000
  H   H60       1.0  0.7577139641146997  0.7465886688588484  0.09476978700755721  1.0000
  H   H61       1.0  0.8625535151973693  0.39015682540448887  0.6395989783325791  1.0000
  H   H62       1.0  0.13744989121980208  0.3901608212512074  0.8604040474725921  1.0000
  H   H63       1.0  0.13745166962880975  0.6098400919029031  0.3604011292763262  1.0000
  H   H64       1.0  0.8625518199137118  0.6098367741604919  0.1396006588314052  1.0000
  H   H65       1.0  0.7093467750861393  0.616982216075229  0.6397033255196121  1.0000
  H   H66       1.0  0.2906547028251296  0.6169880882285524  0.8602991644355884  1.0000
  H   H67       1.0  0.29065477909781373  0.3830160575243866  0.36029406635451283  1.0000
  H   H68       1.0  0.7093398647389506  0.38301221973551947  0.13970559622025291  1.0000
  H   H69       1.0  0.6373631054984584  0.6693274181376055  0.7309075333587601  1.0000
  H   H70       1.0  0.36264790023042076  0.6693383251752536  0.7690953637445901  1.0000
  H   H71       1.0  0.36264206948033006  0.33066271772095496  0.2690921171120024  1.0000
  H   H72       1.0  0.6373510462325881  0.3306606265395473  0.2309053628625791  1.0000
  H   H73       1.0  0.7193698881645147  0.40892557380430344  0.8203452970448739  1.0000
  H   H74       1.0  0.2806445115440823  0.4089287632160605  0.6796607717681412  1.0000
  H   H75       1.0  0.2806416135128416  0.5910713435097463  0.17965784877592486  1.0000
  H   H76       1.0  0.7193508631153095  0.591068154049182  0.32033998202177133  1.0000
  H   H77       1.0  0.7979352171955015  0.35659734404464416  0.7303274622645831  1.0000
  H   H78       1.0  0.2020741221037028  0.35660020825715577  0.7696782796371482  1.0000
  H   H79       1.0  0.2020744936960455  0.6434022858442887  0.26967546856418784  1.0000
  H   H80       1.0  0.797921252601043  0.6434048467498811  0.23032247413638635  1.0000
  H   H81       1.0  0.0177046707141812  0.5108137562693571  0.6566361998165746  1.0000
  H   H82       1.0  0.9823009370529762  0.5108157387096453  0.8433646193883109  1.0000
  H   H83       1.0  0.9823004945041732  0.48918519547883216  0.343362993484668  1.0000
  H   H84       1.0  0.017698885221569996  0.4891886381745608  0.15663530039766022  1.0000
  H   H85       1.0  0.12151397198390161  0.6142987854964943  0.5972832675506582  1.0000
  H   H86       1.0  0.8784856361195919  0.6142972185014343  0.9027167324714258  1.0000
  H   H87       1.0  0.8784893926466141  0.3857042351195474  0.4027152536040504  1.0000
  H   H88       1.0  0.12150522231803508  0.3857030894859507  0.09728165523812045  1.0000
  H   H89       1.0  0.8044458177255294  0.6259718692248768  0.44648609339267153  1.0000
  H   H90       1.0  0.1955533452831091  0.6259765682289141  0.05351372086730781  1.0000
  H   H91       1.0  0.19555216463211877  0.37402030105428  0.553511325672389  1.0000
  H   H92       1.0  0.8044322192208284  0.37402238342962585  0.9464876790995123  1.0000
  H   H93       1.0  0.702526121327402  0.5196813720466977  0.5039583687538  1.0000
  H   H94       1.0  0.29747871937596665  0.519691112625189  0.9960436787166744  1.0000
  H   H95       1.0  0.29748081502356877  0.48030876382560445  0.496040125248179  1.0000
  H   H96       1.0  0.7025122469746422  0.4803105516230843  0.003959737659734205  1.0000
  C   C1        1.0  0.3116963020775856  0.2002792858446796  0.4397229198003459  1.0000
  C   C2        1.0  0.6883035166980919  0.20027758204280133  0.060280623758096424  1.0000
  C   C3        1.0  0.688302654198786  0.7997203440125984  0.5602782639572439  1.0000
  C   C4        1.0  0.31169729904252114  0.7997213696563391  0.9397239750498941  1.0000
  C   C5        1.0  0.17925331037807274  0.18946317656750017  0.415259905677438  1.0000
  C   C6        1.0  0.820745462980412  0.1894615391863184  0.08474220245330608  1.0000
  C   C7        1.0  0.8207456360962764  0.8105378095827547  0.5847408209256386  1.0000
  C   C8        1.0  0.1792543985097907  0.8105387688163008  0.9152595459479826  1.0000
  C   C9        1.0  0.1111691160233406  0.14166364628255215  0.44956413007312096  1.0000
  C   C10       1.0  0.8888291440445711  0.1416629476749307  0.05043908469153992  1.0000
  C   C11       1.0  0.8888280396425117  0.858335983571678  0.5504363815461134  1.0000
  C   C12       1.0  0.11117251806370379  0.8583387166210343  0.949563335845369  1.0000
  C   C13       1.0  0.9878796259962499  0.132244380185341  0.4266129239794411  1.0000
  C   C14       1.0  0.0121184996411401  0.13224605409465076  0.07338895722564592  1.0000
  C   C15       1.0  0.012119291041791803  0.867755249682631  0.5733864311710166  1.0000
  C   C16       1.0  0.9878822376492593  0.8677576446419193  0.9266119843585372  1.0000
  C   C17       1.0  0.9308066372664429  0.1705773321004784  0.3689250792778014  1.0000
  C   C18       1.0  0.06919368692386031  0.17057876768475916  0.13107594836945682  1.0000
  C   C19       1.0  0.0691922699733567  0.829424332205612  0.6310738187167857  1.0000
  C   C20       1.0  0.9308088313541134  0.8294242529150608  0.8689247510508766  1.0000
  C   C21       1.0  0.7982633997187492  0.15934961874516762  0.3393326339635864  1.0000
  C   C22       1.0  0.201739485491899  0.15935038255260986  0.16066876134212293  1.0000
  C   C23       1.0  0.20173642253311644  0.8406506892681376  0.6606672858305773  1.0000
  C   C24       1.0  0.7982657091854435  0.8406539943487631  0.8393318034035533  1.0000
  C   C25       1.0  0.6772496208120345  0.032993799394454  0.4455184315965114  1.0000
  C   C26       1.0  0.3227446728409191  0.0329947336050722  0.05448169788028421  1.0000
  C   C27       1.0  0.3227483812025937  0.9670051523308487  0.5544799017584624  1.0000
  C   C28       1.0  0.6772542442046757  0.9670062525532046  0.9455176572674447  1.0000
  C   C29       1.0  0.6608089631985549  0.1705027796254797  0.41245010931058357  1.0000
  C   C30       1.0  0.3391895203112298  0.17050412823441255  0.08754841789134823  1.0000
  C   C31       1.0  0.3391890093835385  0.8294954939626962  0.587546852590407  1.0000
  C   C32       1.0  0.6608111777408396  0.8294995705128514  0.91245069508571  1.0000
  C   C33       1.0  0.7737987884651361  0.10100701019349151  0.2805339539111813  1.0000
  C   C34       1.0  0.22620427300542192  0.10100523331601609  0.21946458358515042  1.0000
  C   C35       1.0  0.22620545195424308  0.8989973667210548  0.7194637604305215  1.0000
  C   C36       1.0  0.7737999772084123  0.8989964310152558  0.7805335879137874  1.0000
  C   C37       1.0  0.8544496948428774  0.0335739745902615  0.2726467218238113  1.0000
  C   C38       1.0  0.1455508632605174  0.03357283034809911  0.22735370062390106  1.0000
  C   C39       1.0  0.1455500783799692  0.9664297241621539  0.7273509122046136  1.0000
  C   C40       1.0  0.8544525013662181  0.9664295121227864  0.7726448205321789  1.0000
  C   C41       1.0  0.8282647421226769  0.9791886015380411  0.21931752409817315  1.0000
  C   C42       1.0  0.17173125449580343  0.9791856730339177  0.2806827518940409  1.0000
  C   C43       1.0  0.17173595592939245  0.0208150972092227  0.780681588878885  1.0000
  C   C44       1.0  0.8282667180900704  0.020813278699407103  0.7193142100055853  1.0000
  C   C45       1.0  0.7207741003508017  0.9903168132635117  0.17383976341773183  1.0000
  C   C46       1.0  0.27922291573778313  0.9903141851332576  0.3261605752902811  1.0000
  C   C47       1.0  0.27922928390643875  0.0096875636374776  0.8261596720378181  1.0000
  C   C48       1.0  0.7207768770739945  0.009684088452623002  0.6738379730526278  1.0000
  C   C49       1.0  0.6927881222306597  0.9279405648113792  0.11821006055785692  1.0000
  C   C50       1.0  0.3072090545911905  0.9279381736656872  0.38178880802080084  1.0000
  C   C51       1.0  0.3072134810276737  0.07206245579092752  0.8817896170656288  1.0000
  C   C52       1.0  0.6927916041998543  0.07206145622136971  0.6182084763573173  1.0000
  C   C53       1.0  0.6400859452954107  0.05794214409458929  0.18175119487482763  1.0000
  C   C54       1.0  0.35991660660973684  0.05793888392550879  0.3182461444503915  1.0000
  C   C55       1.0  0.3599164847038664  0.9420622328195803  0.8182453901767487  1.0000
  C   C56       1.0  0.6400849475742162  0.9420593896741065  0.6817512474237406  1.0000
  C   C57       1.0  0.6672686134296129  0.11342234802126679  0.23457462415827732  1.0000
  C   C58       1.0  0.33273545242856534  0.1134201801651997  0.26542259942085883  1.0000
  C   C59       1.0  0.33273472177593527  0.8865813507479389  0.7654225255397196  1.0000
  C   C60       1.0  0.6672678827580754  0.8865801278782611  0.7345745502839665  1.0000
  C   C61       1.0  0.9989985159463187  0.2185274108877948  0.3346447254160268  1.0000
  C   C62       1.0  0.0010023526379754  0.2185272289871918  0.165356566448267  1.0000
  C   C63       1.0  0.0009995351464624016  0.7814769659853484  0.6653558936869431  1.0000
  C   C64       1.0  0.9990001558304157  0.7814757916152997  0.8346436758202885  1.0000
  C   C65       1.0  0.12195494552150168  0.2275859036802217  0.3573908857622144  1.0000
  C   C66       1.0  0.8780451384665611  0.22758606201577442  0.14261071931099423  1.0000
  C   C67       1.0  0.8780431349849139  0.7724157606043034  0.6426111048015601  1.0000
  C   C68       1.0  0.12195645499731  0.7724196711697998  0.8573885011552566  1.0000
  C   C69       1.0  0.5215386896629397  0.36272517761504014  0.5290469323940955  1.0000
  C   C70       1.0  0.47846082931049244  0.362727813816214  0.9709557738181261  1.0000
  C   C71       1.0  0.4784646749373351  0.6372724178398028  0.47095158877152715  1.0000
  C   C72       1.0  0.5215408033652551  0.6372731723426238  0.029045275264799435  1.0000
  C   C73       1.0  0.6885529667012945  0.30338988398425926  0.5762354534557872  1.0000
  C   C74       1.0  0.31144760306932534  0.3033924532457419  0.9237640492778781  1.0000
  C   C75       1.0  0.31144950248717856  0.6966056770322666  0.4237629602206497  1.0000
  C   C76       1.0  0.688553124392598  0.6966078547677552  0.07623643516134848  1.0000
  C   C77       1.0  0.7957949001981177  0.4436046763544539  0.6224444276249417  1.0000
  C   C78       1.0  0.2042081674812266  0.4436110247339755  0.8775564470155504  1.0000
  C   C79       1.0  0.20421027481091863  0.556390884665312  0.37755522283490717  1.0000
  C   C80       1.0  0.7957943409758245  0.5563899614330624  0.12244379525709098  1.0000
  C   C81       1.0  0.7602589635559127  0.48320651984546703  0.679466609675295  1.0000
  C   C82       1.0  0.2397464149180877  0.48321246587266126  0.8205379778198392  1.0000
  C   C83       1.0  0.23974085867705236  0.5167903974420938  0.3205333101256899  1.0000
  C   C84       1.0  0.7602606686333501  0.5167878421368002  0.17946737343840624  1.0000
  C   C85       1.0  0.7156727607570303  0.5714059026150764  0.67968030902491  1.0000
  C   C86       1.0  0.2843317808280332  0.5714135558053214  0.8203223371346838  1.0000
  C   C87       1.0  0.28433238482325157  0.42858965841270447  0.32031796997959117  1.0000
  C   C88       1.0  0.7156672539325727  0.4285874303208814  0.17968250383442813  1.0000
  C   C89       1.0  0.6745451452096347  0.6013523271769259  0.7310437879509808  1.0000
  C   C90       1.0  0.3254570146181237  0.6013602327429337  0.7689570437766806  1.0000
  C   C91       1.0  0.3254564383728322  0.3986405212534762  0.26895497538940566  1.0000
  C   C92       1.0  0.6745383600601685  0.3986400752480534  0.23104371000640372  1.0000
  C   C93       1.0  0.6742940738090438  0.5428369164308863  0.7814978920131709  1.0000
  C   C94       1.0  0.32571107408043787  0.5428427097932058  0.7185063480525786  1.0000
  C   C95       1.0  0.32570214719911655  0.4571593227054294  0.21850068351247393  1.0000
  C   C96       1.0  0.6742888070175894  0.4571555637686158  0.2814963146563657  1.0000
  C   C97       1.0  0.6198564180958783  0.5753453241683815  0.8323906550101087  1.0000
  C   C98       1.0  0.38015094188509124  0.5753507901534219  0.6676164121486183  1.0000
  C   C99       1.0  0.3801434041219664  0.4246488805385766  0.16760926479633304  1.0000
  C   C100      1.0  0.6198525992914696  0.4246474833984593  0.332390337747711  1.0000
  C   C101      1.0  0.7198545923159259  0.4545581940046117  0.7813651380182451  1.0000
  C   C102      1.0  0.28015046676380706  0.454564986137875  0.718639564748216  1.0000
  C   C103      1.0  0.28014616455206454  0.5454380451299629  0.2186367178845074  1.0000
  C   C104      1.0  0.7198485091392968  0.5454360000043648  0.28136253331020106  1.0000
  C   C105      1.0  0.763878997821557  0.42568799204202873  0.7308564605611282  1.0000
  C   C106      1.0  0.23612842557785998  0.425693163024718  0.7691486808542437  1.0000
  C   C107      1.0  0.23611995844347433  0.5743096033798024  0.26914472320054733  1.0000
  C   C108      1.0  0.7638750273426922  0.5743105357124209  0.23085395466513606  1.0000
  C   C109      1.0  0.852215819708576  0.5089979809446845  0.5844145058585469  1.0000
  C   C110      1.0  0.1477880162411083  0.5089980123043816  0.9155879342770066  1.0000
  C   C111      1.0  0.1477876135663507  0.491000970781748  0.41558721536682  1.0000
  C   C112      1.0  0.8522064728387378  0.4910009393907798  0.08441316916730564  1.0000
  C   C113      1.0  0.9706959600034396  0.53580265458649  0.6104445736973363  1.0000
  C   C114      1.0  0.0293090701912391  0.5358027472058566  0.8895578660767004  1.0000
  C   C115      1.0  0.029306509200154103  0.46419561901063827  0.3895538399736368  1.0000
  C   C116      1.0  0.970685438511559  0.4641968826291034  0.1104441516698103  1.0000
  C   C117      1.0  0.029270242652558013  0.5935344151916978  0.5776608132655172  1.0000
  C   C118      1.0  0.9707300489759662  0.5935340142551556  0.9223402921012112  1.0000
  C   C119      1.0  0.9707313311505602  0.40646385840256727  0.4223374929121705  1.0000
  C   C120      1.0  0.029259943474819704  0.4064635811407485  0.07765935957584702  1.0000
  C   C121      1.0  0.9699311367548589  0.6268652059493789  0.5184655161689379  1.0000
  C   C122      1.0  0.030069526473965907  0.6268642135941747  0.9815354550850018  1.0000
  C   C123      1.0  0.030066865255989207  0.37313306763077486  0.48153281718740015  1.0000
  C   C124      1.0  0.9699204954017945  0.37313270364855816  0.018465568048768036  1.0000
  C   C125      1.0  0.037405775995260605  0.6890286755004948  0.4864196549644575  1.0000
  C   C126      1.0  0.9625834138530108  0.6890262776980052  0.013581815729523305  1.0000
  C   C127      1.0  0.9625805956228886  0.31097027618496037  0.5135777381296195  1.0000
  C   C128      1.0  0.037394967843155796  0.31097538652359447  0.986417809982008  1.0000
  C   C129      1.0  0.8514275815413724  0.6005677848428093  0.4924262523593087  1.0000
  C   C130      1.0  0.1485758046627055  0.6005713054010614  0.007575573043894209  1.0000
  C   C131      1.0  0.14857402167159964  0.3994270980176963  0.5075734252805548  1.0000
  C   C132      1.0  0.8514169034295733  0.3994283244308506  0.9924257725642749  1.0000
  C   C133      1.0  0.7936390083383316  0.5413429153812926  0.5250286606097065  1.0000
  C   C134      1.0  0.20636699867264235  0.5413481251750978  0.9749747786583856  1.0000
  C   C135      1.0  0.20636708167899798  0.4586506112005395  0.47497201165107583  1.0000
  C   C136      1.0  0.7936257388483906  0.4586515046487989  0.02502793840512397  1.0000
  N   N1        1.0  0.7324885721919685  0.12399128824412739  0.3837808900026546  1.0000
  N   N2        1.0  0.26750939276946883  0.12399377124950209  0.11621782434652063  1.0000
  N   N3        1.0  0.26751031540597847  0.8760063071964056  0.6162170936965482  1.0000
  N   N4        1.0  0.7324948770748848  0.8760099275118803  0.883781261451894  1.0000
  N   N5        1.0  0.7440195566459594  0.0360574875746522  0.4040847051930642  1.0000
  N   N6        1.0  0.2559765619705558  0.0360594431508616  0.09591562694080123  1.0000
  N   N7        1.0  0.255981131566287  0.9639407860140848  0.59591395064313  1.0000
  N   N8        1.0  0.744025051101147  0.9639442555939225  0.9040845078331047  1.0000
  N   N9        1.0  0.6240476133601617  0.11449575074941269  0.4518461236821026  1.0000
  N   N10       1.0  0.37594847454825964  0.1144971756631463  0.048153328193649335  1.0000
  N   N11       1.0  0.3759494834406355  0.8855025228305564  0.5481516450291724  1.0000
  N   N12       1.0  0.6240522136866602  0.8855051667964914  0.9518453276343595  1.0000
  N   N13       1.0  0.5806713031419974  0.2819351938445891  0.5409287621834055  1.0000
  N   N14       1.0  0.4193290568547283  0.28193683086802673  0.959072198335278  1.0000
  N   N15       1.0  0.4193302608364177  0.718060367171752  0.4590690868479613  1.0000
  N   N16       1.0  0.580674366618169  0.7180634771513824  0.04092906573557542  1.0000
  N   N17       1.0  0.5867290942553468  0.43287125195704595  0.5557447432623449  1.0000
  N   N18       1.0  0.41327032118556417  0.43287437365859915  0.9442580303587748  1.0000
  N   N19       1.0  0.41327250896141277  0.5671243090486087  0.44425493437614716  1.0000
  N   N20       1.0  0.5867268541070204  0.5671266124805924  0.05574339556129363  1.0000
  N   N21       1.0  0.693417725151157  0.3933118984020681  0.5849141379440967  1.0000
  N   N22       1.0  0.30658391582746697  0.39331521072588765  0.9150882030289438  1.0000
  N   N23       1.0  0.30658657408035594  0.6066843407546472  0.4150863193246651  1.0000
  N   N24       1.0  0.6934150698814391  0.6066850972685243  0.08491435218262211  1.0000
  O   O1        1.0  0.35913021351295527  0.14758256650372914  0.48684688042874313  1.0000
  O   O2        1.0  0.6408690177426946  0.147579694756331  0.013156875169236986  1.0000
  O   O3        1.0  0.6408670010179663  0.8524184196247618  0.5131563740984505  1.0000
  O   O4        1.0  0.35913180778482007  0.8524151880692371  0.9868481807987239  1.0000
  O   O5        1.0  0.3691279167106173  0.25679016461349846  0.41595776206831664  1.0000
  O   O6        1.0  0.6308725026772207  0.25678908655626737  0.0840441826492011  1.0000
  O   O7        1.0  0.6308719545853877  0.7432094652412928  0.5840444434861141  1.0000
  O   O8        1.0  0.3691291496214717  0.7432125777423694  0.9159577807359229  1.0000
  O   O9        1.0  0.5823110022157961  0.9302819601450378  0.08588795664210383  1.0000
  O   O10       1.0  0.41768619088814773  0.9302773361597757  0.41411044536812375  1.0000
  O   O11       1.0  0.41769064027331376  0.06971970415627031  0.9141135495912354  1.0000
  O   O12       1.0  0.582313562681513  0.0697202592916426  0.585886274369017  1.0000
  O   O13       1.0  0.77323965348792  0.8775635774212276  0.1068954567047982  1.0000
  O   O14       1.0  0.2267578570678808  0.8775583891119041  0.393103722075992  1.0000
  O   O15       1.0  0.22676196938958526  0.122439443175729  0.8931051352222568  1.0000
  O   O16       1.0  0.773245507536174  0.12243988448808808  0.6068947990882665  1.0000
  O   O17       1.0  0.5959190528515209  0.6550699650514034  0.8397889336679614  1.0000
  O   O18       1.0  0.4040882907260367  0.6550682462049263  0.6602172480699979  1.0000
  O   O19       1.0  0.40408342620701626  0.344936446284855  0.16020993713841855  1.0000
  O   O20       1.0  0.5959080283779554  0.3449279929046582  0.3397858989734673  1.0000
  O   O21       1.0  0.5955377205010137  0.5074579347740098  0.8691292594600387  1.0000
  O   O22       1.0  0.4044724641814028  0.5074586013423428  0.6308785108417682  1.0000
  O   O23       1.0  0.40446573242331857  0.49254644210827786  0.13087337605797705  1.0000
  O   O24       1.0  0.5955346095415449  0.4925383159440385  0.3691263832715209  1.0000
  O   O25       1.0  0.14420733559248333  0.7062789571038408  0.5056038536266385  1.0000
  O   O26       1.0  0.8557978534471433  0.7062727347027645  0.9943999709824285  1.0000
  O   O27       1.0  0.8557870750220359  0.2937220290481477  0.4943935925993302  1.0000
  O   O28       1.0  0.14419669445240396  0.29371943552485646  0.005603875386214002  1.0000
  O   O29       1.0  0.9697445894873623  0.726304850462192  0.4325815567166203  1.0000
  O   O30       1.0  0.0302583390806603  0.7263074150315418  0.06741634770789771  1.0000
  O   O31       1.0  0.0302471152990265  0.2736947793962655  0.5674146527286581  1.0000
  O   O32       1.0  0.9697333853702687  0.2737003525633667  0.9325807760245726  1.0000
