data_image0
_chemical_formula_structural       Zn6H18C30N24Cl6O12
_chemical_formula_sum              "Zn6 H18 C30 N24 Cl6 O12"
_cell_length_a       12.093979071965952
_cell_length_b       12.093980360267867
_cell_length_c       12.093982464446952
_cell_angle_alpha    95.78632477712024
_cell_angle_beta     95.7860983912017
_cell_angle_gamma    95.78652605573289

_space_group_name_H-M_alt    "P 1"
_space_group_IT_number       1

loop_
  _space_group_symop_operation_xyz
  'x, y, z'

loop_
  _atom_site_type_symbol
  _atom_site_label
  _atom_site_symmetry_multiplicity
  _atom_site_fract_x
  _atom_site_fract_y
  _atom_site_fract_z
  _atom_site_occupancy
  Zn  Zn1       1.0  0.9516802110123661  0.6759876464666306  0.2402848507441178  1.0000
  Zn  Zn2       1.0  0.24028565571887833  0.9516786327038177  0.6759845375215647  1.0000
  Zn  Zn3       1.0  0.6759862310214827  0.2402837254614099  0.9516808530609852  1.0000
  Zn  Zn4       1.0  0.04831999278110999  0.3240148656188282  0.7597141894518771  1.0000
  Zn  Zn5       1.0  0.759714548175438  0.04831972393187559  0.3240140836512708  1.0000
  Zn  Zn6       1.0  0.32401564562336915  0.7597123254621682  0.04831935799603571  1.0000
  H   H1        1.0  0.8710260639533727  0.30731331300163583  0.37393504175951614  1.0000
  H   H2        1.0  0.37393794591332596  0.871019318748523  0.30731064697911137  1.0000
  H   H3        1.0  0.30731744139325196  0.3739351385704951  0.8710244754540711  1.0000
  H   H4        1.0  0.12897915805779547  0.6926897618943074  0.6260637343569755  1.0000
  H   H5        1.0  0.6260614216744782  0.12897561970927277  0.6926883720329471  1.0000
  H   H6        1.0  0.6926911260988077  0.626064155991166  0.12897756423541304  1.0000
  H   H7        1.0  0.946711802696143  0.40196127741970866  0.4878064472644823  1.0000
  H   H8        1.0  0.4878065735684202  0.9467084425157847  0.40196040985203035  1.0000
  H   H9        1.0  0.40196091130950856  0.4878073186221456  0.9467103094137599  1.0000
  H   H10       1.0  0.05328923748268008  0.598039666264718  0.5121933459712906  1.0000
  H   H11       1.0  0.512190284777148  0.053289538847565196  0.5980411435517752  1.0000
  H   H12       1.0  0.5980401288491491  0.512194456152237  0.053289567626634886  1.0000
  H   H13       1.0  0.6961870325884332  0.08638120603347228  0.10097873414092357  1.0000
  H   H14       1.0  0.10097777889209417  0.6961935557989204  0.08637836585305789  1.0000
  H   H15       1.0  0.08637880190078559  0.10097455889379596  0.696192911654137  1.0000
  H   H16       1.0  0.303810662083812  0.9136193624178334  0.8990223376190228  1.0000
  H   H17       1.0  0.8990224249022984  0.30380978739610504  0.9136199312941783  1.0000
  H   H18       1.0  0.9136205656246758  0.899021210614741  0.30380784486933265  1.0000
  C   C1        1.0  0.8440233766131011  0.4781332375551555  0.05008002049437009  1.0000
  C   C2        1.0  0.050079797272594796  0.844024160805233  0.4781348014939582  1.0000
  C   C3        1.0  0.4781320912909307  0.05007888107288488  0.8440221154071991  1.0000
  C   C4        1.0  0.15597515452792265  0.5218649314639734  0.9499192399405628  1.0000
  C   C5        1.0  0.9499187337446597  0.15597650142493785  0.5218671909150316  1.0000
  C   C6        1.0  0.5218656034849188  0.9499200252573272  0.1559763081833268  1.0000
  C   C7        1.0  0.9170448762784389  0.46396283820718054  0.33775450418506386  1.0000
  C   C8        1.0  0.33775407209254377  0.9170479783813047  0.46396269143811236  1.0000
  C   C9        1.0  0.46396088883362546  0.3377544339490725  0.9170470895214605  1.0000
  C   C10       1.0  0.08295281839472318  0.5360385613536849  0.6622458245261312  1.0000
  C   C11       1.0  0.6622419497237357  0.08295489568407528  0.5360409247046007  1.0000
  C   C12       1.0  0.536039315042366  0.6622464159956962  0.082950129358494  1.0000
  C   C13       1.0  0.8734476694839938  0.4363437004578898  0.21910699434038608  1.0000
  C   C14       1.0  0.2191073630722045  0.873447008441012  0.4363401575446844  1.0000
  C   C15       1.0  0.4363426019038741  0.21910673770847208  0.8734495298515412  1.0000
  C   C16       1.0  0.12655337067558034  0.5636589054260523  0.7808921396512503  1.0000
  C   C17       1.0  0.7808911680899084  0.12655116059772095  0.5636582760368611  1.0000
  C   C18       1.0  0.5636609473723339  0.7808936562618315  0.1265512878199289  1.0000
  C   C19       1.0  0.8188331030239764  0.3422436820113289  0.1511613300225179  1.0000
  C   C20       1.0  0.15115918790475996  0.818833382936411  0.34224305491019175  1.0000
  C   C21       1.0  0.3422420753824226  0.15115976211488658  0.8188353527704351  1.0000
  C   C22       1.0  0.18116710072548156  0.6577571678157952  0.848840849977762  1.0000
  C   C23       1.0  0.8488385068069062  0.18116469222541545  0.6577585922892624  1.0000
  C   C24       1.0  0.6577581283468701  0.8488419188022004  0.18116691103448088  1.0000
  C   C25       1.0  0.7780511251840847  0.22784620894247348  0.17169896244024588  1.0000
  C   C26       1.0  0.17169839585822896  0.7780537158899817  0.22784444716390337  1.0000
  C   C27       1.0  0.22784307268688045  0.17169559227137654  0.7780548926046364  1.0000
  C   C28       1.0  0.22194740587534767  0.7721544533269127  0.8283013762619689  1.0000
  C   C29       1.0  0.8283009715874741  0.22194620908792467  0.7721559015293308  1.0000
  C   C30       1.0  0.7721546220660398  0.8283016518201053  0.2219458439367941  1.0000
  N   N1        1.0  0.8004894452353282  0.3705119345906168  0.043606517459380705  1.0000
  N   N2        1.0  0.043604960519935794  0.8004897556369243  0.3705111419186267  1.0000
  N   N3        1.0  0.37051085517298077  0.043605568551150484  0.8004895964998652  1.0000
  N   N4        1.0  0.1995099221480316  0.6294888214380309  0.9563955687452506  1.0000
  N   N5        1.0  0.9563927342137362  0.19950915065407318  0.6294889353786743  1.0000
  N   N6        1.0  0.6294885122103793  0.9563951874775041  0.19951248970476598  1.0000
  N   N7        1.0  0.8884896320272799  0.521541224041883  0.1529573015309609  1.0000
  N   N8        1.0  0.15295715507724586  0.8884899684075975  0.521539859198782  1.0000
  N   N9        1.0  0.5215405374032684  0.1529555625463814  0.8884897748378009  1.0000
  N   N10       1.0  0.11151140817170807  0.47845888855259505  0.8470424079001759  1.0000
  N   N11       1.0  0.8470413760023587  0.1115098627718325  0.4784603956988036  1.0000
  N   N12       1.0  0.4784605028571533  0.8470428878877952  0.11150894013069029  1.0000
  N   N13       1.0  0.9086309212917383  0.3857492826603916  0.40693713807313964  1.0000
  N   N14       1.0  0.4069416561286374  0.9086277610260677  0.3857433977869107  1.0000
  N   N15       1.0  0.3857522670984962  0.4069382793009383  0.9086309777436908  1.0000
  N   N16       1.0  0.0913709552376076  0.6142567414602738  0.5930591175191182  1.0000
  N   N17       1.0  0.5930602206234851  0.09136995221466289  0.6142511929056553  1.0000
  N   N18       1.0  0.614257973229371  0.59305954073659  0.0913686013676624  1.0000
  N   N19       1.0  0.7243814855652743  0.16473519608016568  0.0841290780485124  1.0000
  N   N20       1.0  0.08412732092719467  0.7243868736039827  0.1647333326643619  1.0000
  N   N21       1.0  0.16473298497892588  0.08412399116274123  0.7243875042937873  1.0000
  N   N22       1.0  0.27561537274086584  0.8352652785726564  0.9158718999157927  1.0000
  N   N23       1.0  0.9158728828250202  0.27561646955182795  0.8352666181896495  1.0000
  N   N24       1.0  0.8352655461795206  0.9158708534377524  0.2756139014827852  1.0000
  Cl  Cl1       1.0  0.8445210330614541  0.5521678281883453  0.9374937304503418  1.0000
  Cl  Cl2       1.0  0.9374929561617404  0.8445199296412083  0.5521682139300097  1.0000
  Cl  Cl3       1.0  0.5521675806197947  0.93749254305294  0.8445194046576175  1.0000
  Cl  Cl4       1.0  0.15547833438424866  0.4478320967895612  0.0625066182428853  1.0000
  Cl  Cl5       1.0  0.06250557495636139  0.1554765771391899  0.4478333594558279  1.0000
  Cl  Cl6       1.0  0.4478317868873346  0.06250571976466548  0.15547994957296396  1.0000
  O   O1        1.0  0.9626993734073108  0.5636501268290458  0.36940252316613  1.0000
  O   O2        1.0  0.3694004728271878  0.9627041562795712  0.5636423182878758  1.0000
  O   O3        1.0  0.5636493864600992  0.36939947124126593  0.9627074440446249  1.0000
  O   O4        1.0  0.0372966483512087  0.4363577338348819  0.6305991152441948  1.0000
  O   O5        1.0  0.6305955492421375  0.03729871802109841  0.4363513756141799  1.0000
  O   O6        1.0  0.436360017334806  0.6305999170600528  0.03729717000067011  1.0000
  O   O7        1.0  0.7976110606981733  0.19949262060042364  0.2716813489426997  1.0000
  O   O8        1.0  0.2716817729863763  0.7976135247005228  0.19949204878921728  1.0000
  O   O9        1.0  0.1994899528285146  0.27167900875009815  0.7976123422678397  1.0000
  O   O10       1.0  0.20238830680895595  0.8005056422171822  0.7283180052878819  1.0000
  O   O11       1.0  0.7283184308052596  0.20238732516581584  0.8005084775042947  1.0000
  O   O12       1.0  0.8005069056215673  0.7283181416017329  0.20238581991777954  1.0000
