data_image0
_chemical_formula_structural       CdH16C10S4N2O4
_chemical_formula_sum              "Cd1 H16 C10 S4 N2 O4"
_cell_length_a       5.856901335582202
_cell_length_b       8.433886606659232
_cell_length_c       9.535587237713438
_cell_angle_alpha    117.25401558744142
_cell_angle_beta     94.39167597042879
_cell_angle_gamma    96.50908620013983

_space_group_name_H-M_alt    "P 1"
_space_group_IT_number       1

loop_
  _space_group_symop_operation_xyz
  'x, y, z'

loop_
  _atom_site_type_symbol
  _atom_site_label
  _atom_site_symmetry_multiplicity
  _atom_site_fract_x
  _atom_site_fract_y
  _atom_site_fract_z
  _atom_site_occupancy
  Cd  Cd1       1.0  0.4999856327981291  1.568539637700934e-06  0.5000038704616045  1.0000
  H   H1        1.0  0.8918756087702137  0.1210455560912393  0.18283744461766102  1.0000
  H   H2        1.0  0.1081321640259745  0.8789510408189757  0.8171562665588611  1.0000
  H   H3        1.0  0.003407973133292301  0.20346868135949586  0.389427803046793  1.0000
  H   H4        1.0  0.9965948607143814  0.7965292518412285  0.6105682369669977  1.0000
  H   H5        1.0  0.1734997549946584  0.5006225093953844  0.408958780368458  1.0000
  H   H6        1.0  0.8265067169159438  0.4993768407013378  0.591040131651461  1.0000
  H   H7        1.0  0.8921483294658545  0.45173927060332636  0.30159580829715793  1.0000
  H   H8        1.0  0.10786190765109893  0.5482614324263013  0.6984017621701569  1.0000
  H   H9        1.0  0.04724932506901071  0.31106896204040174  0.04337773393848468  1.0000
  H   H10       1.0  0.9527620222183867  0.6889290837473467  0.956620956023535  1.0000
  H   H11       1.0  0.22481296564902212  0.5259394667650312  0.1633437941216229  1.0000
  H   H12       1.0  0.7751924547271827  0.47405445665188495  0.8366518726717374  1.0000
  H   H13       1.0  0.5320555391523457  0.39471450285240917  0.23274172470947008  1.0000
  H   H14       1.0  0.4679524726880473  0.6052834627208271  0.767253587815958  1.0000
  H   H15       1.0  0.4336062243140617  0.22359665399515904  0.030764515485984086  1.0000
  H   H16       1.0  0.5663937154535006  0.7763959003677527  0.9692323842262027  1.0000
  C   C1        1.0  0.028746800862265307  0.21386539822550787  0.2811439535215642  1.0000
  C   C2        1.0  0.9712588903439964  0.7861298778636653  0.7188522612310138  1.0000
  C   C3        1.0  0.05939369401865242  0.4042766183407096  0.2978192945549694  1.0000
  C   C4        1.0  0.9406150618045572  0.5957173852907118  0.7021797496749755  1.0000
  C   C5        1.0  0.1711294648147188  0.3919034955265773  0.1531882824250914  1.0000
  C   C6        1.0  0.8288830562148419  0.6080918610377566  0.8468094202522566  1.0000
  C   C7        1.0  0.38211461769324734  0.29935721985523145  0.1486038485524404  1.0000
  C   C8        1.0  0.6178933305754272  0.7006407776995545  0.8513935707523503  1.0000
  C   C9        1.0  0.05349512513910779  0.19262123988468724  0.6725428608161936  1.0000
  C   C10       1.0  0.9464755202747882  0.8073887048521515  0.3274664720519668  1.0000
  S   S1        1.0  0.29909362295319397  0.13980370904563696  0.2204889224976938  1.0000
  S   S2        1.0  0.7009130244298943  0.8601970416956564  0.7795136976504935  1.0000
  S   S3        1.0  0.32603529894336714  0.24707699171342062  0.7497406264112884  1.0000
  S   S4        1.0  0.6739165674672664  0.7529246757789069  0.25026433236381956  1.0000
  N   N1        1.0  0.8553315867971848  0.1571633085884017  0.6172991107776085  1.0000
  N   N2        1.0  0.14466134360382205  0.8428483423118821  0.3827216627959444  1.0000
  O   O1        1.0  0.2613315883191305  0.9537507487756542  0.09324910352729181  1.0000
  O   O2        1.0  0.7386802052708318  0.04625005032892201  0.906753842522214  1.0000
  O   O3        1.0  0.4658965013683982  0.18576576231318145  0.3629854442666556  1.0000
  O   O4        1.0  0.534106353958137  0.8142417034261129  0.6370195897763223  1.0000
