data_image0
_chemical_formula_structural       Zn4H40C56O16
_chemical_formula_sum              "Zn4 H40 C56 O16"
_cell_length_a       9.911417206075622
_cell_length_b       18.313113891391406
_cell_length_c       18.34642933154182
_cell_angle_alpha    90.59132208991366
_cell_angle_beta     90.01227613520204
_cell_angle_gamma    90.01409551146136

_space_group_name_H-M_alt    "P 1"
_space_group_IT_number       1

loop_
  _space_group_symop_operation_xyz
  'x, y, z'

loop_
  _atom_site_type_symbol
  _atom_site_label
  _atom_site_symmetry_multiplicity
  _atom_site_fract_x
  _atom_site_fract_y
  _atom_site_fract_z
  _atom_site_occupancy
  Zn  Zn1       1.0  0.39850823322887413  0.0022312321712404997  0.4978991307619224  1.0000
  Zn  Zn2       1.0  0.6662861624460419  0.9930472419864318  0.5071037120993508  1.0000
  Zn  Zn3       1.0  0.6014074638721849  0.4972560526548196  0.002878892232203601  1.0000
  Zn  Zn4       1.0  0.3336035391015457  0.5065096460228845  0.9936067105002805  1.0000
  H   H1        1.0  0.6378880956015179  0.656215008057437  0.15501525043831066  1.0000
  H   H2        1.0  0.2079057859117199  0.670133815853795  0.1624949470010648  1.0000
  H   H3        1.0  0.3618058409304297  0.8437474300328348  0.3454107713532081  1.0000
  H   H4        1.0  0.7917255546032749  0.8292011814166929  0.33844832733233676  1.0000
  H   H5        1.0  0.6378420181408089  0.34469646408405913  0.8443902045502509  1.0000
  H   H6        1.0  0.20790711685598504  0.3378089561805453  0.8296822569659028  1.0000
  H   H7        1.0  0.3616792029627689  0.15396002326512817  0.6571034639691289  1.0000
  H   H8        1.0  0.7916797143201677  0.1619376756874615  0.6706897761331587  1.0000
  H   H9        1.0  0.6849744837534003  0.3314109404320932  0.16914618252042857  1.0000
  H   H10       1.0  0.2579684186302629  0.3525323056331119  0.1470029574350278  1.0000
  H   H11       1.0  0.31496761912797666  0.16864899756545532  0.33185009582116  1.0000
  H   H12       1.0  0.7419975414105197  0.14659837885673002  0.35325125937351487  1.0000
  H   H13       1.0  0.3365284221073567  0.662244219346327  0.8377426791573084  1.0000
  H   H14       1.0  0.7669782305595022  0.6552115057662249  0.8446916295228419  1.0000
  H   H15       1.0  0.6642431701881222  0.8373731140682569  0.663302837395605  1.0000
  H   H16       1.0  0.23372449000329  0.8437453755861101  0.6557753469380714  1.0000
  H   H17       1.0  0.8775645953387395  0.7738425589518557  0.20536850661176936  1.0000
  H   H18       1.0  0.8100227892817101  0.6851996439794235  0.1927282359665128  1.0000
  H   H19       1.0  0.8852057413575521  0.7100835189666483  0.27688260018609867  1.0000
  H   H20       1.0  0.1179358827185979  0.7939989783686701  0.2246518328534961  1.0000
  H   H21       1.0  0.18960946908032383  0.8108605069240158  0.3115663025806369  1.0000
  H   H22       1.0  0.1182124841083549  0.7246083593106222  0.2908395707285649  1.0000
  H   H23       1.0  0.8825283062272148  0.22371275067401092  0.7936220056763759  1.0000
  H   H24       1.0  0.810028264219909  0.3102157969238278  0.812278705897178  1.0000
  H   H25       1.0  0.8804772113633065  0.2912764607108188  0.7255724968308355  1.0000
  H   H26       1.0  0.12270021852801702  0.20367273005060582  0.7741665204060908  1.0000
  H   H27       1.0  0.18946587632630243  0.19246311409299477  0.6853482642469259  1.0000
  H   H28       1.0  0.1137249666840816  0.2761926623810923  0.7115703095624467  1.0000
  H   H29       1.0  0.8768962732376127  0.2674229316513674  0.303954538150677  1.0000
  H   H30       1.0  0.8351764901828743  0.28361236315081584  0.21182943723994896  1.0000
  H   H31       1.0  0.8806667979907915  0.19483984117213285  0.23975042033274008  1.0000
  H   H32       1.0  0.12284766455371  0.30332300129909134  0.267139229493864  1.0000
  H   H33       1.0  0.1645494617846666  0.21112394072988394  0.2838482371295754  1.0000
  H   H34       1.0  0.11975161170812498  0.23866378759727516  0.19498145706936745  1.0000
  H   H35       1.0  0.11904132391946831  0.7908792331547833  0.7778331259693942  1.0000
  H   H36       1.0  0.17446973896814907  0.7012533610996456  0.7968168769960612  1.0000
  H   H37       1.0  0.11805989300570731  0.7234915474441836  0.7082882377094534  1.0000
  H   H38       1.0  0.8793516947860951  0.7805000297391589  0.7915726414102052  1.0000
  H   H39       1.0  0.8265958695622401  0.7944204725856069  0.7006403678977121  1.0000
  H   H40       1.0  0.8849464083297677  0.7075905727530627  0.7279013521318516  1.0000
  C   C1        1.0  0.46140130828848674  0.9022787116942227  0.5978170842649247  1.0000
  C   C2        1.0  0.5806836403586004  0.8979533157114262  0.4054741078052473  1.0000
  C   C3        1.0  0.5073696144852136  0.09636421551176262  0.40394058140313394  1.0000
  C   C4        1.0  0.5806639640002514  0.09462679541240959  0.6022204034885874  1.0000
  C   C5        1.0  0.49247652348698523  0.4033400264276709  0.09687855218982827  1.0000
  C   C6        1.0  0.41902338368768  0.6017129000322968  0.0951506920002956  1.0000
  C   C7        1.0  0.5391613170815363  0.59706223268352  0.9029536524748777  1.0000
  C   C8        1.0  0.4190651269737272  0.4046291477082847  0.8987215107761912  1.0000
  C   C9        1.0  0.5490121767931979  0.6812044961760294  0.17932826369762714  1.0000
  C   C10       1.0  0.3049346541153994  0.6889724160839279  0.1836085019265496  1.0000
  C   C11       1.0  0.30981434293307336  0.7410161882499012  0.2387060671776523  1.0000
  C   C12       1.0  0.43866340526538755  0.7652307251736732  0.2655170497941768  1.0000
  C   C13       1.0  0.45063937188169934  0.8186625769281763  0.3211451395287951  1.0000
  C   C14       1.0  0.6947057791180953  0.810584551770866  0.3171388127911428  1.0000
  C   C15       1.0  0.6897948166610631  0.7585761717633803  0.262017478697075  1.0000
  C   C16       1.0  0.5609498025162837  0.7345656762449979  0.23503222950554195  1.0000
  C   C17       1.0  0.42396845567444796  0.6586802576259745  0.15380601408150338  1.0000
  C   C18       1.0  0.5756851012315777  0.8410768424329051  0.3467462980684245  1.0000
  C   C19       1.0  0.5489815085715931  0.3204247061124762  0.8193074640526203  1.0000
  C   C20       1.0  0.3049180366660451  0.31643908030984147  0.8111412199613282  1.0000
  C   C21       1.0  0.3097795371212797  0.2612355331585477  0.7592054205240187  1.0000
  C   C22       1.0  0.43862513060076946  0.23419223469633013  0.7352844834780042  1.0000
  C   C23       1.0  0.45054274763599983  0.17844008102303383  0.6819858004702013  1.0000
  C   C24       1.0  0.6946637427821897  0.18295256049076872  0.6896085593175838  1.0000
  C   C25       1.0  0.6897669261492253  0.23798975291929747  0.7417210338564855  1.0000
  C   C26       1.0  0.5609233392701469  0.2647605669105745  0.7659019410316006  1.0000
  C   C27       1.0  0.423969250709483  0.3460257016430647  0.8417083420227058  1.0000
  C   C28       1.0  0.5756185813877508  0.15310345660297744  0.6593423489388641  1.0000
  C   C29       1.0  0.5849780829102188  0.3141138791366701  0.18619458484453588  1.0000
  C   C30       1.0  0.34248931947966804  0.32589437537508575  0.17387259892781504  1.0000
  C   C31       1.0  0.31916804870999727  0.2736390023816214  0.22609258039198465  1.0000
  C   C32       1.0  0.43217203947241956  0.23943459428233646  0.26063807528564803  1.0000
  C   C33       1.0  0.415014369213374  0.18566466486971223  0.3146310067692966  1.0000
  C   C34       1.0  0.657490850861855  0.17345549321667872  0.3265611947914521  1.0000
  C   C35       1.0  0.6808555039590516  0.22570919643280266  0.2743330296372548  1.0000
  C   C36       1.0  0.567869771908704  0.26015588272056084  0.2400048627193314  1.0000
  C   C37       1.0  0.47468003851114554  0.3465035431773913  0.15364184712921505  1.0000
  C   C38       1.0  0.5252498175408178  0.15315400738537485  0.3471105077882584  1.0000
  C   C39       1.0  0.43182626352850667  0.6828869287966414  0.8171136937868084  1.0000
  C   C40       1.0  0.6761564810906435  0.678890562050505  0.8210957751097749  1.0000
  C   C41       1.0  0.6863252846503016  0.7318735643884936  0.7682400944149421  1.0000
  C   C42       1.0  0.5654797857932792  0.762299293315181  0.7378626562552526  1.0000
  C   C43       1.0  0.5689392081602093  0.8165719278858676  0.6837744197677009  1.0000
  C   C44       1.0  0.3245695156864272  0.8202482419334987  0.6795200273833899  1.0000
  C   C45       1.0  0.3144229294092256  0.7673129590528945  0.7324256020981466  1.0000
  C   C46       1.0  0.43531792337031316  0.7370406090697088  0.76291626401607  1.0000
  C   C47       1.0  0.5494846005957326  0.6541774918438038  0.8458569464909613  1.0000
  C   C48       1.0  0.45123946246052776  0.8451690618972877  0.6549465382025588  1.0000
  C   C49       1.0  0.8214104381673053  0.7298610150571393  0.23226569495782454  1.0000
  C   C50       1.0  0.17814018673165322  0.7696560025178274  0.2684622931134156  1.0000
  C   C51       1.0  0.821455765176516  0.26781368424638435  0.7703482644867847  1.0000
  C   C52       1.0  0.1781542479294345  0.23141675695825373  0.7305046406579336  1.0000
  C   C53       1.0  0.8250403830294673  0.24431266339984606  0.2559875823912421  1.0000
  C   C54       1.0  0.1749307417864046  0.25518847362643987  0.24444822447164674  1.0000
  C   C55       1.0  0.17527755262047148  0.7439596821335003  0.7555896547796337  1.0000
  C   C56       1.0  0.8255393350841304  0.7553298722048256  0.7452925225341075  1.0000
  O   O1        1.0  0.35131294891787235  0.9287291105746079  0.5712974525849147  1.0000
  O   O2        1.0  0.5795868500372165  0.9214238012384969  0.5786983232377878  1.0000
  O   O3        1.0  0.6963748644093712  0.9167623454148954  0.431977143261811  1.0000
  O   O4        1.0  0.4682315307114848  0.9247677403398736  0.4258772760718513  1.0000
  O   O5        1.0  0.6146470171947415  0.06945704343515051  0.4307019952647905  1.0000
  O   O6        1.0  0.38663151035114407  0.0778226443052219  0.4226082883813261  1.0000
  O   O7        1.0  0.4682332019284345  0.07433249096933281  0.5752833373984456  1.0000
  O   O8        1.0  0.6963813874632762  0.06825733242743584  0.5833016444062976  1.0000
  O   O9        1.0  0.613225784702081  0.42200566471029793  0.0783664032159734  1.0000
  O   O10       1.0  0.38518696067343683  0.4301140201702652  0.07000240488877547  1.0000
  O   O11       1.0  0.3033533397116841  0.5829134899890251  0.0685975700806694  1.0000
  O   O12       1.0  0.5314644003658414  0.5748203394815478  0.07486587130105699  1.0000
  O   O13       1.0  0.420946510340741  0.577936035913858  0.9220207454734108  1.0000
  O   O14       1.0  0.6491881252995385  0.5705579054106097  0.9295056554830835  1.0000
  O   O15       1.0  0.5315069731818908  0.4247737145179401  0.9257606815607602  1.0000
  O   O16       1.0  0.30343751989265405  0.43127185171848487  0.9174288209863375  1.0000
