data_image0
_chemical_formula_structural       Al2H10C20O12F2
_chemical_formula_sum              "Al2 H10 C20 O12 F2"
_cell_length_a       6.696016123142791
_cell_length_b       11.185108247346662
_cell_length_c       11.250653230008147
_cell_angle_alpha    82.43294707358491
_cell_angle_beta     71.20950761924561
_cell_angle_gamma    71.83604804864127

_space_group_name_H-M_alt    "P 1"
_space_group_IT_number       1

loop_
  _space_group_symop_operation_xyz
  'x, y, z'

loop_
  _atom_site_type_symbol
  _atom_site_label
  _atom_site_symmetry_multiplicity
  _atom_site_fract_x
  _atom_site_fract_y
  _atom_site_fract_z
  _atom_site_occupancy
  Al  Al1       1.0  0.49448828574809056  0.4999730246837404  0.5075985585546193  1.0000
  Al  Al2       1.0  0.9951318733260518  0.4987663604718551  0.5075812284752105  1.0000
  H   H1        1.0  0.27554400702889836  0.3555302971595467  0.5926639225431957  1.0000
  H   H2        1.0  0.7099241351399641  0.6475157545668823  0.435473045460455  1.0000
  H   H3        1.0  0.7539044578142364  0.5129832561158522  0.11730939283707192  1.0000
  H   H4        1.0  0.23158502120758576  0.49176987327555116  0.8967800295448356  1.0000
  H   H5        1.0  0.2442778900054208  0.23378742517089532  0.32086187816285167  1.0000
  H   H6        1.0  0.5975582807850373  0.11702107283663568  0.17893130122925538  1.0000
  H   H7        1.0  0.4630065744338339  0.7654963210085769  0.3232859729885008  1.0000
  H   H8        1.0  0.7065665972291768  0.8815304618757268  0.17960363480230504  1.0000
  H   H9        1.0  0.9265624722585455  0.5244561610188185  0.7866855470013264  1.0000
  H   H10       1.0  0.057271287269408305  0.48231015765083646  0.22761800958608092  1.0000
  C   C1        1.0  0.8619705685716351  0.2738967265204835  0.49515082075405564  1.0000
  C   C2        1.0  0.6223004178642382  0.5052401140190456  0.7364223852949365  1.0000
  C   C3        1.0  0.13253686917445154  0.7257347653333993  0.5073498577640194  1.0000
  C   C4        1.0  0.365349711681766  0.4960868126673148  0.27770495119985134  1.0000
  C   C5        1.0  0.5564097528297578  0.5058658896497619  0.874954657218872  1.0000
  C   C6        1.0  0.42905173801219826  0.4986115984642013  0.13925891591125616  1.0000
  C   C7        1.0  0.7044517665769447  0.5135571545699946  0.9388188403500026  1.0000
  C   C8        1.0  0.28010170619062075  0.4925250970753936  0.0753450999053982  1.0000
  C   C9        1.0  0.638178368753479  0.5092485333177876  0.06973817858200701  1.0000
  C   C10       1.0  0.34685215970026917  0.49607097243812587  0.9444273248069665  1.0000
  C   C11       1.0  0.9372919770764268  0.13363428236404928  0.4890482376670562  1.0000
  C   C12       1.0  0.14799412641678342  0.06734785452946572  0.4090050676941105  1.0000
  C   C13       1.0  0.7987379309644778  0.0663700832437399  0.5643470660325393  1.0000
  C   C14       1.0  0.2920333442700027  0.13144674205889834  0.32363270748843576  1.0000
  C   C15       1.0  0.4902199840854989  0.0657404210486234  0.24404903763318941  1.0000
  C   C16       1.0  0.06730113320664793  0.8661679264400207  0.49538940850062824  1.0000
  C   C17       1.0  0.8634765657712576  0.9336877615194795  0.567988494654486  1.0000
  C   C18       1.0  0.2127598432344725  0.9319990653789251  0.4113511126792844  1.0000
  C   C19       1.0  0.4161487902009424  0.8676648815822574  0.3261722168510347  1.0000
  C   C20       1.0  0.5521858862322159  0.9329775544437313  0.24479466689732018  1.0000
  O   O1        1.0  0.6706766454211743  0.3291418767576104  0.4855289807546229  1.0000
  O   O2        1.0  0.8179509236699471  0.515653626851318  0.6780287476966721  1.0000
  O   O3        1.0  0.9979054766094321  0.6709814341189785  0.4985051446172548  1.0000
  O   O4        1.0  0.49406010315961885  0.5104204161561796  0.33300814717183874  1.0000
  O   O5        1.0  0.31915095215412487  0.6717535357218695  0.5243421389063201  1.0000
  O   O6        1.0  0.17297587414793714  0.4807735913467752  0.3363750294994219  1.0000
  O   O7        1.0  0.993578697750621  0.3270575547742283  0.5111072387591449  1.0000
  O   O8        1.0  0.4922491639612189  0.4925071063226056  0.6812483379496044  1.0000
  O   O9        1.0  0.24427043799861525  0.44298246305911  0.5630675130261977  1.0000
  O   O10       1.0  0.7454854066788666  0.556956332439242  0.4516105786087508  1.0000
  O   O11       1.0  0.9087487362483201  0.5245702983813416  0.8781486120859441  1.0000
  O   O12       1.0  0.07411625199670614  0.48375038008150995  0.1361778215600964  1.0000
  F   F1        1.0  0.7220279660159359  0.8758474027518094  0.6496564430027902  1.0000
  F   F2        1.0  0.5995372436734173  0.12435980834617061  0.642857110636392  1.0000
