data_image0
_chemical_formula_structural       Ni9H36C24N18O42
_chemical_formula_sum              "Ni9 H36 C24 N18 O42"
_cell_length_a       11.867195065566628
_cell_length_b       11.873172110094615
_cell_length_c       16.21663324650803
_cell_angle_alpha    89.99573116880174
_cell_angle_beta     89.99649536254468
_cell_angle_gamma    119.99907310862008

_space_group_name_H-M_alt    "P 1"
_space_group_IT_number       1

loop_
  _space_group_symop_operation_xyz
  'x, y, z'

loop_
  _atom_site_type_symbol
  _atom_site_label
  _atom_site_symmetry_multiplicity
  _atom_site_fract_x
  _atom_site_fract_y
  _atom_site_fract_z
  _atom_site_occupancy
  Ni  Ni1       1.0  0.6060384314027729  0.6060536449692578  0.9998895744518281  1.0000
  Ni  Ni2       1.0  0.39382814219433027  0.000247720769763802  0.33324038534006933  1.0000
  Ni  Ni3       1.0  1.798273191879426e-05  0.3939532746829642  0.6667491200619297  1.0000
  Ni  Ni4       1.0  0.5258353280785145  0.02916030075296309  0.13445679100272662  1.0000
  Ni  Ni5       1.0  0.9706576709528535  0.4968998217900663  0.46766479887042334  1.0000
  Ni  Ni6       1.0  0.5032843573910384  0.4737560874656097  0.8009404926006456  1.0000
  Ni  Ni7       1.0  0.4968096714820405  0.9707809017997067  0.5323645674859065  1.0000
  Ni  Ni8       1.0  0.47353416384878955  0.5032595801700597  0.1989787830443107  1.0000
  Ni  Ni9       1.0  0.029527043900209472  0.5262547158211959  0.8657189555967266  1.0000
  H   H1        1.0  0.5985451131870364  0.05226147962496692  0.9820848561439918  1.0000
  H   H2        1.0  0.947382107840113  0.5459002540471118  0.3154542148173363  1.0000
  H   H3        1.0  0.4538389575675269  0.4007986970162706  0.648632069272793  1.0000
  H   H4        1.0  0.5459648371363954  0.9474276848820793  0.6845757240609771  1.0000
  H   H5        1.0  0.40075725996171496  0.4540522225421029  0.35111258897597963  1.0000
  H   H6        1.0  0.05295356001774824  0.5991447498177891  0.0180620761686541  1.0000
  H   H7        1.0  0.5607782818534588  0.16694248066276174  0.0061537380482761  1.0000
  H   H8        1.0  0.8324683839467468  0.3937173742486948  0.3395497778441055  1.0000
  H   H9        1.0  0.6062959070953083  0.4387751731679541  0.6725937596063645  1.0000
  H   H10       1.0  0.3936899738995054  0.8325738982148609  0.6605217767698619  1.0000
  H   H11       1.0  0.4392247857210521  0.6065286178900848  0.32717103988828466  1.0000
  H   H12       1.0  0.16740971658700227  0.5611380336087778  0.9941232037121636  1.0000
  H   H13       1.0  0.7084731687990458  0.17398702067066546  0.24656266183934156  1.0000
  H   H14       1.0  0.8263376235333626  0.535145595508766  0.5800713264000521  1.0000
  H   H15       1.0  0.46509726565628284  0.29106314449599313  0.9131724550721074  1.0000
  H   H16       1.0  0.5357433139051937  0.8264672746488557  0.42006380031732254  1.0000
  H   H17       1.0  0.291067974460347  0.4649998140642992  0.08659744506647372  1.0000
  H   H18       1.0  0.17413603658252455  0.7089131957278525  0.7535518296183101  1.0000
  H   H19       1.0  0.2847331883184481  0.8361577204766844  0.07085177834193962  1.0000
  H   H20       1.0  0.16333763622301223  0.44787343536087576  0.403931740818969  1.0000
  H   H21       1.0  0.5519705944470276  0.7152658310010978  0.7371199478735948  1.0000
  H   H22       1.0  0.44742271333575456  0.16319329936352742  0.596095721249057  1.0000
  H   H23       1.0  0.7151562468326844  0.5516436517410667  0.2626992238065782  1.0000
  H   H24       1.0  0.836481319710792  0.28460536649330953  0.929364977685829  1.0000
  H   H25       1.0  0.7688712549199082  0.11057363096903569  0.18879087487650284  1.0000
  H   H26       1.0  0.8896118446091139  0.658872259085939  0.5222327110188587  1.0000
  H   H27       1.0  0.3414978900373881  0.23042797596249898  0.8551703789240508  1.0000
  H   H28       1.0  0.6590753298845939  0.8897607985161426  0.4783180201916083  1.0000
  H   H29       1.0  0.23046339524833576  0.3415784394105543  0.14473630138583365  1.0000
  H   H30       1.0  0.11090803289540953  0.7694178627941357  0.8113878907911387  1.0000
  H   H31       1.0  0.2681562568351554  0.8881707661950816  0.15754135255162544  1.0000
  H   H32       1.0  0.11121313880835969  0.37945612054689093  0.49063155769417943  1.0000
  H   H33       1.0  0.6203117946947927  0.7316887077031565  0.8238566919747541  1.0000
  H   H34       1.0  0.3792284870176559  0.11126418907337411  0.5093198590028152  1.0000
  H   H35       1.0  0.731486681662652  0.6201295164744565  0.1759977387451244  1.0000
  H   H36       1.0  0.8884681273079025  0.26833267360321134  0.8426162894330247  1.0000
  C   C1        1.0  0.5190018706454326  0.7911618038501514  0.17763257064196844  1.0000
  C   C2        1.0  0.2089614669988721  0.7274283484746676  0.5111204471539211  1.0000
  C   C3        1.0  0.2726157542413005  0.4812569690315911  0.844289214286576  1.0000
  C   C4        1.0  0.7273575479039494  0.20907319874384467  0.48890381855974147  1.0000
  C   C5        1.0  0.48078978730339383  0.27257145641168284  0.15554494012230446  1.0000
  C   C6        1.0  0.7913868746415036  0.5187781690213242  0.8223774730325177  1.0000
  C   C7        1.0  0.5768490334676242  0.8165078867923371  0.051079657552293205  1.0000
  C   C8        1.0  0.18370667058359655  0.7602070775996522  0.3846209882101023  1.0000
  C   C9        1.0  0.2396602484358397  0.4229270587981162  0.7178590082534699  1.0000
  C   C10       1.0  0.7602450031827812  0.18372129042040788  0.6153708386505344  1.0000
  C   C11       1.0  0.4227593079408933  0.23969401034106136  0.28204009734261604  1.0000
  C   C12       1.0  0.8167128858637369  0.5770490646589934  0.9488294340324331  1.0000
  C   C13       1.0  0.4917131482016758  0.8286063748306846  0.2591762136372964  1.0000
  C   C14       1.0  0.17158343991628305  0.6621074646590159  0.5924364883889127  1.0000
  C   C15       1.0  0.33788943197298243  0.5091637101462042  0.9256201530705399  1.0000
  C   C16       1.0  0.6619910108214808  0.17173944039586073  0.4076021212993127  1.0000
  C   C17       1.0  0.509057769038712  0.3379230730067987  0.0742223185737032  1.0000
  C   C18       1.0  0.8287947278570869  0.4909192561034316  0.7410331374738705  1.0000
  C   C19       1.0  0.6190824854760565  0.8549673371251745  0.9635124358643525  1.0000
  C   C20       1.0  0.14532141874465776  0.7637763560572568  0.2970036855689742  1.0000
  C   C21       1.0  0.23565786098510705  0.3805636808637374  0.6303081700496804  1.0000
  C   C22       1.0  0.7639256569984242  0.1452917717912641  0.702961501123035  1.0000
  C   C23       1.0  0.38059116903968965  0.23587512422950846  0.3696185088466636  1.0000
  C   C24       1.0  0.8550467152053187  0.6194041333118959  0.036392035778590105  1.0000
  N   N1        1.0  0.5575720831659228  0.7006079268481571  0.07598175623618893  1.0000
  N   N2        1.0  0.2996074956599487  0.856920003191405  0.40957223666642767  1.0000
  N   N3        1.0  0.1430413227854288  0.4422333552775655  0.7428726159158645  1.0000
  N   N4        1.0  0.8569313411358125  0.29963019460652857  0.5904275433495698  1.0000
  N   N5        1.0  0.4422156270593476  0.14316735907882355  0.25711973328605353  1.0000
  N   N6        1.0  0.7008028533944212  0.5577918521278986  0.9237897442213454  1.0000
  N   N7        1.0  0.5519945117494133  0.8760571019921101  0.11343247063528143  1.0000
  N   N8        1.0  0.12415732259271556  0.6755848361897706  0.4469008072600502  1.0000
  N   N9        1.0  0.3243888487082032  0.44809403656215346  0.7800586119922315  1.0000
  N   N10       1.0  0.6755680797157667  0.1242395841227405  0.5531031038441656  1.0000
  N   N11       1.0  0.4476458914809528  0.32425326541470406  0.21976968811139136  1.0000
  N   N12       1.0  0.8762854770275655  0.5518969742728715  0.8866303035022727  1.0000
  N   N13       1.0  0.5211335500866526  0.683018753860786  0.155504488659794  1.0000
  N   N14       1.0  0.3170950179334116  0.8379096216501198  0.48904570337029446  1.0000
  N   N15       1.0  0.16220930194325692  0.479018208530519  0.8223173921513836  1.0000
  N   N16       1.0  0.8378581131627955  0.31718670557294354  0.510975734491133  1.0000
  N   N17       1.0  0.4788114909340919  0.16229686949590427  0.17751370751572895  1.0000
  N   N18       1.0  0.6832171406632669  0.521041303378027  0.8443399984682787  1.0000
  O   O1        1.0  0.48114682361565303  0.931300782234139  0.25480714736588084  1.0000
  O   O2        1.0  0.06852473598493711  0.5487590664278699  0.5877393019239607  1.0000
  O   O3        1.0  0.4513488422732764  0.519633742032859  0.9209344848135788  1.0000
  O   O4        1.0  0.5485767869163781  0.06874786523711407  0.41231682547896753  1.0000
  O   O5        1.0  0.5195785947375028  0.4513644340765452  0.07885928973871613  1.0000
  O   O6        1.0  0.9318143401893907  0.4805041310389485  0.7457139641899175  1.0000
  O   O7        1.0  0.6509272545666461  0.7773474009289316  0.9279041044883344  1.0000
  O   O8        1.0  0.22268935156584746  0.8733772696753946  0.2614046514207118  1.0000
  O   O9        1.0  0.12609453115015876  0.34883488918998046  0.5947856143877603  1.0000
  O   O10       1.0  0.8735388779458048  0.22273569755001407  0.7385555748580332  1.0000
  O   O11       1.0  0.34857600206651546  0.1262976092653716  0.405203578691797  1.0000
  O   O12       1.0  0.7772271600307475  0.6511717017490424  0.07189534716567893  1.0000
  O   O13       1.0  0.48433314909563335  0.7676898770556451  0.32426799801434925  1.0000
  O   O14       1.0  0.23272158551913708  0.7146481744255412  0.6576081306107612  1.0000
  O   O15       1.0  0.2851144299058961  0.517465840140524  0.9907788979694133  1.0000
  O   O16       1.0  0.7145954279989013  0.23283114578560324  0.3424205233027707  1.0000
  O   O17       1.0  0.5177210545297938  0.28524002702256007  0.0091422338797713  1.0000
  O   O18       1.0  0.7677304143264508  0.4826013064567718  0.6758775548798754  1.0000
  O   O19       1.0  0.7167200372911395  0.15279235755770768  0.18791709633777035  1.0000
  O   O20       1.0  0.8473604987560395  0.5645272348466578  0.521400047810552  1.0000
  O   O21       1.0  0.4358651800473226  0.2828779214737978  0.8544928406106963  1.0000
  O   O22       1.0  0.5646882466459859  0.8476688725931042  0.4788133647321261  1.0000
  O   O23       1.0  0.28276086383032606  0.4359074288720919  0.1453350297626059  1.0000
  O   O24       1.0  0.1530635082045182  0.7172106394404382  0.8122066664001724  1.0000
  O   O25       1.0  0.31769065209107356  0.9146320419059962  0.10426459400687091  1.0000
  O   O26       1.0  0.08479240678862249  0.40244662700278877  0.437341792305702  1.0000
  O   O27       1.0  0.5974055372334348  0.6822429268346824  0.770590404470106  1.0000
  O   O28       1.0  0.4021444926136511  0.08476429675712181  0.5626091817200205  1.0000
  O   O29       1.0  0.6819927252268769  0.596975680811255  0.2292639232036677  1.0000
  O   O30       1.0  0.9149766699194404  0.3177448672102443  0.8958997635355034  1.0000
  O   O31       1.0  0.6033416985887785  0.11756963215550811  0.024256532854821  1.0000
  O   O32       1.0  0.881659977182814  0.4857165996779998  0.357541275230993  1.0000
  O   O33       1.0  0.5143266697116078  0.39578355670782633  0.6907037049835552  1.0000
  O   O34       1.0  0.485711162507549  0.8818168978482176  0.6424825747419051  1.0000
  O   O35       1.0  0.3955028492239381  0.5144844302284426  0.3091510554984823  1.0000
  O   O36       1.0  0.11845056449742238  0.6041134029666893  0.9759979101347656  1.0000
  O   O37       1.0  0.6189633568223132  0.9499955102907907  0.9306645605498219  1.0000
  O   O38       1.0  0.050670235569718725  0.6683722385851995  0.26409898085764644  1.0000
  O   O39       1.0  0.33067680411163997  0.3804855705586903  0.5973707279918445  1.0000
  O   O40       1.0  0.6685962772831076  0.05053107049315034  0.7358744015730991  1.0000
  O   O41       1.0  0.3809425642099599  0.33105424683391504  0.4025197781888252  1.0000
  O   O42       1.0  0.9501033134452187  0.6194546917584488  0.06935297815859091  1.0000
