data_image0
_chemical_formula_structural       Tm2H14C18N6O16
_chemical_formula_sum              "Tm2 H14 C18 N6 O16"
_cell_length_a       6.046817053323705
_cell_length_b       12.819145329929482
_cell_length_c       13.20438281154081
_cell_angle_alpha    126.32175569536118
_cell_angle_beta     91.92054197903532
_cell_angle_gamma    88.1928874774622

_space_group_name_H-M_alt    "P 1"
_space_group_IT_number       1

loop_
  _space_group_symop_operation_xyz
  'x, y, z'

loop_
  _atom_site_type_symbol
  _atom_site_label
  _atom_site_symmetry_multiplicity
  _atom_site_fract_x
  _atom_site_fract_y
  _atom_site_fract_z
  _atom_site_occupancy
  Tm  Tm1       1.0  0.23741796454828554  0.3431864975863804  0.1593125350620995  1.0000
  Tm  Tm2       1.0  0.7625775673210243  0.6568133056572167  0.8406899188330004  1.0000
  H   H1        1.0  0.31762157012661163  0.4420551258855455  0.8069876562731865  1.0000
  H   H2        1.0  0.6823902055962847  0.5579370810736252  0.19300415044386213  1.0000
  H   H3        1.0  0.8851242837009465  0.118037525052749  0.9146815933296113  1.0000
  H   H4        1.0  0.11488266565463329  0.8819597175871937  0.08531432059421491  1.0000
  H   H5        1.0  0.6476833030390524  0.2514233409458414  0.05027397905977443  1.0000
  H   H6        1.0  0.35231882966885303  0.7485762925184221  0.9497276928907399  1.0000
  H   H7        1.0  0.5077959438594989  0.12500233414356643  0.9369037799169109  1.0000
  H   H8        1.0  0.4922079348801702  0.8749984913041191  0.06310156976569221  1.0000
  H   H9        1.0  0.24098344637542374  0.6223649224890339  0.33449792606225515  1.0000
  H   H10       1.0  0.7590219015622355  0.37763253636755695  0.6655003620823481  1.0000
  H   H11       1.0  0.06674368001706911  0.6042748476548  0.23303888623903665  1.0000
  H   H12       1.0  0.9332599600479912  0.39572244827993336  0.7669570225235064  1.0000
  H   H13       1.0  0.3822487361479432  0.4221217614779819  0.4617545025498091  1.0000
  H   H14       1.0  0.617738662737793  0.5778840334232386  0.538251767206525  1.0000
  C   C1        1.0  0.4001507664314943  0.46864719951842915  0.8935417733955336  1.0000
  C   C2        1.0  0.5998610394277576  0.5313433284561173  0.10645219022431736  1.0000
  C   C3        1.0  0.3162633253826215  0.4291140332923861  0.9629631506854254  1.0000
  C   C4        1.0  0.6837485089161536  0.5708801686001693  0.037030460464528396  1.0000
  C   C5        1.0  0.10799216624001672  0.3504776188180827  0.923638459549146  1.0000
  C   C6        1.0  0.892011486218948  0.6495179349422671  0.07635881384905484  1.0000
  C   C7        1.0  0.16771039839446186  0.04932934168792971  0.08462385607195702  1.0000
  C   C8        1.0  0.832288017666052  0.9506572832195064  0.915364893502684  1.0000
  C   C9        1.0  0.9335110941534025  0.06539060270614531  0.9533967147018104  1.0000
  C   C10       1.0  0.06650581151326661  0.9346101539674339  0.04659886223595331  1.0000
  C   C11       1.0  0.3667054516122193  0.10433322956712494  0.17239962578401702  1.0000
  C   C12       1.0  0.6333017471150485  0.8956711533140337  0.8276045843228277  1.0000
  C   C13       1.0  0.8756732064288144  0.46827238387868436  0.39987013797255616  1.0000
  C   C14       1.0  0.12430753839097972  0.5317333912326206  0.6001345369269303  1.0000
  C   C15       1.0  0.21232186260788669  0.45815417662863933  0.4795354746726802  1.0000
  C   C16       1.0  0.787662379623974  0.5418557878136454  0.52047598332247  1.0000
  C   C17       1.0  0.7404284657898615  0.4223413504714059  0.28311089984269705  1.0000
  C   C18       1.0  0.25956227519702685  0.577663614832467  0.7168972457934545  1.0000
  N   N1        1.0  0.5825919997980621  0.539699022002722  0.9304445333581342  1.0000
  N   N2        1.0  0.41741650746774184  0.460295169994872  0.06954828036339944  1.0000
  N   N3        1.0  0.09754116251085782  0.11520038635860891  0.03938491166824322  1.0000
  N   N4        1.0  0.902462496274076  0.8848032283505775  0.9606089938044778  1.0000
  N   N5        1.0  0.08804491464280773  0.4280542425906762  0.3803703837313821  1.0000
  N   N6        1.0  0.9119489936950274  0.5719501639003894  0.6196314289289192  1.0000
  O   O1        1.0  0.06167846019605609  0.3118851665357667  0.9900450557705869  1.0000
  O   O2        1.0  0.9383187574323059  0.688119186660508  0.009956762050990232  1.0000
  O   O3        1.0  0.9932707155027034  0.328906264985882  0.8321810576405255  1.0000
  O   O4        1.0  0.006734691010826997  0.671093188804086  0.1678190349369828  1.0000
  O   O5        1.0  0.39457082728679893  0.22525680979152446  0.22833126550676044  1.0000
  O   O6        1.0  0.605419671373781  0.7747374677326139  0.7716705209505509  1.0000
  O   O7        1.0  0.4996435030824388  0.21924440474957416  0.011663283369102849  1.0000
  O   O8        1.0  0.5003570228590136  0.780753639567209  0.9883413351707238  1.0000
  O   O9        1.0  0.1227436294019455  0.565974310703794  0.2782943790867877  1.0000
  O   O10       1.0  0.8772616803765488  0.4340221190912246  0.7217026107077942  1.0000
  O   O11       1.0  0.48977358246449393  0.028130853454264606  0.17982951908845024  1.0000
  O   O12       1.0  0.5102221890568545  0.9718787348869996  0.8201795801697501  1.0000
  O   O13       1.0  0.5389137096791146  0.45793086940629024  0.2945803991103376  1.0000
  O   O14       1.0  0.4610686462782425  0.5420720446319224  0.7054235523882897  1.0000
  O   O15       1.0  0.8412086446104683  0.34796701784243583  0.18011702119478917  1.0000
  O   O16       1.0  0.15878692809226894  0.6520347171447938  0.8198864448660718  1.0000
