data_image0
_chemical_formula_structural       Li8H32C16O28
_chemical_formula_sum              "Li8 H32 C16 O28"
_cell_length_a       7.546703928001185
_cell_length_b       8.546099166794711
_cell_length_c       11.118698681066977
_cell_angle_alpha    89.70413764698965
_cell_angle_beta     90.00005657494647
_cell_angle_gamma    89.9999689786841

_space_group_name_H-M_alt    "P 1"
_space_group_IT_number       1

loop_
  _space_group_symop_operation_xyz
  'x, y, z'

loop_
  _atom_site_type_symbol
  _atom_site_label
  _atom_site_symmetry_multiplicity
  _atom_site_fract_x
  _atom_site_fract_y
  _atom_site_fract_z
  _atom_site_occupancy
  Li  Li1       1.0  0.8633024614724719  0.8733259313103546  0.0181517530926172  1.0000
  Li  Li2       1.0  0.3633019662111963  0.12667491171338696  0.4818490542514553  1.0000
  Li  Li3       1.0  0.1366974449763632  0.1266750721552583  0.9818481352237995  1.0000
  Li  Li4       1.0  0.6366979402376388  0.8733260917522259  0.5181508340649614  1.0000
  Li  Li5       1.0  0.5390698687322413  0.39214972024134903  0.2896622007987233  1.0000
  Li  Li6       1.0  0.0390686794517947  0.6078501044511171  0.21033929121828981  1.0000
  Li  Li7       1.0  0.46093136279875324  0.6078501130922619  0.7103376887522117  1.0000
  Li  Li8       1.0  0.9609312269973389  0.39215206470941405  0.7896614952610292  1.0000
  H   H1        1.0  0.8355846109930951  0.3103719899294787  0.0695233493177625  1.0000
  H   H2        1.0  0.3355836946435815  0.6896288708874464  0.4304765401674899  1.0000
  H   H3        1.0  0.16441529545676298  0.6896278389676809  0.9304774396296978  1.0000
  H   H4        1.0  0.6644148867238188  0.31037096244679674  0.569523349382564  1.0000
  H   H5        1.0  0.8513934833378799  0.13587025396942204  0.8773769589547413  1.0000
  H   H6        1.0  0.3513920079310041  0.8641296319151337  0.6226230539645314  1.0000
  H   H7        1.0  0.1486077481931076  0.8641295793641888  0.12262293059619371  1.0000
  H   H8        1.0  0.6486065734363893  0.13587020141910947  0.3773768355855154  1.0000
  H   H9        1.0  0.5369820729278844  0.16524600781540497  0.9210878174833255  1.0000
  H   H10       1.0  0.0369832015563389  0.8347575444048587  0.5789110829212376  1.0000
  H   H11       1.0  0.4630178335199347  0.834756170218661  0.0789111702020477  1.0000
  H   H12       1.0  0.963018029973931  0.16524462919212365  0.421088804161549  1.0000
  H   H13       1.0  0.4899264081042035  0.2913668190417908  0.0403624950686989  1.0000
  H   H14       1.0  0.9899236773150977  0.7086374822351758  0.4596365941174271  1.0000
  H   H15       1.0  0.5100761485078635  0.7086353545548716  0.9596373920145281  1.0000
  H   H16       1.0  0.010074904051578003  0.291364691362446  0.5403632929644786  1.0000
  H   H17       1.0  0.7879522521665623  0.8606630436984019  0.7854591314325603  1.0000
  H   H18       1.0  0.287952681822766  0.13934038315099428  0.7145408355295615  1.0000
  H   H19       1.0  0.21204632919909025  0.139340304467673  0.21453985501830178  1.0000
  H   H20       1.0  0.7120472246243282  0.8606641351464503  0.2854581496876776  1.0000
  H   H21       1.0  0.7884598543589193  0.6874736709840831  0.8436247062031298  1.0000
  H   H22       1.0  0.2884600922884247  0.31252624078894087  0.6563761641962103  1.0000
  H   H23       1.0  0.21153872700842416  0.3125284981767748  0.1563760802757486  1.0000
  H   H24       1.0  0.7115398141610784  0.6874747582399082  0.3436246235171794  1.0000
  H   H25       1.0  0.7180630571330655  0.6200902830996284  0.131895103381126  1.0000
  H   H26       1.0  0.21806488957300024  0.37990828077273164  0.36810740848786594  1.0000
  H   H27       1.0  0.28193552423523727  0.3799130473193841  0.8681074806576206  1.0000
  H   H28       1.0  0.781935016875174  0.620092727129652  0.631891580431585  1.0000
  H   H29       1.0  0.838127330719992  0.5717753763883451  0.0259455216380218  1.0000
  H   H30       1.0  0.3381306141014378  0.42822429088679564  0.4740588677611584  1.0000
  H   H31       1.0  0.161872575731735  0.42822911085173126  0.9740597593580134  1.0000
  H   H32       1.0  0.6618719425116525  0.5717767081414138  0.5259419199531195  1.0000
  C   C1        1.0  0.712193116255499  0.11655249253166738  0.1549001686362885  1.0000
  C   C2        1.0  0.21218267999854135  0.8834262041173203  0.3450978633132564  1.0000
  C   C3        1.0  0.28781739085292923  0.8834251216079422  0.8450970461741747  1.0000
  C   C4        1.0  0.7878119261293506  0.11655023545766602  0.6549002521229568  1.0000
  C   C5        1.0  0.7597316384958007  0.2072443456792215  0.0398352203154815  1.0000
  C   C6        1.0  0.2597307024017681  0.7927553815570717  0.4601646198813185  1.0000
  C   C7        1.0  0.24026959303554926  0.792754317522693  0.960164670469524  1.0000
  C   C8        1.0  0.7402692040474295  0.20724445177685163  0.5398352696691759  1.0000
  C   C9        1.0  0.592982689413596  0.26149953037546675  0.9744228166106766  1.0000
  C   C10       1.0  0.0929811486908392  0.738502824728897  0.5255761223267541  1.0000
  C   C11       1.0  0.4070185421170365  0.7385014730898264  0.025577071706180704  1.0000
  C   C12       1.0  0.9070187577573351  0.26149818317348666  0.4744228665926968  1.0000
  C   C13       1.0  0.6170049936975561  0.4027337431606739  0.8923392351785111  1.0000
  C   C14       1.0  0.11700631035287763  0.5972686136777482  0.6076570215692172  1.0000
  C   C15       1.0  0.3829935876667819  0.597269613878936  0.10765795247841228  1.0000
  C   C16       1.0  0.8829962462569015  0.4027324075342945  0.39233926916019607  1.0000
  O   O1        1.0  0.6472548707988254  0.1969495763809448  0.2405139512853651  1.0000
  O   O2        1.0  0.14725628396609386  0.8030502006168728  0.2594867133930805  1.0000
  O   O3        1.0  0.3527437105692997  0.8030479166899269  0.7594859407328228  1.0000
  O   O4        1.0  0.8527462726470533  0.1969484625847286  0.7405131773923658  1.0000
  O   O5        1.0  0.7413963339272699  0.9708963357085807  0.157974464485541  1.0000
  O   O6        1.0  0.24139569332484714  0.029111600158174204  0.3420235560665361  1.0000
  O   O7        1.0  0.25860489760095373  0.0291081870253151  0.8420236213351657  1.0000
  O   O8        1.0  0.7586028880394267  0.9708940927080434  0.6579745285192189  1.0000
  O   O9        1.0  0.8694292440511548  0.1111091395884642  0.965632563486416  1.0000
  O   O10       1.0  0.3694276238873542  0.8888860659520714  0.5343656675880268  1.0000
  O   O11       1.0  0.1305719874799607  0.8888860220919312  0.0343655322068628  1.0000
  O   O12       1.0  0.6305709574801598  0.11110909572895619  0.46563242810437083  1.0000
  O   O13       1.0  0.7654260566631096  0.4750303365193532  0.8898823460743087  1.0000
  O   O14       1.0  0.2654234460737825  0.5249754458855519  0.6101167040179192  1.0000
  O   O15       1.0  0.23457517486746582  0.5249730027725475  0.1101184391713801  1.0000
  O   O16       1.0  0.7345764603739726  0.4750290679751287  0.3898831805962857  1.0000
  O   O17       1.0  0.48387926733703784  0.44508385169205406  0.8302490500164197  1.0000
  O   O18       1.0  0.9838775304863959  0.554919489620623  0.669749248649893  1.0000
  O   O19       1.0  0.5161232892753276  0.5549194875995269  0.16975173522970982  1.0000
  O   O20       1.0  0.016122375961714404  0.4450838541083683  0.3302506371983895  1.0000
  O   O21       1.0  0.8009831811481265  0.7992955297826183  0.8614190750995548  1.0000
  O   O22       1.0  0.30098611178312507  0.2007067162185479  0.6385818011737996  1.0000
  O   O23       1.0  0.19901540022023315  0.20070546480977913  0.1385826120103602  1.0000
  O   O24       1.0  0.6990164448289491  0.7992954573781148  0.36141808590943464  1.0000
  O   O25       1.0  0.8403084483098412  0.6381188366744368  0.09859411862990439  1.0000
  O   O26       1.0  0.3403103407025085  0.3618808428603372  0.4014075740306496  1.0000
  O   O27       1.0  0.15969013305743832  0.3618856683130289  0.9014075647777987  1.0000
  O   O28       1.0  0.6596908908274629  0.6381201650417269  0.598591414889242  1.0000
