data_image0
_chemical_formula_structural       ZnSiH4C8S4N4F6
_chemical_formula_sum              "Zn1 Si1 H4 C8 S4 N4 F6"
_cell_length_a       7.628554266605926
_cell_length_b       8.812086171715233
_cell_length_c       8.812153933938296
_cell_angle_alpha    91.42732962806006
_cell_angle_beta     86.54026632098493
_cell_angle_gamma    86.539433356933

_space_group_name_H-M_alt    "P 1"
_space_group_IT_number       1

loop_
  _space_group_symop_operation_xyz
  'x, y, z'

loop_
  _atom_site_type_symbol
  _atom_site_label
  _atom_site_symmetry_multiplicity
  _atom_site_fract_x
  _atom_site_fract_y
  _atom_site_fract_z
  _atom_site_occupancy
  Zn  Zn1       1.0  0.4999999483741249  0.49999847195738306  0.5000034065143522  1.0000
  Si  Si1       1.0  0.9999992828639394  0.5000011658173092  0.5000027748520138  1.0000
  H   H1        1.0  0.23303854473559946  0.5089376108630147  0.23092423094123388  1.0000
  H   H2        1.0  0.7669678454784972  0.49105594745275744  0.7690717898955056  1.0000
  H   H3        1.0  0.2330270486190571  0.2309354864853361  0.508945299108255  1.0000
  H   H4        1.0  0.7669635902298139  0.7690701345888301  0.4910543881930136  1.0000
  C   C1        1.0  0.36421750140343784  0.5046384802971391  0.17391902997204056  1.0000
  C   C2        1.0  0.6357985274721687  0.49535081652742713  0.8260750124135894  1.0000
  C   C3        1.0  0.5918982538606912  0.4961632139563579  0.9842465389547994  1.0000
  C   C4        1.0  0.4081146589623898  0.503832943306925  0.015754610130741798  1.0000
  C   C5        1.0  0.36420385685550366  0.17393009858790978  0.5046454580971725  1.0000
  C   C6        1.0  0.6357735183444434  0.8260762009106059  0.49535423472332935  1.0000
  C   C7        1.0  0.5918863735575642  0.9842463329508317  0.4961617993402354  1.0000
  C   C8        1.0  0.4080977921971396  0.0157567108212575  0.5038338913970077  1.0000
  S   S1        1.0  0.6958644436170971  0.4906664340585038  0.15118532507842267  1.0000
  S   S2        1.0  0.30414775989176956  0.509322775187229  0.8488113172267472  1.0000
  S   S3        1.0  0.6958503223060076  0.1511842893550579  0.4906727419370111  1.0000
  S   S4        1.0  0.3041346541125946  0.8488221636557042  0.5093206193596272  1.0000
  N   N1        1.0  0.5044993210944783  0.4979883907512602  0.2564879806573542  1.0000
  N   N2        1.0  0.4955089737496081  0.5020018888631625  0.7435124086229121  1.0000
  N   N3        1.0  0.5044847733677927  0.25648907949718597  0.4979949486885358  1.0000
  N   N4        1.0  0.49550430977485854  0.7435163897266008  0.501999192372139  1.0000
  F   F1        1.0  0.22503212516615886  0.5267386255850541  0.5267263747665536  1.0000
  F   F2        1.0  0.7749679001300296  0.47326978991024776  0.4732838748407741  1.0000
  F   F3        1.0  7.993545601396844e-06  0.3655560518936625  0.6344427551368169  1.0000
  F   F4        1.0  0.9999790022642113  0.6344483669449942  0.3655606483980164  1.0000
  F   F5        1.0  0.9411518379918674  0.6360037850398329  0.6360084360747391  1.0000
  F   F6        1.0  0.05886535961801796  0.3640028816624366  0.3639980610382664  1.0000
