data_image0
_chemical_formula_structural       Ag4H20C28N8
_chemical_formula_sum              "Ag4 H20 C28 N8"
_cell_length_a       4.5136732719699255
_cell_length_b       11.196189196182749
_cell_length_c       12.345615401000583
_cell_angle_alpha    89.9999660422294
_cell_angle_beta     89.99999440461173
_cell_angle_gamma    96.16712365465995

_space_group_name_H-M_alt    "P 1"
_space_group_IT_number       1

loop_
  _space_group_symop_operation_xyz
  'x, y, z'

loop_
  _atom_site_type_symbol
  _atom_site_label
  _atom_site_symmetry_multiplicity
  _atom_site_fract_x
  _atom_site_fract_y
  _atom_site_fract_z
  _atom_site_occupancy
  Ag  Ag1       1.0  0.9832062215317734  0.09466699361268377  0.23687514754045225  1.0000
  Ag  Ag2       1.0  0.5167921037583127  0.40533267588536853  0.7368744486139606  1.0000
  Ag  Ag3       1.0  0.016794233355461916  0.9053326141975685  0.7631257484052654  1.0000
  Ag  Ag4       1.0  0.483208351129278  0.5946669319254382  0.2631248273234021  1.0000
  H   H1        1.0  0.20041722987884467  0.46818350553424165  0.46953741990098063  1.0000
  H   H2        1.0  0.2995816800169919  0.03181598255461178  0.9695369116680156  1.0000
  H   H3        1.0  0.7995834649412784  0.5318170006360388  0.5304634760444885  1.0000
  H   H4        1.0  0.7004187748704211  0.9681836252559175  0.030463174273528206  1.0000
  H   H5        1.0  0.5045577966574584  0.051396852202799374  0.4213819683740639  1.0000
  H   H6        1.0  0.9954406861107543  0.44860359151021356  0.9213828491380769  1.0000
  H   H7        1.0  0.4954404427982623  0.9486027558271527  0.5786164975591674  1.0000
  H   H8        1.0  0.004557793277314176  0.5513969148789568  0.07861804680742782  1.0000
  H   H9        1.0  0.9333200272990041  0.3866107196712817  0.1808892014985589  1.0000
  H   H10       1.0  0.5666785629433662  0.11338988585634975  0.6808894677232687  1.0000
  H   H11       1.0  0.06667821215636137  0.6133888883581232  0.8191108844430205  1.0000
  H   H12       1.0  0.433319916444887  0.8866106205330831  0.31911061821806913  1.0000
  H   H13       1.0  0.9870996240422584  0.29889965893091386  0.5878539510068637  1.0000
  H   H14       1.0  0.5129007433430672  0.20109921225625266  0.08785379948145791  1.0000
  H   H15       1.0  0.012900830845147466  0.7010999488796157  0.41214613493468033  1.0000
  H   H16       1.0  0.4870972561792185  0.7988994974128543  0.9121470964645442  1.0000
  H   H17       1.0  0.1294465377854195  0.09362016822933579  0.5623696701525064  1.0000
  H   H18       1.0  0.37055255406971815  0.40637959382006256  0.062370205542656314  1.0000
  H   H19       1.0  0.8705519416028268  0.9063803381600974  0.4376304157888314  1.0000
  H   H20       1.0  0.6294479008175172  0.5936200139901968  0.9376306904030615  1.0000
  C   C1        1.0  0.7878919679050044  0.35557422814291323  0.24748127554832428  1.0000
  C   C2        1.0  0.7121065925781594  0.14442633257883838  0.7474807099030871  1.0000
  C   C3        1.0  0.212106511483249  0.6444262782465201  0.7525188103930136  1.0000
  C   C4        1.0  0.2878938623094315  0.8555732752319612  0.2525185660342757  1.0000
  C   C5        1.0  0.46920265079097584  0.3534926708381859  0.3795694723737456  1.0000
  C   C6        1.0  0.0307962993105377  0.14650687778492258  0.8795697220760206  1.0000
  C   C7        1.0  0.530795828597455  0.6465078355515244  0.6204298035634183  1.0000
  C   C8        1.0  0.9692019401448206  0.8534927302444826  0.12043036386555883  1.0000
  C   C9        1.0  0.26522434891758456  0.37787965846098354  0.45969103228230074  1.0000
  C   C10       1.0  0.2347723499464678  0.12211983647186735  0.9596904778190949  1.0000
  C   C11       1.0  0.734773890537774  0.6221199495684286  0.5403090536592785  1.0000
  C   C12       1.0  0.7652258895088906  0.8778797715575377  0.040309608122484505  1.0000
  C   C13       1.0  0.1495099650434781  0.2831834552220584  0.5255403490845509  1.0000
  C   C14       1.0  0.3504891432705008  0.21681633160801536  0.0255401770794066  1.0000
  C   C15       1.0  0.8504907297766379  0.7168170509482292  0.4744605468609181  1.0000
  C   C16       1.0  0.6495088562519696  0.7831823780613615  0.9744599088624214  1.0000
  C   C17       1.0  0.23181423060459144  0.16607460229462834  0.5110607444853914  1.0000
  C   C18       1.0  0.26818488418002323  0.33392519427772527  0.011061322469551304  1.0000
  C   C19       1.0  0.7681840088507669  0.8339250057347765  0.48893934145618806  1.0000
  C   C20       1.0  0.7318155707072052  0.666074413532527  0.9889395734761595  1.0000
  C   C21       1.0  0.4368518394324141  0.14124909843013708  0.4318966096089626  1.0000
  C   C22       1.0  0.06314708728460519  0.35875041498494636  0.9318967440733561  1.0000
  C   C23       1.0  0.563146400022944  0.8587505095992679  0.5681034763326168  1.0000
  C   C24       1.0  0.9368533676026234  0.641249192825313  0.06810415187236173  1.0000
  C   C25       1.0  0.5579551176794125  0.2365871134415086  0.366610245438814  1.0000
  C   C26       1.0  0.9420409342009962  0.2634124689834891  0.8666104176452623  1.0000
  C   C27       1.0  0.44204312177612337  0.7634124945881737  0.6333890304985915  1.0000
  C   C28       1.0  0.05795730525436227  0.7365871390459232  0.13338966829631724  1.0000
  N   N1        1.0  0.7623455682196295  0.24085223893148103  0.2824321769211906  1.0000
  N   N2        1.0  0.7376527367114178  0.2591473999137149  0.7824315487005152  1.0000
  N   N3        1.0  0.2376529111686238  0.7591482674579518  0.7175679090201402  1.0000
  N   N4        1.0  0.26234771817599517  0.7408522078968145  0.2175685372410285  1.0000
  N   N5        1.0  0.617262107674982  0.42726412195386115  0.302092550707343  1.0000
  N   N6        1.0  0.8827361884698204  0.07273550366264199  0.8020928275199284  1.0000
  N   N7        1.0  0.3827383472124312  0.5727354858566683  0.6979075352341939  1.0000
  N   N8        1.0  0.1172620509853529  0.9272641043664929  0.19790806842582503  1.0000
