data_image0
_chemical_formula_structural       Co4H24C30O18
_chemical_formula_sum              "Co4 H24 C30 O18"
_cell_length_a       7.17723103900491
_cell_length_b       11.066946458734401
_cell_length_c       10.982162925862198
_cell_angle_alpha    90.02326885826619
_cell_angle_beta     107.97143691056296
_cell_angle_gamma    106.2420457677151

_space_group_name_H-M_alt    "P 1"
_space_group_IT_number       1

loop_
  _space_group_symop_operation_xyz
  'x, y, z'

loop_
  _atom_site_type_symbol
  _atom_site_label
  _atom_site_symmetry_multiplicity
  _atom_site_fract_x
  _atom_site_fract_y
  _atom_site_fract_z
  _atom_site_occupancy
  Co  Co1       1.0  0.6218975437538603  0.4188588169870116  0.0952147520846154  1.0000
  Co  Co2       1.0  0.3766712394452795  0.5800419586408267  0.90425969686423  1.0000
  Co  Co3       1.0  0.09826350923963639  0.4182786137371508  0.09070886081612169  1.0000
  Co  Co4       1.0  0.9007567510047494  0.5821238519129679  0.9081333760800517  1.0000
  H   H1        1.0  0.746812827664712  0.34950171313929  0.928756225473478  1.0000
  H   H2        1.0  0.2500142788651801  0.6522515133106312  0.0744303665614368  1.0000
  H   H3        1.0  0.3570433626279693  0.31288857266571324  0.21985771117153516  1.0000
  H   H4        1.0  0.6404382724185425  0.686236112002419  0.7769629809289144  1.0000
  H   H5        1.0  0.45468268628474817  0.4671684994032433  0.2668054671700446  1.0000
  H   H6        1.0  0.5472255539868273  0.5327009477741387  0.7303036109005204  1.0000
  H   H7        1.0  0.7248714336121652  0.21672636063819792  0.1399980914916839  1.0000
  H   H8        1.0  0.2749465803121042  0.7825040141159012  0.8588637861693087  1.0000
  H   H9        1.0  0.5071043149759618  0.18194823719678513  0.1632502630120456  1.0000
  H   H10       1.0  0.4906150522151976  0.8161615077822263  0.8328325864488733  1.0000
  H   H11       1.0  0.46730346614390333  0.26871522094774053  0.7605302474104221  1.0000
  H   H12       1.0  0.5350883635290983  0.7312913792722426  0.24097912028492627  1.0000
  H   H13       1.0  0.43191806495222806  0.07964709998614689  0.6257556665118784  1.0000
  H   H14       1.0  0.5722054178666269  0.9202226219428767  0.37672320327216374  1.0000
  H   H15       1.0  0.9629814681847718  0.059256777150807204  0.8808561836457612  1.0000
  H   H16       1.0  0.037452040857388645  0.9408496231423913  0.11908401497571931  1.0000
  H   H17       1.0  0.4665809187006006  0.8921595958444403  0.5931344242384782  1.0000
  H   H18       1.0  0.5344221403701609  0.1070273265099502  0.4067980359681513  1.0000
  H   H19       1.0  0.39922964805657574  0.7158526963928937  0.431609389659009  1.0000
  H   H20       1.0  0.5997115518467452  0.28251235971301725  0.568717180896428  1.0000
  H   H21       1.0  0.766578767296778  0.5965387766977132  0.40825556742279184  1.0000
  H   H22       1.0  0.2328403888217636  0.40394203035867804  0.5935309376438624  1.0000
  H   H23       1.0  0.8245509461478449  0.778381917179509  0.5587877763640351  1.0000
  H   H24       1.0  0.17687991553317775  0.22298149960755614  0.4421420978427619  1.0000
  C   C1        1.0  0.2218303651751583  0.2919671732527434  0.9010706469910376  1.0000
  C   C2        1.0  0.7781220323567979  0.7082374623228704  0.09850053356080223  1.0000
  C   C3        1.0  0.2134903836498339  0.177266469943028  0.8268972127588655  1.0000
  C   C4        1.0  0.7876427529029825  0.8227852560232591  0.17366947757020768  1.0000
  C   C5        1.0  0.3508323141471905  0.18032968807696656  0.758904405217244  1.0000
  C   C6        1.0  0.6514116173545264  0.8196752173308969  0.24245611644229834  1.0000
  C   C7        1.0  0.33196670027104597  0.0733828738361098  0.6842461206141977  1.0000
  C   C8        1.0  0.6710025958671793  0.9266016442057535  0.3174240880180363  1.0000
  C   C9        1.0  0.18214113998318024  0.9582692452700244  0.6789362138780177  1.0000
  C   C10       1.0  0.8200169493918922  0.04189858722695311  0.32199952678774224  1.0000
  C   C11       1.0  0.055328903318447  0.9537419426356095  0.7566988559281073  1.0000
  C   C12       1.0  0.9460209847878359  0.0464671901370011  0.24364262568592918  1.0000
  C   C13       1.0  0.06608417522318889  0.0629943011128731  0.8249732218027644  1.0000
  C   C14       1.0  0.9349566149143839  0.9370833533734458  0.17538828614979712  1.0000
  C   C15       1.0  0.9230461400928006  0.8315712329696086  0.7813918698966305  1.0000
  C   C16       1.0  0.07666787834408241  0.16874605025578407  0.2178378640686987  1.0000
  C   C17       1.0  0.1505861498993894  0.8492663851142764  0.5893337716231315  1.0000
  C   C18       1.0  0.850871578391704  0.150864574068386  0.41141772074571037  1.0000
  C   C19       1.0  0.31093159739538107  0.8296902462886777  0.5510411674092877  1.0000
  C   C20       1.0  0.6898027435630353  0.1697160825319557  0.44941128972499195  1.0000
  C   C21       1.0  0.27486038382059513  0.7293054085836133  0.4619837362442638  1.0000
  C   C22       1.0  0.7247617019616257  0.2695796338585765  0.5387717414038917  1.0000
  C   C23       1.0  0.0779837898598998  0.6445633749750926  0.4091299099497263  1.0000
  C   C24       1.0  0.9212773444326386  0.3546337899201505  0.5921256565891682  1.0000
  C   C25       1.0  0.9194963497855964  0.6621346147478209  0.449361376159338  1.0000
  C   C26       1.0  0.08040191437598312  0.3379073814378018  0.5520314815496761  1.0000
  C   C27       1.0  0.9539568817878888  0.763315617085631  0.5357476525690927  1.0000
  C   C28       1.0  0.04704886396424972  0.23722948986561226  0.46529386213975943  1.0000
  C   C29       1.0  0.027108751922583052  0.5434735109460079  0.3038509015965687  1.0000
  C   C30       1.0  0.9708053852882442  0.4561299631695945  0.6965578919490056  1.0000
  O   O1        1.0  0.3837366173908024  0.3890315520724955  0.9210381207951954  1.0000
  O   O2        1.0  0.6158407354962351  0.6114416708587671  0.07814937687371068  1.0000
  O   O3        1.0  0.07475431929991322  0.291417350535859  0.9413325089041179  1.0000
  O   O4        1.0  0.9249005769226459  0.7091863263813779  0.05782496195797652  1.0000
  O   O5        1.0  0.014451954979946913  0.7499390028252222  0.8273385547885397  1.0000
  O   O6        1.0  0.9844127674075978  0.2500087301337643  0.1722023630298111  1.0000
  O   O7        1.0  0.7324336817808401  0.8167227005305124  0.7597173103492807  1.0000
  O   O8        1.0  0.2674241199693483  0.18428666735601956  0.2384300324283046  1.0000
  O   O9        1.0  0.16666842609016186  0.5361298553329591  0.2573239505032348  1.0000
  O   O10       1.0  0.8305611621566129  0.4640504903337331  0.742212892302625  1.0000
  O   O11       1.0  0.8420201239692133  0.4723002793776345  0.2642387556073871  1.0000
  O   O12       1.0  0.15533020566883962  0.5282035706480246  0.7362798597553635  1.0000
  O   O13       1.0  0.8093495603841346  0.4219473055217407  0.9938059170683431  1.0000
  O   O14       1.0  0.19086253943485332  0.5807979262060388  0.008600745836304224  1.0000
  O   O15       1.0  0.40364977802725843  0.4057766054291678  0.1915732408773891  1.0000
  O   O16       1.0  0.594314807200412  0.5940797432733974  0.8051404131408261  1.0000
  O   O17       1.0  0.5808102152726278  0.22099828282882328  0.10512724385685601  1.0000
  O   O18       1.0  0.41893016199991  0.778093511367409  0.8922804388313567  1.0000
