data_image0
_chemical_formula_structural       Na4H24C36S4O12
_chemical_formula_sum              "Na4 H24 C36 S4 O12"
_cell_length_a       5.785795204991088
_cell_length_b       8.412801627133726
_cell_length_c       17.199258089827595
_cell_angle_alpha    90.00048228916147
_cell_angle_beta     97.67087413963112
_cell_angle_gamma    89.9994646205983

_space_group_name_H-M_alt    "P 1"
_space_group_IT_number       1

loop_
  _space_group_symop_operation_xyz
  'x, y, z'

loop_
  _atom_site_type_symbol
  _atom_site_label
  _atom_site_symmetry_multiplicity
  _atom_site_fract_x
  _atom_site_fract_y
  _atom_site_fract_z
  _atom_site_occupancy
  Na  Na1       1.0  0.12544666391596593  0.18400633851344136  0.9806951003465018  1.0000
  Na  Na2       1.0  0.3745527234946736  0.6840017017739228  0.019305725295225805  1.0000
  Na  Na3       1.0  0.8745508184940792  0.8159976333064093  0.01930571137611281  1.0000
  Na  Na4       1.0  0.6254479346465234  0.3160034586850742  0.9806934196957969  1.0000
  H   H1        1.0  0.5172014922291553  0.14640075799962912  0.6152143930149307  1.0000
  H   H2        1.0  0.9827638392156717  0.6464053636180792  0.3847902330396167  1.0000
  H   H3        1.0  0.48280704859934104  0.8535996478214896  0.3847901936093266  1.0000
  H   H4        1.0  0.017242654462250998  0.35358196688298443  0.6152125543957325  1.0000
  H   H5        1.0  0.20061680115275493  0.8378824874676738  0.6083527218997276  1.0000
  H   H6        1.0  0.2993368143768578  0.33790292780876996  0.3916446177871791  1.0000
  H   H7        1.0  0.7993753563167161  0.16210365439420124  0.39164737235201846  1.0000
  H   H8        1.0  0.7006639458969846  0.6620927233377286  0.6083551121943458  1.0000
  H   H9        1.0  0.6516142133695909  0.16147169032777237  0.5155536192574885  1.0000
  H   H10       1.0  0.8483856713223262  0.661471834920718  0.4844414568306591  1.0000
  H   H11       1.0  0.3483833711999368  0.8385180175209256  0.4844477774472439  1.0000
  H   H12       1.0  0.15160802284913907  0.3385368915545825  0.51555751159043  1.0000
  H   H13       1.0  0.10253705927932096  0.852352144449611  0.7102487394123643  1.0000
  H   H14       1.0  0.3974572580525192  0.35235110454100044  0.2897444456553231  1.0000
  H   H15       1.0  0.8974827497568472  0.14764707262472135  0.2897508911527922  1.0000
  H   H16       1.0  0.6025320353930327  0.6476647538903393  0.7102491694248343  1.0000
  H   H17       1.0  0.3791804797512342  0.1475767669103831  0.7445191076011923  1.0000
  H   H18       1.0  0.12079627196992254  0.6475792050631526  0.255488576663133  1.0000
  H   H19       1.0  0.6208365619032608  0.8524153182206432  0.2554845297141384  1.0000
  H   H20       1.0  0.8791946548668153  0.352414068816202  0.7445143984934646  1.0000
  H   H21       1.0  0.9610898618172856  0.8524537300731437  0.8370659953483185  1.0000
  H   H22       1.0  0.5389272224864357  0.352448165543123  0.16293140982016044  1.0000
  H   H23       1.0  0.03892769580302511  0.14755143030615156  0.1629306660469254  1.0000
  H   H24       1.0  0.46107169458015573  0.6475724475620622  0.8370676910540595  1.0000
  C   C1        1.0  0.822048968715052  0.9990862456935546  0.65102815312504  1.0000
  C   C2        1.0  0.6779306144455365  0.4990901274088769  0.3489729371800578  1.0000
  C   C3        1.0  0.17795752491591801  0.000909405460142  0.348974634324982  1.0000
  C   C4        1.0  0.32205570747379403  0.5009162217402617  0.6510235146315537  1.0000
  C   C5        1.0  0.911781894626522  0.9996843515206774  0.5742976841120964  1.0000
  C   C6        1.0  0.5881950220811661  0.49968900685862366  0.425698099094113  1.0000
  C   C7        1.0  0.08821323438259304  0.0003089222940744001  0.4256995734040032  1.0000
  C   C8        1.0  0.4117999027297331  0.5003113989345281  0.5742979884200352  1.0000
  C   C9        1.0  0.6169856027548876  0.08101477053033791  0.6630647203304323  1.0000
  C   C10       1.0  0.8829817992672493  0.581027540287927  0.33693737927217887  1.0000
  C   C11       1.0  0.3830092143658846  0.9189796920216721  0.3369406831454357  1.0000
  C   C12       1.0  0.11701496856979084  0.4189799974924  0.6630593374058621  1.0000
  C   C13       1.0  0.10983846713345713  0.9106797781722803  0.5616329239965054  1.0000
  C   C14       1.0  0.3901279484473719  0.41070279413391114  0.4383632705426024  1.0000
  C   C15       1.0  0.8901534861713362  0.0893075523446853  0.43836600024280875  1.0000
  C   C16       1.0  0.6098676909097023  0.5892988003574117  0.561636912024504  1.0000
  C   C17       1.0  0.8048237116292257  0.08911353436167956  0.5101929054646135  1.0000
  C   C18       1.0  0.6951849744763268  0.5891076910146893  0.4898079420934351  1.0000
  C   C19       1.0  0.19516301873348144  0.9108702301780268  0.4898058863362423  1.0000
  C   C20       1.0  0.3048160920478794  0.41088558281684584  0.5101935429056896  1.0000
  C   C21       1.0  0.9421751639802312  0.9167951464128093  0.7155872319824823  1.0000
  C   C22       1.0  0.5578100605139868  0.4167951515887295  0.2844107755150276  1.0000
  C   C23       1.0  0.057841469324792213  0.08320288202238399  0.2844140653142659  1.0000
  C   C24       1.0  0.4421882441189525  0.5832183294997648  0.7155848153030178  1.0000
  C   C25       1.0  0.5361990245985382  0.08196661949629197  0.7360056724687993  1.0000
  C   C26       1.0  0.9637737937913542  0.5819811207676011  0.2639977329402257  1.0000
  C   C27       1.0  0.46380562598616853  0.9180254656642076  0.2639964858236112  1.0000
  C   C28       1.0  0.036216826741359405  0.41802403974401164  0.7360034872155339  1.0000
  C   C29       1.0  0.8639205870606903  0.9168887700158589  0.7884368774289642  1.0000
  C   C30       1.0  0.636078768417484  0.4168917142965043  0.21156265357086573  1.0000
  C   C31       1.0  0.13609246219724722  0.08310806976103892  0.21156374657030605  1.0000
  C   C32       1.0  0.3639143132264168  0.5831265214673633  0.7884328048234012  1.0000
  C   C33       1.0  0.6601269948547426  0.9990916617245343  0.7985465428568759  1.0000
  C   C34       1.0  0.8398654896900625  0.4990989753482964  0.2014589515326222  1.0000
  C   C35       1.0  0.33988943433256225  0.0008992347131097998  0.2014535844127607  1.0000
  C   C36       1.0  0.16012052034093222  0.5009085625380932  0.7985456462387575  1.0000
  S   S1        1.0  0.5717819530143303  0.0012325888591177999  0.8936069937591712  1.0000
  S   S2        1.0  0.9282157421425412  0.5012314910144937  0.10639440490442101  1.0000
  S   S3        1.0  0.4282209565695539  0.9987618736362833  0.1063951203933797  1.0000
  S   S4        1.0  0.07178563620292522  0.4987724807264017  0.8935989341559036  1.0000
  O   O1        1.0  0.5203432433079201  0.8372255668133659  0.9152999683766653  1.0000
  O   O2        1.0  0.9796786176769318  0.3372251175396243  0.08470390646730412  1.0000
  O   O3        1.0  0.47967564139284496  0.162770084310857  0.0847042980962769  1.0000
  O   O4        1.0  0.020335662133248958  0.6627788541957358  0.9152938366522678  1.0000
  O   O5        1.0  0.7771667768503152  0.05982044529022799  0.9468672709613486  1.0000
  O   O6        1.0  0.7228267751685493  0.5598079329741453  0.0531342460019673  1.0000
  O   O7        1.0  0.22282271512865043  0.9401918472436533  0.0531374151065265  1.0000
  O   O8        1.0  0.27716661284645033  0.4401865295108464  0.9468629673721763  1.0000
  O   O9        1.0  0.37383370219281903  0.11072826847558297  0.8898944403005588  1.0000
  O   O10       1.0  0.12614879043265861  0.6107328717866805  0.11011383146211531  1.0000
  O   O11       1.0  0.6261498523917908  0.8892626280776169  0.1101060182465616  1.0000
  O   O12       1.0  0.8738436731329035  0.3892782320474452  0.8898880178554407  1.0000
