data_image0
_chemical_formula_structural       Li2H32C26N2O10
_chemical_formula_sum              "Li2 H32 C26 N2 O10"
_cell_length_a       5.36137881061888
_cell_length_b       10.387777112624898
_cell_length_c       11.607845612474824
_cell_angle_alpha    90.00105712243028
_cell_angle_beta     99.88087100686613
_cell_angle_gamma    89.99965877772264

_space_group_name_H-M_alt    "P 1"
_space_group_IT_number       1

loop_
  _space_group_symop_operation_xyz
  'x, y, z'

loop_
  _atom_site_type_symbol
  _atom_site_label
  _atom_site_symmetry_multiplicity
  _atom_site_fract_x
  _atom_site_fract_y
  _atom_site_fract_z
  _atom_site_occupancy
  Li  Li1       1.0  0.0158509708191303  0.286456704096679  0.6413800833405574  1.0000
  Li  Li2       1.0  0.9841372040520611  0.786445031899376  0.35862562343297094  1.0000
  H   H1        1.0  0.4162156556190696  0.8865752146385403  0.9722347404341535  1.0000
  H   H2        1.0  0.583818614824054  0.3865618534464516  0.02777113816885901  1.0000
  H   H3        1.0  0.8029813909050177  0.9223479518442942  0.11691069632743019  1.0000
  H   H4        1.0  0.19705979164816514  0.4223222258701823  0.8830843141697712  1.0000
  H   H5        1.0  0.09612513145759755  0.1039989177419329  0.0905743629194475  1.0000
  H   H6        1.0  0.9039006895812491  0.6039700746049873  0.9094134794663163  1.0000
  H   H7        1.0  0.9786411001331603  0.2557657171021574  0.9234163833104388  1.0000
  H   H8        1.0  0.021377302167835007  0.7557427106899366  0.07657205057431328  1.0000
  H   H9        1.0  0.20721326150042782  0.838595207828419  0.7847152235739756  1.0000
  H   H10       1.0  0.7928064200793729  0.33858581602760296  0.2152895181521544  1.0000
  H   H11       1.0  0.959259921058333  0.9394741338965387  0.7097064651335926  1.0000
  H   H12       1.0  0.04074936714594201  0.43946131522728366  0.29030888321879184  1.0000
  H   H13       1.0  0.0198543169955201  0.93380121751521  0.8666417191086921  1.0000
  H   H14       1.0  0.9801722403069563  0.4337901299748239  0.133382567528443  1.0000
  H   H15       1.0  0.49500518727040094  0.09562664306978516  0.5676443980303958  1.0000
  H   H16       1.0  0.5049603493972086  0.5956429151959595  0.43234825385010117  1.0000
  H   H17       1.0  0.6758580587544216  0.9876622069878348  0.4350272884247346  1.0000
  H   H18       1.0  0.3241182266990563  0.48767403973853607  0.5649735796353781  1.0000
  H   H19       1.0  0.38458799245546527  0.9345012860554578  0.3706450370930767  1.0000
  H   H20       1.0  0.6153794233293511  0.43450422328792365  0.6293541622977799  1.0000
  H   H21       1.0  0.4571724011015449  0.03325314087332739  0.21347079500397112  1.0000
  H   H22       1.0  0.5427978254938212  0.53324477613846  0.7865305049766746  1.0000
  H   H23       1.0  0.712054470231344  0.1221533489960223  0.294189311011138  1.0000
  H   H24       1.0  0.2879261183079436  0.6221699083396641  0.7058144451362692  1.0000
  H   H25       1.0  0.14627955720759186  0.18725210408679518  0.2648869066006938  1.0000
  H   H26       1.0  0.8536983711605616  0.6872375965001536  0.735116158025967  1.0000
  H   H27       1.0  0.3951955321400435  0.2925399230508603  0.24482062411169636  1.0000
  H   H28       1.0  0.6048116360366862  0.7925405494728253  0.7551926492390989  1.0000
  H   H29       1.0  0.24071812728388411  0.30031350894252984  0.45504581471606537  1.0000
  H   H30       1.0  0.7592718780586482  0.8002996418550339  0.544964598588507  1.0000
  H   H31       1.0  0.5739168642725332  0.2807277876783444  0.45797245320141394  1.0000
  H   H32       1.0  0.4260620570505296  0.7807451317289062  0.5420393455594805  1.0000
  C   C1        1.0  0.5578081859454471  0.2618323098235463  0.763525399396336  1.0000
  C   C2        1.0  0.44218952708867937  0.761825974431616  0.2364710785344073  1.0000
  C   C3        1.0  0.6297865964941921  0.16105983037196833  0.8562373798949919  1.0000
  C   C4        1.0  0.37021996783959576  0.6610356000625258  0.1437647468931544  1.0000
  C   C5        1.0  0.4730886073312419  0.053690579325596795  0.8675831750572199  1.0000
  C   C6        1.0  0.5269531272157553  0.5536755614237592  0.1324143834628373  1.0000
  C   C7        1.0  0.537175756275623  0.9685560066422877  0.9618932714467333  1.0000
  C   C8        1.0  0.46286477819987243  0.4685478062163852  0.03809653369658151  1.0000
  C   C9        1.0  0.7584199001958896  0.9885039337686403  0.0432144530819514  1.0000
  C   C10       1.0  0.24162037359194946  0.48847751560561625  0.9567739864874908  1.0000
  C   C11       1.0  0.9191575735193284  0.09116831950932888  0.029946352341411908  1.0000
  C   C12       1.0  0.0808627860311759  0.5911349315695985  0.9700442849899956  1.0000
  C   C13       1.0  0.8543541334820617  0.1760270085970674  0.9363882397271794  1.0000
  C   C14       1.0  0.1456596318859837  0.6759939772096216  0.0636052318150817  1.0000
  C   C15       1.0  0.10585866011793853  0.9304571094758739  0.7873160143115284  1.0000
  C   C16       1.0  0.8941695498421827  0.4304446450015361  0.21269540979539414  1.0000
  C   C17       1.0  0.1055647725050477  0.060757372183466885  0.4910305924002714  1.0000
  C   C18       1.0  0.8944408008826843  0.5607744556002813  0.5089592259119655  1.0000
  C   C19       1.0  0.3775594463687924  0.1026303454392519  0.48062903913311317  1.0000
  C   C20       1.0  0.6224022995885862  0.6026354700391748  0.5193669076149234  1.0000
  C   C21       1.0  0.5131410268838793  0.0948838980068913  0.2898471092047004  1.0000
  C   C22       1.0  0.4868455100383216  0.594887746014777  0.7101548531420931  1.0000
  C   C23       1.0  0.34577548125737684  0.21163667970697725  0.2973127909230087  1.0000
  C   C24       1.0  0.6542153331150902  0.7116459430018479  0.7026873912369851  1.0000
  C   C25       1.0  0.3861292830683355  0.23821904656245604  0.4287466161416944  1.0000
  C   C26       1.0  0.6138405193826628  0.7382250942045301  0.5712576659928033  1.0000
  N   N1        1.0  0.4936953401351047  0.018196656327631896  0.39823828311307347  1.0000
  N   N2        1.0  0.5062786006591153  0.5181995365445856  0.6017518102761058  1.0000
  O   O1        1.0  0.3306081775794497  0.29851094123657157  0.7397270596724326  1.0000
  O   O2        1.0  0.6693737376225926  0.7985104880716417  0.26025773021236626  1.0000
  O   O3        1.0  0.7357716662441264  0.31049955222064085  0.7167671580255186  1.0000
  O   O4        1.0  0.264220062443556  0.8104846555893841  0.283240992184254  1.0000
  O   O5        1.0  0.2697365907804539  0.03749688972960999  0.7811225226264468  1.0000
  O   O6        1.0  0.730290346719528  0.5374831114550531  0.2188813766200468  1.0000
  O   O7        1.0  0.9771849849872325  0.14036517396455386  0.5382957200218215  1.0000
  O   O8        1.0  0.022808429295977803  0.6403585562545684  0.46169900130664837  1.0000
  O   O9        1.0  0.025678962574133407  0.950993746343414  0.45225204534529684  1.0000
  O   O10       1.0  0.9742767980141879  0.45098031785708764  0.5477414247051371  1.0000
