data_image0
_chemical_formula_structural       Zn2H34C36N4O8
_chemical_formula_sum              "Zn2 H34 C36 N4 O8"
_cell_length_a       11.226391489491007
_cell_length_b       13.962027077385661
_cell_length_c       15.379798689004625
_cell_angle_alpha    92.1019233008151
_cell_angle_beta     93.47657888578215
_cell_angle_gamma    90.29334541675546

_space_group_name_H-M_alt    "P 1"
_space_group_IT_number       1

loop_
  _space_group_symop_operation_xyz
  'x, y, z'

loop_
  _atom_site_type_symbol
  _atom_site_label
  _atom_site_symmetry_multiplicity
  _atom_site_fract_x
  _atom_site_fract_y
  _atom_site_fract_z
  _atom_site_occupancy
  Zn  Zn1       1.0  0.49710911781979666  0.40143987292061223  0.497816218326811  1.0000
  Zn  Zn2       1.0  0.49930863663389163  0.6010983038215798  0.5002701906771421  1.0000
  H   H1        1.0  0.8902253921911624  0.6475170895989492  0.5043932242383136  1.0000
  H   H2        1.0  0.11101321575442571  0.6466866599873743  0.5190519171803842  1.0000
  H   H3        1.0  0.5925678756344229  0.25488806051226487  0.6179518671093973  1.0000
  H   H4        1.0  0.40185555685252444  0.24339036375675252  0.37938362095344746  1.0000
  H   H5        1.0  0.901872152012409  0.4286828290395023  0.5210101355273407  1.0000
  H   H6        1.0  0.0917444028344576  0.4290737875004282  0.4811203491702044  1.0000
  H   H7        1.0  0.6532005465684493  0.40370239250022893  0.0647902072578646  1.0000
  H   H8        1.0  0.3124401952304724  0.5091164801125602  0.9302274813781606  1.0000
  H   H9        1.0  0.35085025732103503  0.5918002332725721  0.053249582251361005  1.0000
  H   H10       1.0  0.6960773365679103  0.4940808533463256  0.9483558870442294  1.0000
  H   H11       1.0  0.32158294084818817  0.9295688062582883  0.43594491046694367  1.0000
  H   H12       1.0  0.6774626872690633  0.9366179990887462  0.5607500801940899  1.0000
  H   H13       1.0  0.33010699179694575  0.7500779383215599  0.4387095115289981  1.0000
  H   H14       1.0  0.6695063807602254  0.756855834314429  0.5583820720794108  1.0000
  H   H15       1.0  0.598428938276868  0.0755497249065584  0.6235127183331244  1.0000
  H   H16       1.0  0.39916652246270007  0.06377796763180751  0.3735168500871637  1.0000
  H   H17       1.0  0.7113670369568866  0.23527597043690207  0.2723527715141998  1.0000
  H   H18       1.0  0.5578578163695626  0.26734048516016884  0.2706231669869297  1.0000
  H   H19       1.0  0.6274616827034978  0.24487681879686826  0.1709759848369572  1.0000
  H   H20       1.0  0.7593700665794217  0.3898977583592753  0.2046099205023708  1.0000
  H   H21       1.0  0.6909406198499398  0.4105248869441525  0.30388453307531893  1.0000
  H   H22       1.0  0.13700649084739783  0.42317557943277967  0.6966828895535357  1.0000
  H   H23       1.0  0.2829821137219284  0.37538859604654823  0.6909561927923773  1.0000
  H   H24       1.0  0.2120463988808723  0.3768803768296962  0.7914231405377308  1.0000
  H   H25       1.0  0.21559232714440674  0.5583029226014773  0.7945301271687909  1.0000
  H   H26       1.0  0.289060506332838  0.5558500430434777  0.6963559237584674  1.0000
  H   H27       1.0  0.2751380914603274  0.6412831068499613  0.17378636421350535  1.0000
  H   H28       1.0  0.16955678760902523  0.5122305631516751  0.23893671856406934  1.0000
  H   H29       1.0  0.19105391973550917  0.6134708533350309  0.3133828512951737  1.0000
  H   H30       1.0  0.2850138112133109  0.5133539253447595  0.3231888467727657  1.0000
  H   H31       1.0  0.7888017401680117  0.4718999912662341  0.8213663039316187  1.0000
  H   H32       1.0  0.7819026022299838  0.6426903731765776  0.7880373708469577  1.0000
  H   H33       1.0  0.6968128288195957  0.6071210125460168  0.6904099003080048  1.0000
  H   H34       1.0  0.8463213053956691  0.5682366624644858  0.7058473298028856  1.0000
  C   C1        1.0  0.4929970657748158  0.49305391082721434  0.3281701995222263  1.0000
  C   C2        1.0  0.5042096472531696  0.5037002239542758  0.670147813170736  1.0000
  C   C3        1.0  0.5023474361699912  0.4980525131914817  0.04718608215378589  1.0000
  C   C4        1.0  0.5039360229947861  0.49959639110417003  0.951166941052861  1.0000
  C   C5        1.0  0.40120431088428893  0.8945106274664455  0.46310323309460694  1.0000
  C   C6        1.0  0.5977958572392837  0.8985378955770218  0.533941134800088  1.0000
  C   C7        1.0  0.4045760865131172  0.7951202730790712  0.46464456766671697  1.0000
  C   C8        1.0  0.594641667629574  0.7990198058054645  0.5327814519340491  1.0000
  C   C9        1.0  0.4993407333202456  0.9485446526369119  0.4985577312883933  1.0000
  C   C10       1.0  0.5549382206573911  0.10946870943782021  0.5674699192828143  1.0000
  C   C11       1.0  0.4420825633581131  0.102895163939607  0.4295980225050186  1.0000
  C   C12       1.0  0.5520003962183824  0.2088640654542075  0.5653030794542886  1.0000
  C   C13       1.0  0.44349658414531495  0.2024139714522093  0.4318801867700301  1.0000
  C   C14       1.0  0.4988996832805556  0.0542135416624205  0.498562619444776  1.0000
  C   C15       1.0  0.2635051335368317  0.5036199107834847  0.49527677199856857  1.0000
  C   C16       1.0  0.7326339247216184  0.5047670560918718  0.508799975056661  1.0000
  C   C17       1.0  0.9349069146204984  0.5782721341771406  0.508825952230751  1.0000
  C   C18       1.0  0.0640893438444934  0.5780056264790404  0.5083150556249122  1.0000
  C   C19       1.0  0.8646830715913297  0.5002563963293127  0.5141359173252978  1.0000
  C   C20       1.0  0.13156776671854692  0.500007918322126  0.4939553832700766  1.0000
  C   C21       1.0  0.5851526063603387  0.4449355921439135  0.0971166440937878  1.0000
  C   C22       1.0  0.3974877615421448  0.5078770455858503  0.8993503435759747  1.0000
  C   C23       1.0  0.5812682853740015  0.4413579164258863  0.1877147495928426  1.0000
  C   C24       1.0  0.3964749176487602  0.5119411318929039  0.8085928402450406  1.0000
  C   C25       1.0  0.4924619260926094  0.4925877486532358  0.23048881191024148  1.0000
  C   C26       1.0  0.5053073622582646  0.5065234633610629  0.7681073632810678  1.0000
  C   C27       1.0  0.40823430619452244  0.5473750036301227  0.1813115965366165  1.0000
  C   C28       1.0  0.613937206056022  0.4995443412642899  0.8186259012697049  1.0000
  C   C29       1.0  0.4153439232443858  0.5489017297697386  0.09069175395482178  1.0000
  C   C30       1.0  0.6114890427805124  0.4958707819890976  0.909417883730647  1.0000
  C   C31       1.0  0.674719253745515  0.3825662147852568  0.23649201843483778  1.0000
  C   C32       1.0  0.6409372894994051  0.276005881924398  0.23757382283745435  1.0000
  C   C33       1.0  0.2783531129921997  0.5166253077163675  0.7561357023547897  1.0000
  C   C34       1.0  0.22436133563977737  0.4170136339920774  0.732390702648132  1.0000
  C   C35       1.0  0.23706081183222952  0.5579482696143075  0.2760297556124697  1.0000
  C   C36       1.0  0.7643088817075993  0.5833140991931601  0.7391259428474652  1.0000
  N   N1        1.0  0.4995531967881918  0.748348753059588  0.4990595884591897  1.0000
  N   N2        1.0  0.4973910793588559  0.2542799912822744  0.49852739782073024  1.0000
  N   N3        1.0  0.32003663393773957  0.6025521240277812  0.21979534638192888  1.0000
  N   N4        1.0  0.7238989444852847  0.49533657738994924  0.7782560539700183  1.0000
  O   O1        1.0  0.48464947940249914  0.41231402326047106  0.363816622961714  1.0000
  O   O2        1.0  0.5060271263024703  0.4213928848079007  0.632121312938686  1.0000
  O   O3        1.0  0.5027127006129534  0.5740657765268863  0.36871635844105544  1.0000
  O   O4        1.0  0.4989536982863215  0.5836672925237424  0.6328701179083609  1.0000
  O   O5        1.0  0.31506520490402323  0.4223011616376979  0.49558348311346373  1.0000
  O   O6        1.0  0.6787532315817871  0.42384158262285615  0.5002202675793725  1.0000
  O   O7        1.0  0.31515062145953726  0.5853081677208393  0.4954625661013664  1.0000
  O   O8        1.0  0.6831736525062767  0.5867601266122904  0.5121560939915071  1.0000
