data_image0
_chemical_formula_structural       Al4H20C28Br2O20
_chemical_formula_sum              "Al4 H20 C28 Br2 O20"
_cell_length_a       6.668492315150324
_cell_length_b       13.498515449434473
_cell_length_c       16.79064756238553
_cell_angle_alpha    90.87957245720034
_cell_angle_beta     91.1316987517111
_cell_angle_gamma    89.73309652947844

_space_group_name_H-M_alt    "P 1"
_space_group_IT_number       1

loop_
  _space_group_symop_operation_xyz
  'x, y, z'

loop_
  _atom_site_type_symbol
  _atom_site_label
  _atom_site_symmetry_multiplicity
  _atom_site_fract_x
  _atom_site_fract_y
  _atom_site_fract_z
  _atom_site_occupancy
  Al  Al1       1.0  0.8996886448047902  0.5023869673568129  0.4974005993444378  1.0000
  Al  Al2       1.0  0.3997083364132337  0.5076150047858546  0.4971419020329221  1.0000
  Al  Al3       1.0  0.37198544136101214  0.9859975199541752  0.9932086135177443  1.0000
  Al  Al4       1.0  0.8740852603010937  0.9899404320295703  0.9943074805670448  1.0000
  H   H1        1.0  0.9691139769671082  0.5867545823960681  0.7676767097823145  1.0000
  H   H2        1.0  0.7784492062202304  0.7763422330079519  0.7774012181033496  1.0000
  H   H3        1.0  0.2967428059843655  0.905625689926097  0.7254422111294045  1.0000
  H   H4        1.0  0.4877221419801074  0.7159544717438353  0.7154272441354549  1.0000
  H   H5        1.0  0.8318223492060141  0.6832698652827531  0.2970037922133884  1.0000
  H   H6        1.0  0.2891607651172805  0.71512538259244  0.3079927971367766  1.0000
  H   H7        1.0  0.8294877543253492  0.7947686347107988  0.18175996599180877  1.0000
  H   H8        1.0  0.8939033932282496  0.20397250838269795  0.8223720275757671  1.0000
  H   H9        1.0  0.4796135975542697  0.299565092777186  0.6836963876859199  1.0000
  H   H10       1.0  0.9047116401277577  0.20328684843218528  0.17856195424960214  1.0000
  H   H11       1.0  0.9303301811903779  0.2946407451777446  0.30500114436318876  1.0000
  H   H12       1.0  0.4701302844040072  0.31304125513015896  0.29401467711360135  1.0000
  H   H13       1.0  0.2983926376216104  0.6653004882627016  0.8601377118156819  1.0000
  H   H14       1.0  0.2903627715398329  0.7995013491055899  0.1992163555258415  1.0000
  H   H15       1.0  0.9394958426393741  0.2992924069498528  0.7029347024073471  1.0000
  H   H16       1.0  0.9683275108519352  0.8270990289008323  0.6329665809359353  1.0000
  H   H17       1.0  0.6592563235755194  0.6254643378872727  0.5345092465068573  1.0000
  H   H18       1.0  0.1590060466919638  0.38166058676112874  0.5264879162047507  1.0000
  H   H19       1.0  0.6278316711240919  0.8641954423813585  0.965800902117806  1.0000
  H   H20       1.0  0.12625365136860012  0.12058689460998549  0.9909345156605411  1.0000
  C   C1        1.0  0.6574447851989188  0.3845985797680029  0.6043776022978377  1.0000
  C   C2        1.0  0.6379659630661436  0.3904581609598097  0.38651773526557054  1.0000
  C   C3        1.0  0.13573891598232993  0.62102284088148  0.390378481789419  1.0000
  C   C4        1.0  0.1567302422737455  0.6226059186442683  0.6087623547452451  1.0000
  C   C5        1.0  0.0415867274953001  0.658380974344787  0.7594479895376975  1.0000
  C   C6        1.0  0.22572708970390207  0.7002186080829416  0.8086569582529533  1.0000
  C   C7        1.0  0.11723984311269219  0.8040306474364342  0.8128136734024805  1.0000
  C   C8        1.0  0.9355383205309381  0.7622433146573115  0.7631065892620511  1.0000
  C   C9        1.0  0.04086309432616281  0.7919352800044807  0.6843627827961569  1.0000
  C   C10       1.0  0.22490089888328413  0.8338137810270253  0.7335563846230428  1.0000
  C   C11       1.0  0.33082315673954105  0.7300217419882813  0.7299563092869406  1.0000
  C   C12       1.0  0.14928325995463607  0.6879986483391959  0.6803226553226123  1.0000
  C   C13       1.0  0.9754996365270328  0.7131930003032492  0.2785799701672644  1.0000
  C   C14       1.0  0.1402932422592613  0.6879050259726326  0.32179851992861325  1.0000
  C   C15       1.0  0.9746450257465398  0.7766534373424321  0.20942520281415963  1.0000
  C   C16       1.0  0.139616499930959  0.8141927587034059  0.17583024205382  1.0000
  C   C17       1.0  0.7629167521189115  0.2118841688342883  0.7825355989840475  1.0000
  C   C18       1.0  0.6055261444603559  0.1564508741372208  0.8052737013628429  1.0000
  C   C19       1.0  0.7859904995255391  0.27747795550718024  0.7160242145745952  1.0000
  C   C20       1.0  0.6349611783178801  0.3166180516056869  0.6716542003711865  1.0000
  C   C21       1.0  0.7671697683547903  0.21274732266650176  0.2125299712215778  1.0000
  C   C22       1.0  0.611774393270487  0.15920809053138638  0.18183609158543848  1.0000
  C   C23       1.0  0.7797700062003867  0.27796933366466453  0.2816040912411566  1.0000
  C   C24       1.0  0.6225516776917104  0.3231949842067792  0.3166287279427635  1.0000
  C   C25       1.0  0.6268675180725864  0.10193552098770199  0.10500812043036228  1.0000
  C   C26       1.0  0.611003627443452  0.09893289509193441  0.8812599157652556  1.0000
  C   C27       1.0  0.11304140306590682  0.8689446170408529  0.8844668368779267  1.0000
  C   C28       1.0  0.13302053116295548  0.8767100453603975  0.10470760570304799  1.0000
  Br  Br1       1.0  0.35912996157588134  0.14280321383071742  0.746922003748139  1.0000
  Br  Br2       1.0  0.3567501662272576  0.14768233528647565  0.22943814040570487  1.0000
  O   O1        1.0  0.47089969270780324  0.42787537030994127  0.4078180594692354  1.0000
  O   O2        1.0  0.8306147970424219  0.4145219204904649  0.5848092180344364  1.0000
  O   O3        1.0  0.9880795521127085  0.6018390956861738  0.5753379409762116  1.0000
  O   O4        1.0  0.8076052111204247  0.4054960470361451  0.4208024651366528  1.0000
  O   O5        1.0  0.9685802132302539  0.5849891850110254  0.41060672898559136  1.0000
  O   O6        1.0  0.49036556904524525  0.4071319801655519  0.5702555789714907  1.0000
  O   O7        1.0  0.6517101951639575  0.5658596135593114  0.5016358481469821  1.0000
  O   O8        1.0  0.3054199439963199  0.6048892488706699  0.42461729277061977  1.0000
  O   O9        1.0  0.3285354678654784  0.592116871010326  0.5867453885603736  1.0000
  O   O10       1.0  0.15160915767170743  0.4440414399985498  0.49873918286714763  1.0000
  O   O11       1.0  0.7814185088856576  0.0872855513457438  0.9155882646637821  1.0000
  O   O12       1.0  0.46282571527387967  0.08373165628862012  0.0683649686425198  1.0000
  O   O13       1.0  0.30361850140765506  0.905180162185843  0.0805189641699329  1.0000
  O   O14       1.0  0.44343003628591765  0.0683022098077188  0.9051262107106268  1.0000
  O   O15       1.0  0.28294640675659377  0.8872835134711393  0.9179859854837529  1.0000
  O   O16       1.0  0.800894439049273  0.07737513568641671  0.08181956575207038  1.0000
  O   O17       1.0  0.6254817952842444  0.9284510536401384  0.9923371725809033  1.0000
  O   O18       1.0  0.9437543441197889  0.9017958433579095  0.9072752724322155  1.0000
  O   O19       1.0  0.9635786492622459  0.8965723172397801  0.071977162142808  1.0000
  O   O20       1.0  0.1230585666346258  0.049020261032836715  0.9922328682824567  1.0000
