data_image0
_chemical_formula_structural       Gd2H20C22N2O14
_chemical_formula_sum              "Gd2 H20 C22 N2 O14"
_cell_length_a       8.339957416048735
_cell_length_b       8.996508055781652
_cell_length_c       10.507289482655644
_cell_angle_alpha    105.13657109722753
_cell_angle_beta     101.1602373358865
_cell_angle_gamma    95.4359915502359

_space_group_name_H-M_alt    "P 1"
_space_group_IT_number       1

loop_
  _space_group_symop_operation_xyz
  'x, y, z'

loop_
  _atom_site_type_symbol
  _atom_site_label
  _atom_site_symmetry_multiplicity
  _atom_site_fract_x
  _atom_site_fract_y
  _atom_site_fract_z
  _atom_site_occupancy
  Gd  Gd1       1.0  0.4172933904438167  0.2937192583442467  0.03008808639072673  1.0000
  Gd  Gd2       1.0  0.5827104486053756  0.7062707006869784  0.9699140522864057  1.0000
  H   H1        1.0  0.7498071532649176  0.18723430092563118  0.37879287682394397  1.0000
  H   H2        1.0  0.2501846456574768  0.8127719704146301  0.6212128267500108  1.0000
  H   H3        1.0  0.6540919799864395  0.29032738127182256  0.5855561831677322  1.0000
  H   H4        1.0  0.3459009262681008  0.7096928713596498  0.41444899424914905  1.0000
  H   H5        1.0  0.7593644316301108  0.7567445464684965  0.5597333581003243  1.0000
  H   H6        1.0  0.2406356012755353  0.24326521066828377  0.4402516139821629  1.0000
  H   H7        1.0  0.8577041051254993  0.6586103724864857  0.3527699108740166  1.0000
  H   H8        1.0  0.1422927274827117  0.3413877344380936  0.6472176678200727  1.0000
  H   H9        1.0  0.9450996006829654  0.15240862440754913  0.28004276492611524  1.0000
  H   H10       1.0  0.05490526442081741  0.8475883301096374  0.7199687063386764  1.0000
  H   H11       1.0  0.9971988261612807  0.18555311114542408  0.13535244856262812  1.0000
  H   H12       1.0  0.0028081180409458262  0.8144415127659386  0.8646578918812937  1.0000
  H   H13       1.0  0.9984028832411624  0.4000296057909338  0.09067184843357977  1.0000
  H   H14       1.0  0.0016014337959831446  0.5999556918505392  0.9093283822570516  1.0000
  H   H15       1.0  0.035132050825460205  0.5593084615688894  0.23665445610097893  1.0000
  H   H16       1.0  0.9648663293493839  0.44068498938801776  0.7633418592361851  1.0000
  H   H17       1.0  0.5513461226251976  0.14975675872749147  0.7896151449866979  1.0000
  H   H18       1.0  0.4486539260708398  0.8502460092917801  0.2103730384050025  1.0000
  H   H19       1.0  0.5344373614312017  0.32303036362124965  0.7819451824924928  1.0000
  H   H20       1.0  0.4655628859922558  0.6769747411161972  0.21805592464277623  1.0000
  C   C1        1.0  0.8191996539296226  0.4146434848859784  0.35096811955742885  1.0000
  C   C2        1.0  0.1807971879077712  0.5853557934733686  0.6490320936271488  1.0000
  C   C3        1.0  0.7562422806728933  0.3126193249665192  0.41832965459153854  1.0000
  C   C4        1.0  0.24374831000231714  0.6873869456834638  0.5816749006893077  1.0000
  C   C5        1.0  0.7016474917122223  0.370703618776396  0.5351939280912889  1.0000
  C   C6        1.0  0.2983485262565538  0.6293131381829296  0.4648100279110993  1.0000
  C   C7        1.0  0.7045873484467791  0.5313465640130275  0.5898083433650713  1.0000
  C   C8        1.0  0.2954091594532641  0.46867251972768975  0.41018859407431324  1.0000
  C   C9        1.0  0.7599050041838565  0.6321826136304836  0.5198833413729034  1.0000
  C   C10       1.0  0.2400928525553994  0.3678294774243867  0.48010940896598714  1.0000
  C   C11       1.0  0.8150826461356501  0.5761699762970665  0.4030507495757903  1.0000
  C   C12       1.0  0.1849157598493534  0.4238304623578061  0.5969395055512268  1.0000
  C   C13       1.0  0.6559868998376643  0.5924453958330106  0.7179169806240042  1.0000
  C   C14       1.0  0.3440098688183967  0.4075678621808905  0.2820796588430882  1.0000
  C   C15       1.0  0.9007788809033244  0.19721141591086422  0.19381215520903083  1.0000
  C   C16       1.0  0.09922666555349482  0.8027820420267985  0.8061967476886951  1.0000
  C   C17       1.0  0.7438172884225904  0.08925095411315448  0.1044091029468248  1.0000
  C   C18       1.0  0.2561878929046131  0.9107401727844932  0.8955982718110892  1.0000
  C   C19       1.0  0.9392674816469011  0.4638427931080074  0.16876405987245147  1.0000
  C   C20       1.0  0.060732746527605685  0.5361471633791977  0.8312336842916965  1.0000
  C   C21       1.0  0.8088575161586604  0.5386877427391281  0.09585869143229792  1.0000
  C   C22       1.0  0.19113757128846492  0.46129288940989716  0.9041332938278546  1.0000
  N   N1        1.0  0.8829136469998956  0.359394043153614  0.23956678945121723  1.0000
  N   N2        1.0  0.11708831631593604  0.6405994112936712  0.7604358196662276  1.0000
  O   O1        1.0  0.6193250678230271  0.1499735931330264  0.06557036807850382  1.0000
  O   O2        1.0  0.38067290290753425  0.8500117114670188  0.9344450130867731  1.0000
  O   O3        1.0  0.7516116354909883  0.945053947350104  0.0744563993479801  1.0000
  O   O4        1.0  0.24840362318146703  0.054938342782307394  0.9255452568695833  1.0000
  O   O5        1.0  0.6534569182104589  0.48836026452170234  0.07202769627460975  1.0000
  O   O6        1.0  0.34654085379268196  0.5116227033601604  0.9279747611471125  1.0000
  O   O7        1.0  0.8586436468169936  0.6543202279587846  0.05845187736800032  1.0000
  O   O8        1.0  0.14135356132911878  0.3456580721648734  0.9415361281703414  1.0000
  O   O9        1.0  0.6089281001807549  0.4981476920498125  0.783294210389869  1.0000
  O   O10       1.0  0.391066048615869  0.5018643997732964  0.21670079287155633  1.0000
  O   O11       1.0  0.6643056303544624  0.739300391643404  0.7716694350583923  1.0000
  O   O12       1.0  0.33568949559055744  0.2607105370061121  0.2283292761440024  1.0000
  O   O13       1.0  0.48254893820172373  0.23104619532300316  0.8054948990541039  1.0000
  O   O14       1.0  0.517457405925029  0.7689589109731257  0.194508151012144  1.0000
