data_image0
_chemical_formula_structural       La2H26C30N2Cl12O20
_chemical_formula_sum              "La2 H26 C30 N2 Cl12 O20"
_cell_length_a       10.511962770901034
_cell_length_b       10.932352679728954
_cell_length_c       11.133012088294223
_cell_angle_alpha    67.28683767545986
_cell_angle_beta     83.11555846919343
_cell_angle_gamma    76.07257591979153

_space_group_name_H-M_alt    "P 1"
_space_group_IT_number       1

loop_
  _space_group_symop_operation_xyz
  'x, y, z'

loop_
  _atom_site_type_symbol
  _atom_site_label
  _atom_site_symmetry_multiplicity
  _atom_site_fract_x
  _atom_site_fract_y
  _atom_site_fract_z
  _atom_site_occupancy
  La  La1       1.0  0.07912190981751625  0.3535606996842516  0.39527053288760783  1.0000
  La  La2       1.0  0.9208803274697747  0.6464382818278551  0.6047271365715475  1.0000
  H   H1        1.0  0.42162950919333064  0.2910792700887654  0.32211032635484566  1.0000
  H   H2        1.0  0.5783676078399937  0.7089116550726757  0.6778910530361201  1.0000
  H   H3        1.0  0.6315029339721862  0.23270002042091417  0.30470445218582404  1.0000
  H   H4        1.0  0.36849931313252426  0.76729898947805  0.6952967981993297  1.0000
  H   H5        1.0  0.6881794907083362  0.05841053793712091  0.403586708742182  1.0000
  H   H6        1.0  0.3118208389438879  0.9415884965181716  0.5964156547731393  1.0000
  H   H7        1.0  0.724269539124471  0.18944831108034063  0.44404233554339356  1.0000
  H   H8        1.0  0.27572811059499  0.8105497348819596  0.5559607232307258  1.0000
  H   H9        1.0  0.6080541490077707  0.9891907442358345  0.6377394560298058  1.0000
  H   H10       1.0  0.391946145869099  0.010813369095153296  0.3622627469451274  1.0000
  H   H11       1.0  0.4394494954724594  0.0651517325958864  0.6608115777903975  1.0000
  H   H12       1.0  0.5605525590678155  0.934848313275637  0.33919198987845073  1.0000
  H   H13       1.0  0.5686069860405496  0.14002362376833585  0.6729686080318658  1.0000
  H   H14       1.0  0.43139445399111764  0.8599794235701452  0.327028483015546  1.0000
  H   H15       1.0  0.04843321246801222  0.09135338072206878  0.36558702019259925  1.0000
  H   H16       1.0  0.9515667124205082  0.908647668904628  0.6344128160380931  1.0000
  H   H17       1.0  0.09170457342147388  0.05921842327867211  0.5102789089618655  1.0000
  H   H18       1.0  0.9082965113479632  0.9407816029358003  0.48972118673031406  1.0000
  H   H19       1.0  0.04094962496397163  0.37522232977322995  0.11836297924222089  1.0000
  H   H20       1.0  0.95905202235825  0.6247797241729741  0.8816371659104975  1.0000
  H   H21       1.0  0.8925432009376809  0.4135406055830727  0.1563429967323486  1.0000
  H   H22       1.0  0.1074576814499082  0.5864604282171015  0.843655835317513  1.0000
  H   H23       1.0  0.9800969960545629  0.6753185445095512  0.2772594498533394  1.0000
  H   H24       1.0  0.019901606255253113  0.3246794714328018  0.7227408142769535  1.0000
  H   H25       1.0  0.9341579918615042  0.6227197205813795  0.17741489219750395  1.0000
  H   H26       1.0  0.06584193302701638  0.3772813290453101  0.8225849440331956  1.0000
  C   C1        1.0  0.2513508885871687  0.4137577973396204  0.08731485448595318  1.0000
  C   C2        1.0  0.7486503613344129  0.5862462930681288  0.9126854490766476  1.0000
  C   C3        1.0  0.3793739052300468  0.4590695073455606  0.036137258125798155  1.0000
  C   C4        1.0  0.6206280998087479  0.5409355748213684  0.963860777613668  1.0000
  C   C5        1.0  0.38244337952323104  0.5970667439273071  0.9842050086744366  1.0000
  C   C6        1.0  0.617555145872828  0.4029414084762806  0.015792248680575896  1.0000
  C   C7        1.0  0.5029859795046933  0.637519537786389  0.9501734582672796  1.0000
  C   C8        1.0  0.497015060671977  0.3624855389169214  0.04982289595851334  1.0000
  C   C9        1.0  0.04286319698805842  0.0873128854663108  0.7155194514902377  1.0000
  C   C10       1.0  0.9571388776014447  0.912682038949235  0.2844789053299976  1.0000
  C   C11       1.0  0.0195992599910539  0.0434290422923524  0.8624302894261362  1.0000
  C   C12       1.0  0.9804054994399181  0.9565668848096183  0.13756916259828955  1.0000
  C   C13       1.0  0.9096244362026058  0.9900234485872585  0.9236489430267413  1.0000
  C   C14       1.0  0.0903755259156256  0.009972529260458898  0.0763519489758409  1.0000
  C   C15       1.0  0.11004889261624842  0.051953534481398785  0.9403576174782343  1.0000
  C   C16       1.0  0.8899527894813276  0.9480434405891174  0.059642688214879114  1.0000
  C   C17       1.0  0.7869711238684544  0.43095580317204  0.48263861833242316  1.0000
  C   C18       1.0  0.21302899603885814  0.5690442175788064  0.5173597958460833  1.0000
  C   C19       1.0  0.6386094752060104  0.46827649367602203  0.4924398308950515  1.0000
  C   C20       1.0  0.3613892775298311  0.5317255438793254  0.5075552697166685  1.0000
  C   C21       1.0  0.5661804777654424  0.5420858494439001  0.37945331991446096  1.0000
  C   C22       1.0  0.4338182774247556  0.4579161952081563  0.6205426759287535  1.0000
  C   C23       1.0  0.5716829606215867  0.42586572789814164  0.6128791500203619  1.0000
  C   C24       1.0  0.4283157945686044  0.5741363167539149  0.3871168458228524  1.0000
  C   C25       1.0  0.4145901217096863  0.23411126958998807  0.4277893661894794  1.0000
  C   C26       1.0  0.5854071653844882  0.7658837339581623  0.5722140115349105  1.0000
  C   C27       1.0  0.6502620131114655  0.1607053054401248  0.40470295250038646  1.0000
  C   C28       1.0  0.3497365916527075  0.8392927175989368  0.5952982068614007  1.0000
  C   C29       1.0  0.5363188729338831  0.08486502183780689  0.6220119966258295  1.0000
  C   C30       1.0  0.46368242403482207  0.9151340251778207  0.377992943634652  1.0000
  N   N1        1.0  0.5287586515180892  0.1642995980386672  0.4829303244024032  1.0000
  N   N2        1.0  0.4712415129819903  0.8356953722233484  0.5170718312424895  1.0000
  Cl  Cl1       1.0  0.23770969032988623  0.7163502471506078  0.9624936031915611  1.0000
  Cl  Cl2       1.0  0.7622905873665077  0.2836538165033744  0.03750233316286972  1.0000
  Cl  Cl3       1.0  0.508146698621026  0.806470659475437  0.8977033129591659  1.0000
  Cl  Cl4       1.0  0.4918549016540725  0.193536437862889  0.1022921954956715  1.0000
  Cl  Cl5       1.0  0.797617170943923  0.9756236516669787  0.8323345741681222  1.0000
  Cl  Cl6       1.0  0.20238164111081153  0.024373377979813402  0.1676696392989783  1.0000
  Cl  Cl7       1.0  0.24827907865119414  0.11264765227062411  0.869097646709818  1.0000
  Cl  Cl8       1.0  0.751721438656759  0.8873503320186841  0.13090060905881273  1.0000
  Cl  Cl9       1.0  0.6472566437883884  0.5930315688110284  0.23113471147231474  1.0000
  Cl  Cl10      1.0  0.3527395941668345  0.4069735444445967  0.7688612922686318  1.0000
  Cl  Cl11      1.0  0.6602924348871184  0.33113846044802386  0.7507135940037202  1.0000
  Cl  Cl12      1.0  0.3397053628040113  0.6688636000305477  0.24928340602032498  1.0000
  O   O1        1.0  0.23587110160394079  0.37731673462903353  0.21052209710324382  1.0000
  O   O2        1.0  0.7641289859823815  0.6226883720942239  0.7894770517663758  1.0000
  O   O3        1.0  0.17252375019442218  0.41520008706498146  0.009872276772213728  1.0000
  O   O4        1.0  0.8274767347925335  0.584802983196731  0.9901267136875306  1.0000
  O   O5        1.0  0.041094115961747904  0.21261533527881946  0.6501044048924384  1.0000
  O   O6        1.0  0.958907193693115  0.7873785689906965  0.3498926388249402  1.0000
  O   O7        1.0  0.06419952918108858  0.9954147053147437  0.6690547513197983  1.0000
  O   O8        1.0  0.9358056301048734  0.0045791924223977  0.33094543752625327  1.0000
  O   O9        1.0  0.8367908183841523  0.3399314115241977  0.4374500568965517  1.0000
  O   O10       1.0  0.16321178643713105  0.6600706265954841  0.5625490840753428  1.0000
  O   O11       1.0  0.85505560150758  0.493243596676045  0.5169465354452072  1.0000
  O   O12       1.0  0.1449437681912187  0.5067554465090538  0.48305593701943644  1.0000
  O   O13       1.0  0.3050207874655868  0.2367765606055414  0.4875915071488278  1.0000
  O   O14       1.0  0.6949801419691185  0.7632194298025041  0.5124119615989216  1.0000
  O   O15       1.0  0.10410499407971942  0.11487958535452242  0.4151988304766546  1.0000
  O   O16       1.0  0.8958932157381697  0.8851204812428005  0.5848033825265163  1.0000
  O   O17       1.0  0.9766459938621141  0.3581206180127339  0.19359133069446696  1.0000
  O   O18       1.0  0.02335413095390488  0.6418794169315449  0.8064088739470421  1.0000
  O   O19       1.0  0.996353329730937  0.5986492138341147  0.24507418503207387  1.0000
  O   O20       1.0  0.003643520278537036  0.4013528908578364  0.7549274000988008  1.0000
