data_image0
_chemical_formula_structural       H16Pb2C34N4O8F12
_chemical_formula_sum              "H16 Pb2 C34 N4 O8 F12"
_cell_length_a       8.717779407091333
_cell_length_b       10.30390307531987
_cell_length_c       11.037161570544235
_cell_angle_alpha    97.42660615070601
_cell_angle_beta     99.68322000359251
_cell_angle_gamma    111.07322595320366

_space_group_name_H-M_alt    "P 1"
_space_group_IT_number       1

loop_
  _space_group_symop_operation_xyz
  'x, y, z'

loop_
  _atom_site_type_symbol
  _atom_site_label
  _atom_site_symmetry_multiplicity
  _atom_site_fract_x
  _atom_site_fract_y
  _atom_site_fract_z
  _atom_site_occupancy
  H   H1        1.0  0.887650687619882  0.576156050512715  0.31509080830970504  1.0000
  H   H2        1.0  0.1123797611282669  0.4238840887840852  0.6849004916442141  1.0000
  H   H3        1.0  0.6597723023308433  0.5317278142318005  0.12453200009452564  1.0000
  H   H4        1.0  0.340186425707067  0.46824091115919236  0.875493419545137  1.0000
  H   H5        1.0  0.6487562470073983  0.3725974475217555  0.9257160451789376  1.0000
  H   H6        1.0  0.3512323255384969  0.6274053351793185  0.07430399203064304  1.0000
  H   H7        1.0  0.7688961996273633  0.22168911461733393  0.8161428694591777  1.0000
  H   H8        1.0  0.231105945046636  0.7783253223211589  0.18388495479797481  1.0000
  H   H9        1.0  0.9793088288022462  0.1100535092740316  0.8215534914293984  1.0000
  H   H10       1.0  0.02064959717112198  0.8899344992896232  0.17844800650919987  1.0000
  H   H11       1.0  0.22245530135744218  0.0705764601522958  0.943450982841732  1.0000
  H   H12       1.0  0.7776586923066091  0.9294581818377453  0.05655621358815925  1.0000
  H   H13       1.0  0.4354795577878293  0.12496831062266273  0.14758042014744185  1.0000
  H   H14       1.0  0.5645616712274589  0.8750325087106605  0.8523956581265396  1.0000
  H   H15       1.0  0.41940674155698343  0.27956680168048814  0.33333764540611815  1.0000
  H   H16       1.0  0.580585748152842  0.720401932283913  0.6666786876166882  1.0000
  Pb  Pb1       1.0  0.21796821717079953  0.48399376718412424  0.4322313056300829  1.0000
  Pb  Pb2       1.0  0.7816078832079469  0.5159452831978014  0.5676442639724968  1.0000
  C   C1        1.0  0.792753953509802  0.235408877084069  0.41642907320229483  1.0000
  C   C2        1.0  0.2071958720388594  0.7645631760579406  0.5835720151646271  1.0000
  C   C3        1.0  0.7854376621662452  0.0933158642482468  0.3393334148402261  1.0000
  C   C4        1.0  0.21455239484411237  0.9066775451457191  0.6606457910962577  1.0000
  C   C5        1.0  0.6715824978020778  0.9605400840327294  0.3824597892126605  1.0000
  C   C6        1.0  0.3284587399186377  0.0394583485657662  0.6175667321191157  1.0000
  C   C7        1.0  0.6657091954536369  0.8118849840137087  0.32454710620869065  1.0000
  C   C8        1.0  0.33429339507111416  0.18810291721150213  0.6754657050043634  1.0000
  C   C9        1.0  0.5283224127687092  0.6882941055626901  0.36256182814855004  1.0000
  C   C10       1.0  0.47165685050562434  0.3116736809715945  0.6374345024374579  1.0000
  C   C11       1.0  0.8742130129378153  0.5035213683745852  0.2291071489210523  1.0000
  C   C12       1.0  0.12580980103083308  0.49651986236221995  0.7708805501273519  1.0000
  C   C13       1.0  0.748192480435229  0.47957271853910305  0.12116170729563448  1.0000
  C   C14       1.0  0.2517850175092279  0.5204162778195497  0.878850611301104  1.0000
  C   C15       1.0  0.7417082099286104  0.3924025522336052  0.012622296127041509  1.0000
  C   C16       1.0  0.258281404302778  0.6075874768421556  0.9873935787309451  1.0000
  C   C17       1.0  0.8603243145769353  0.3281215955735562  0.012494389800337985  1.0000
  C   C18       1.0  0.1396800724120624  0.6718801457278404  0.9875176609307773  1.0000
  C   C19       1.0  0.9815836470405371  0.3561159373989257  0.12655959989857024  1.0000
  C   C20       1.0  0.01846993073831968  0.6439188828547697  0.8734259702200051  1.0000
  C   C21       1.0  0.8617440899071767  0.23846531626310966  0.9024132779156419  1.0000
  C   C22       1.0  0.13824484599680895  0.7615182803226831  0.09761167440307625  1.0000
  C   C23       1.0  0.9778730047891175  0.17773060755928327  0.9056546934949241  1.0000
  C   C24       1.0  0.022111823104601875  0.8222466552569755  0.0943607703352782  1.0000
  C   C25       1.0  0.10356433805355181  0.2911565247995682  0.12982538468799731  1.0000
  C   C26       1.0  0.8964867700032073  0.7088655111394003  0.870162799252306  1.0000
  C   C27       1.0  0.10079412637007581  0.2019780209193769  0.018948002132546504  1.0000
  C   C28       1.0  0.899230275089117  0.7980141980113373  0.9810483211973066  1.0000
  C   C29       1.0  0.22248304195611723  0.14048554497698973  0.026357774183075805  1.0000
  C   C30       1.0  0.7775790051079738  0.8595375026651199  0.9736383365864612  1.0000
  C   C31       1.0  0.339119473009923  0.16938619435647692  0.13801895415799245  1.0000
  C   C32       1.0  0.6609498666747128  0.8306475013054923  0.8619749208466274  1.0000
  C   C33       1.0  0.33156580549718484  0.25753373274082497  0.24335412067853218  1.0000
  C   C34       1.0  0.6684749821219782  0.7424786689118291  0.7566468935024417  1.0000
  N   N1        1.0  0.21775288341423493  0.3160369458186594  0.2390482832815977  1.0000
  N   N2        1.0  0.7822937431350924  0.683982965963189  0.7609399453029796  1.0000
  N   N3        1.0  0.9863191424936987  0.4432440070455216  0.23205544958349833  1.0000
  N   N4        1.0  0.01374105449480815  0.5568324376427611  0.7679071771567367  1.0000
  O   O1        1.0  0.9317493141609534  0.3158359850907502  0.49185222228054937  1.0000
  O   O2        1.0  0.06817335832449345  0.6841103451108951  0.508189165503879  1.0000
  O   O3        1.0  0.6579899526340753  0.25487527476603594  0.3953248585708807  1.0000
  O   O4        1.0  0.3419605695223708  0.7450957595887571  0.6046671358498159  1.0000
  O   O5        1.0  0.5771520340687103  0.6352686591598697  0.4500842970613803  1.0000
  O   O6        1.0  0.4228277911944928  0.36475533669165827  0.5499526094443042  1.0000
  O   O7        1.0  0.37823492494804617  0.6539420749937507  0.30160707721228164  1.0000
  O   O8        1.0  0.6217595549876905  0.3459758843701266  0.6983461379158913  1.0000
  F   F1        1.0  0.9435329652901316  0.09156911556216579  0.3483730109330382  1.0000
  F   F2        1.0  0.05647669813026123  0.9084712879108284  0.6515711537075932  1.0000
  F   F3        1.0  0.7193947423892271  0.08288046128281223  0.21328387872819832  1.0000
  F   F4        1.0  0.280572747372041  0.9170969947198913  0.7866975852831362  1.0000
  F   F5        1.0  0.5097502403036104  0.9543915931031607  0.3567447211202791  1.0000
  F   F6        1.0  0.490293950678968  0.04561826763285381  0.6433361629774269  1.0000
  F   F7        1.0  0.727237388319665  0.9821246962420107  0.5103969361772799  1.0000
  F   F8        1.0  0.2728662637076695  0.017907758117125597  0.48962401205457706  1.0000
  F   F9        1.0  0.6292305145554167  0.7935912250537599  0.19479308137366766  1.0000
  F   F10       1.0  0.37079905237225563  0.20643707982070938  0.8052229070315705  1.0000
  F   F11       1.0  0.8219173209051933  0.8082230547819266  0.3604922524976787  1.0000
  F   F12       1.0  0.17808085386031539  0.19174786594958698  0.6395115196306094  1.0000
