data_image0
_chemical_formula_structural       Zn2H36C70N4O8
_chemical_formula_sum              "Zn2 H36 C70 N4 O8"
_cell_length_a       14.126149575804037
_cell_length_b       15.204125271709591
_cell_length_c       15.66138212315983
_cell_angle_alpha    102.98351135028997
_cell_angle_beta     89.89143387676813
_cell_angle_gamma    100.02341271103589

_space_group_name_H-M_alt    "P 1"
_space_group_IT_number       1

loop_
  _space_group_symop_operation_xyz
  'x, y, z'

loop_
  _atom_site_type_symbol
  _atom_site_label
  _atom_site_symmetry_multiplicity
  _atom_site_fract_x
  _atom_site_fract_y
  _atom_site_fract_z
  _atom_site_occupancy
  Zn  Zn1       1.0  0.5282633204038305  0.6014715476574822  0.4902831599682855  1.0000
  Zn  Zn2       1.0  0.4777311182623478  0.40706571678300923  0.5125436740727024  1.0000
  H   H1        1.0  0.024458756830725258  0.6004972794289782  0.4769623342372639  1.0000
  H   H2        1.0  0.639310123155802  0.7221069323730731  0.759116487384837  1.0000
  H   H3        1.0  0.6972654571238337  0.7572307502310593  0.9163714877510785  1.0000
  H   H4        1.0  0.4255367571119351  0.20461108666568614  0.0745990204349596  1.0000
  H   H5        1.0  0.6499325120142744  0.5973128414691332  0.14703631005956913  1.0000
  H   H6        1.0  0.5088100403849224  0.3509640052665475  0.8378010799245528  1.0000
  H   H7        1.0  0.5998203122605119  0.6591576048252676  0.3406339049876337  1.0000
  H   H8        1.0  0.33065278423450906  0.3262390562828869  0.604763828753839  1.0000
  H   H9        1.0  0.14788666370839817  0.03807052509121428  0.5573677131366636  1.0000
  H   H10       1.0  0.005997863065871897  0.0019044382956323875  0.6451531508242779  1.0000
  H   H11       1.0  0.024181934512505183  0.9430794985811275  0.7794068719510534  1.0000
  H   H12       1.0  0.9805405657219237  0.41868639225329213  0.5383271975166579  1.0000
  H   H13       1.0  0.18586389515615306  0.9213228014602777  0.8253838841852711  1.0000
  H   H14       1.0  0.3277973623963816  0.9576861835840094  0.7376451316288167  1.0000
  H   H15       1.0  0.48435195855322627  0.8315201988022313  0.17868138531358824  1.0000
  H   H16       1.0  0.5301939321237085  0.844894671898139  0.028708424151588523  1.0000
  H   H17       1.0  0.6542703136410635  0.9750903375210812  0.006822260309007828  1.0000
  H   H18       1.0  0.7337204434826814  0.09088538835065661  0.1367625229901819  1.0000
  H   H19       1.0  0.688142248742963  0.07759370777061751  0.2868024033162158  1.0000
  H   H20       1.0  0.6157597935497278  0.9192154914908954  0.6217395978596869  1.0000
  H   H21       1.0  0.5987939398942999  0.9443931818007485  0.7829186283260299  1.0000
  H   H22       1.0  0.4637586683879818  0.8508974840574909  0.8434135934264119  1.0000
  H   H23       1.0  0.265428791848592  0.17889729933860113  0.6469417094204601  1.0000
  H   H24       1.0  0.3468695296119435  0.7316795933111281  0.741551847455753  1.0000
  H   H25       1.0  0.3652176994896549  0.7059098519245239  0.5807290692765648  1.0000
  H   H26       1.0  0.6387963104326531  0.17500480092581944  0.5834359253830144  1.0000
  H   H27       1.0  0.8094930545163663  0.19887244589354222  0.5420824608497696  1.0000
  H   H28       1.0  0.8544191968555878  0.2565214437185759  0.4077183691766137  1.0000
  H   H29       1.0  0.7275494209320854  0.29202577692186077  0.31696151691595276  1.0000
  H   H30       1.0  0.5575582192326749  0.27058189817275036  0.3601502405877497  1.0000
  H   H31       1.0  0.6167081622736176  0.7917772812978472  0.2682480841789854  1.0000
  H   H32       1.0  0.35612368804452627  0.8807281614232141  0.5732388692121546  1.0000
  H   H33       1.0  0.5323788763109363  0.0904416406577155  0.3552589136743975  1.0000
  H   H34       1.0  0.5595723756520457  0.5286401143131343  0.2184033545003743  1.0000
  H   H35       1.0  0.5080641781262614  0.4517287807108943  0.7744678744211839  1.0000
  H   H36       1.0  0.4252336597680113  0.2599053429953813  0.23726225578837298  1.0000
  C   C1        1.0  0.5329139597003802  0.5610029526096553  0.6662593813824671  1.0000
  C   C2        1.0  0.5164520753159678  0.37362541645489245  0.9088493384090839  1.0000
  C   C3        1.0  0.6607884114276601  0.6422959455514458  0.027628191496077596  1.0000
  C   C4        1.0  0.4890358349805979  0.30981370238842487  0.9587638877377029  1.0000
  C   C5        1.0  0.3252998129302042  0.18296245085452506  0.6032455687669227  1.0000
  C   C6        1.0  0.5813893513728701  0.7945580688532701  0.3304852814899207  1.0000
  C   C7        1.0  0.3624371432409674  0.2650707713956919  0.5824799041998573  1.0000
  C   C8        1.0  0.5745681621728949  0.7221933623715915  0.3707472907460385  1.0000
  C   C9        1.0  0.4864938637987207  0.2043080224692133  0.5041892725682757  1.0000
  C   C10       1.0  0.5069688317260486  0.8006020264434639  0.4950375005527334  1.0000
  C   C11       1.0  0.4437188224649162  0.11408473343239221  0.5107358664216761  1.0000
  C   C12       1.0  0.48958377599583963  0.43464868681868296  0.33290827300836406  1.0000
  C   C13       1.0  0.5006246549351799  0.8743893633163111  0.4540740212148506  1.0000
  C   C14       1.0  0.36505426072473307  0.10422492107647228  0.5672466754873753  1.0000
  C   C15       1.0  0.5435698019392844  0.8730693739295032  0.37088533252075  1.0000
  C   C16       1.0  0.3189961866424085  0.5058649773304537  0.5017377351919947  1.0000
  C   C17       1.0  0.6856265010950153  0.5069550074397  0.4998077082924581  1.0000
  C   C18       1.0  0.4791785286460737  0.0333114195173891  0.4644719280279688  1.0000
  C   C19       1.0  0.4557650825729452  0.9516564867481704  0.49468729450497045  1.0000
  C   C20       1.0  0.3812165850387856  0.945783629781161  0.5556465470059564  1.0000
  C   C21       1.0  0.5248492311785995  0.030430762554935594  0.38319992171147277  1.0000
  C   C22       1.0  0.33194874725899837  0.016349733571438197  0.5870617062099655  1.0000
  C   C23       1.0  0.5811388335012849  0.5344103941970317  0.8962320050317274  1.0000
  C   C24       1.0  0.5504065196776722  0.9519931310058071  0.3332232044008308  1.0000
  C   C25       1.0  0.7853627880436774  0.49842615518094385  0.5063233153630762  1.0000
  C   C26       1.0  0.21972766604305594  0.5178679664276659  0.5017919584159642  1.0000
  C   C27       1.0  0.9653432476455632  0.47903918033547643  0.5175147163553575  1.0000
  C   C28       1.0  0.0399516326696627  0.5399677312108225  0.4972276650337689  1.0000
  C   C29       1.0  0.1360747969004592  0.5284433789672747  0.5004765584132045  1.0000
  C   C30       1.0  0.8692447611892998  0.48995767153049036  0.5123567545130925  1.0000
  C   C31       1.0  0.5700217253171471  0.5841695587047013  0.7597510785116767  1.0000
  C   C32       1.0  0.4930859776676825  0.39831050515465455  0.23582934615090068  1.0000
  C   C33       1.0  0.6558975355628573  0.6900649162402034  0.8852825267031932  1.0000
  C   C34       1.0  0.5358104977251869  0.4289076843197392  0.0933178274993551  1.0000
  C   C35       1.0  0.45631986222215193  0.2754237495168185  0.1060414912721299  1.0000
  C   C36       1.0  0.6242936843060746  0.6710790322580424  0.7985683701979411  1.0000
  C   C37       1.0  0.45602965821519353  0.3057290185979227  0.1960378676281778  1.0000
  C   C38       1.0  0.5505208475440568  0.5172770096633315  0.8077098326147478  1.0000
  C   C39       1.0  0.5333115651665422  0.45769980941784644  0.18498485378449914  1.0000
  C   C40       1.0  0.7204748719842083  0.7269035450823437  0.06867532568679022  1.0000
  C   C41       1.0  0.4538323566841597  0.2166021689950526  0.9159242804509231  1.0000
  C   C42       1.0  0.2475484750423362  0.9999624110470577  0.6414519678735927  1.0000
  C   C43       1.0  0.1564347807062632  0.013381884982379692  0.616699984095078  1.0000
  C   C44       1.0  0.07658929370452934  0.9926717153888659  0.6659272406113601  1.0000
  C   C45       1.0  0.6337073941868426  0.6234170314331566  0.935920930677142  1.0000
  C   C46       1.0  0.08666792568771338  0.9592639336724744  0.7409978260011059  1.0000
  C   C47       1.0  0.17713228663161823  0.9465807765699451  0.7664836806194515  1.0000
  C   C48       1.0  0.2570169835814013  0.9665140354336614  0.7170463012595647  1.0000
  C   C49       1.0  0.5832866154075164  0.953495458606696  0.243468232092269  1.0000
  C   C50       1.0  0.5400248406894405  0.8878147789833973  0.1697176731954713  1.0000
  C   C51       1.0  0.5652331528774255  0.8958884162684128  0.08525980539874921  1.0000
  C   C52       1.0  0.6345971004700246  0.9689858797013358  0.07289778060055603  1.0000
  C   C53       1.0  0.6788949430834846  0.03397680001136649  0.14568972386293666  1.0000
  C   C54       1.0  0.6534355138641814  0.0264998927253117  0.23017335508499306  1.0000
  C   C55       1.0  0.4916961430507312  0.8106912894381323  0.5908607599535286  1.0000
  C   C56       1.0  0.4939257918500246  0.33639411587491  0.05306462557913251  1.0000
  C   C57       1.0  0.5571493652040544  0.8779307452846935  0.64846431943905  1.0000
  C   C58       1.0  0.5475036351991774  0.8919466591096283  0.7389004638338221  1.0000
  C   C59       1.0  0.4717807012766002  0.8394243501653805  0.7727135057363128  1.0000
  C   C60       1.0  0.40636972554581524  0.7727384234968399  0.7156841697578926  1.0000
  C   C61       1.0  0.41610627323556315  0.7580963383263751  0.6251284850256198  1.0000
  C   C62       1.0  0.5870027956838229  0.2213777703963586  0.4744009690849254  1.0000
  C   C63       1.0  0.658655775415056  0.20093412538079752  0.5250935663185102  1.0000
  C   C64       1.0  0.7544451084102448  0.21403670351588033  0.5015617104076213  1.0000
  C   C65       1.0  0.7795604265631298  0.2464846881545881  0.4264342781106123  1.0000
  C   C66       1.0  0.7084941699032185  0.2664418179525327  0.3756128758678726  1.0000
  C   C67       1.0  0.5568755700603986  0.4662793106812018  0.9478782666643966  1.0000
  C   C68       1.0  0.6127379243108066  0.2543645210314196  0.3994884819888895  1.0000
  C   C69       1.0  0.5740704503522948  0.49202589674178654  0.03991898166722761  1.0000
  C   C70       1.0  0.6291909804617147  0.5795362139928597  0.0775950008252764  1.0000
  N   N1        1.0  0.44340537500769966  0.27648877840752556  0.5358511267517159  1.0000
  N   N2        1.0  0.5392372954225593  0.7251790803262209  0.45204609973917087  1.0000
  N   N3        1.0  0.7700639849837002  0.795764006508236  0.10280393639514779  1.0000
  N   N4        1.0  0.42590604599435977  0.139809485680729  0.881424593890415  1.0000
  O   O1        1.0  0.5562108153165966  0.6215033531341307  0.6219146423125821  1.0000
  O   O2        1.0  0.4702911433272305  0.3749279313614764  0.3788976304605923  1.0000
  O   O3        1.0  0.4816887800836439  0.48189215386572215  0.639096155305765  1.0000
  O   O4        1.0  0.5068322342717764  0.5209550160874912  0.36104499903787973  1.0000
  O   O5        1.0  0.380633978528813  0.5765025930525242  0.4969825006978398  1.0000
  O   O6        1.0  0.6253244540499734  0.44266798235304344  0.5197831165790275  1.0000
  O   O7        1.0  0.33518063096614265  0.4274703222325655  0.5062427735708752  1.0000
  O   O8        1.0  0.6677509090299051  0.5770583538759408  0.4755309937989835  1.0000
