data_image0
_chemical_formula_structural       Zn2H40C22I4N4O18
_chemical_formula_sum              "Zn2 H40 C22 I4 N4 O18"
_cell_length_a       7.886712709141549
_cell_length_b       8.046706624225846
_cell_length_c       14.501217214368303
_cell_angle_alpha    89.99931332657356
_cell_angle_beta     90.00044266285218
_cell_angle_gamma    90.00051984473512

_space_group_name_H-M_alt    "P 1"
_space_group_IT_number       1

loop_
  _space_group_symop_operation_xyz
  'x, y, z'

loop_
  _atom_site_type_symbol
  _atom_site_label
  _atom_site_symmetry_multiplicity
  _atom_site_fract_x
  _atom_site_fract_y
  _atom_site_fract_z
  _atom_site_occupancy
  Zn  Zn1       1.0  0.4312410600601739  0.7280869642753417  0.49999719745176907  1.0000
  Zn  Zn2       1.0  0.9312333402040734  0.27190672871353877  2.427103950699999e-06  1.0000
  H   H1        1.0  0.6737344999891376  0.6538938443699107  0.8345684879403023  1.0000
  H   H2        1.0  0.17372888916160895  0.34610414638096637  0.6654350757500964  1.0000
  H   H3        1.0  0.1737341428040438  0.3460990159571153  0.33456974708234805  1.0000
  H   H4        1.0  0.6737398827593709  0.6538936054069426  0.1654253493590261  1.0000
  H   H5        1.0  0.5970432130521245  0.8619909929772547  0.8405891977969161  1.0000
  H   H6        1.0  0.09703561087410151  0.1380075511945122  0.6594154233864413  1.0000
  H   H7        1.0  0.09703461042174413  0.138006019106669  0.3405904632656486  1.0000
  H   H8        1.0  0.5970485101318843  0.8619896411684493  0.1594029322579757  1.0000
  H   H9        1.0  0.3246735001692683  0.9106053487432958  0.7794322192018439  1.0000
  H   H10       1.0  0.8246571038249257  0.08939399866272879  0.7205657712270223  1.0000
  H   H11       1.0  0.8246539652754024  0.08939751396815859  0.2794386640425727  1.0000
  H   H12       1.0  0.32467586364801804  0.9106001920843524  0.22056465104660108  1.0000
  H   H13       1.0  0.2443516065114366  0.8579325574639186  0.8899698434761731  1.0000
  H   H14       1.0  0.7443442632237449  0.14206855358476392  0.6100236724572738  1.0000
  H   H15       1.0  0.744347769467936  0.1420709270316252  0.38997938562821577  1.0000
  H   H16       1.0  0.24435493299425556  0.8579310281048151  0.1100270405433434  1.0000
  H   H17       1.0  0.4789128071415618  0.46807953731842383  0.9056599714930939  1.0000
  H   H18       1.0  0.9789227582623283  0.5319149827686402  0.5943400451865699  1.0000
  H   H19       1.0  0.9789252196910994  0.5319145324221922  0.4056600220184592  1.0000
  H   H20       1.0  0.4789133744893875  0.46807958911009706  0.0943418713389335  1.0000
  H   H21       1.0  0.26372342023606876  0.5328875420380328  0.9196870923586642  1.0000
  H   H22       1.0  0.7637325782583915  0.4671137431834039  0.5803078840619875  1.0000
  H   H23       1.0  0.763733971381633  0.467112990160949  0.4196889535578165  1.0000
  H   H24       1.0  0.2637237879781793  0.5328878964330739  0.08031410591345177  1.0000
  H   H25       1.0  0.3760825275382801  0.7957649142995746  0.9999983317143231  1.0000
  H   H26       1.0  0.8760805276855379  0.20423116697877927  0.5000019431920036  1.0000
  H   H27       1.0  0.5802444825684815  0.7039779694448708  0.9999990654794999  1.0000
  H   H28       1.0  0.08024620264234983  0.2960117246007457  0.5000027268984013  1.0000
  H   H29       1.0  0.3769130450075623  0.594149464192064  0.7742648506384737  1.0000
  H   H30       1.0  0.8769072279375154  0.4058515955339175  0.7257333589351729  1.0000
  H   H31       1.0  0.8769154274091877  0.40585273692829565  0.2742664301117657  1.0000
  H   H32       1.0  0.37692562569795734  0.594147924307819  0.22573503537140732  1.0000
  H   H33       1.0  0.7175323355801954  0.8346219049285677  0.556916803027029  1.0000
  H   H34       1.0  0.21752141287372953  0.165375236722916  0.9430855651784924  1.0000
  H   H35       1.0  0.21752525153857502  0.1653723676199874  0.056919265473780484  1.0000
  H   H36       1.0  0.7175378654338475  0.8346231328053902  0.443080841843205  1.0000
  H   H37       1.0  0.8932112404332744  0.8170894368517023  0.7295103275953847  1.0000
  H   H38       1.0  0.3932068980441842  0.18292419682813937  0.7704865711106804  1.0000
  H   H39       1.0  0.3932017811588082  0.1829250608093531  0.22951681081885056  1.0000
  H   H40       1.0  0.8932219219825158  0.8170819605974131  0.2704826541882355  1.0000
  C   C1        1.0  0.5797855440257749  0.7408560087136137  0.8066717224771619  1.0000
  C   C2        1.0  0.07977826583505279  0.2591436231148022  0.6933307575209608  1.0000
  C   C3        1.0  0.07978185457484703  0.2591428227187009  0.30667149181194014  1.0000
  C   C4        1.0  0.5797976635561781  0.740853925197399  0.19332596892594006  1.0000
  C   C5        1.0  0.5980269426261985  0.7555402428117475  0.7022377200239018  1.0000
  C   C6        1.0  0.09800833653180521  0.24446452385225104  0.79776897403395  1.0000
  C   C7        1.0  0.09802185075986361  0.24445603443439268  0.20224103512122574  1.0000
  C   C8        1.0  0.598057031656218  0.7555433629835021  0.2977578813540233  1.0000
  C   C9        1.0  0.27434438008871354  0.8091482561184689  0.8213627246387105  1.0000
  C   C10       1.0  0.7743409957480198  0.1908543672445829  0.6786329859000233  1.0000
  C   C11       1.0  0.7743371859145826  0.19085449248088074  0.3213705627759679  1.0000
  C   C12       1.0  0.2743499507727947  0.8091477322770686  0.17863116202153145  1.0000
  C   C13       1.0  0.11597992365306453  0.7429694131572899  0.7753595780199021  1.0000
  C   C14       1.0  0.61597019234749  0.2570516706672946  0.7246396057391633  1.0000
  C   C15       1.0  0.6159695317457407  0.25705651660948087  0.2753649066494788  1.0000
  C   C16       1.0  0.11597854116682528  0.7429504984188282  0.22463891221132568  1.0000
  C   C17       1.0  0.39568097310179706  0.5760064441508418  0.9152696653726549  1.0000
  C   C18       1.0  0.8956885311556776  0.42399229885442213  0.5847265541704019  1.0000
  C   C19       1.0  0.8956911293829819  0.42399039836756447  0.4152745720666573  1.0000
  C   C20       1.0  0.3956839395799605  0.5760054605607863  0.08472766175142249  1.0000
  C   C21       1.0  0.44372232934888717  0.6762629119290294  0.9999988714121598  1.0000
  C   C22       1.0  0.9437252277093295  0.32373129182759897  0.500001687238175  1.0000
  I   I1        1.0  0.42639343986149214  0.40165898594213434  0.4999996531905494  1.0000
  I   I2        1.0  0.9263970921472622  0.5983387903069682  1.431629997000004e-07  1.0000
  I   I3        1.0  0.14053507606474372  0.8782129156483051  0.49999884634699027  1.0000
  I   I4        1.0  0.6405196416437348  0.12179059188348867  2.483378977999995e-07  1.0000
  N   N1        1.0  0.4059119389018377  0.6757190354491697  0.8277173941512642  1.0000
  N   N2        1.0  0.9059109540151129  0.3242810421732329  0.6722830058687917  1.0000
  N   N3        1.0  0.9059148422436465  0.32427854499746894  0.3277181375529564  1.0000
  N   N4        1.0  0.40592249098162364  0.6757161632105877  0.17227793280975587  1.0000
  O   O1        1.0  0.6532289811646663  0.8653938251880858  0.5000006539143412  1.0000
  O   O2        1.0  0.15322161530606593  0.1345973689833926  2.631659057799999e-06  1.0000
  O   O3        1.0  0.46747273599942946  0.7324897487701847  0.6543305100540167  1.0000
  O   O4        1.0  0.9674711625208587  0.2675009402086133  0.8456694586267659  1.0000
  O   O5        1.0  0.9674662437372419  0.26750218334651527  0.15433094184826496  1.0000
  O   O6        1.0  0.4674667360378423  0.7324918352927979  0.3456667658848787  1.0000
  O   O7        1.0  0.7459934671078371  0.7895912013775116  0.6708633093881529  1.0000
  O   O8        1.0  0.24599908681354074  0.21042235181192837  0.8291412469746857  1.0000
  O   O9        1.0  0.24599059935550124  0.21041578186221696  0.17086409278344658  1.0000
  O   O10       1.0  0.7459897677267192  0.789583702649004  0.3291299275196096  1.0000
  O   O11       1.0  0.10542967939346684  0.5983477585684225  0.748219557060821  1.0000
  O   O12       1.0  0.6054292662898462  0.40165458936540677  0.7517740657469715  1.0000
  O   O13       1.0  0.6054269516269599  0.4016612633934074  0.2482308188157418  1.0000
  O   O14       1.0  0.10544136273243511  0.5983481423469498  0.2517770934093591  1.0000
  O   O15       1.0  0.9994232526127365  0.8586394234851366  0.767395507601833  1.0000
  O   O16       1.0  0.4994040430313049  0.14136149461498349  0.7325976990573364  1.0000
  O   O17       1.0  0.49940834100419107  0.14136154125070274  0.2674091634798614  1.0000
  O   O18       1.0  0.9994245193765254  0.8586315217128797  0.2325976430410036  1.0000
