data_image0
_chemical_formula_structural       K8H32C36S4O44
_chemical_formula_sum              "K8 H32 C36 S4 O44"
_cell_length_a       7.193042875000923
_cell_length_b       11.394952320724803
_cell_length_c       16.922677462674987
_cell_angle_alpha    95.87861400415045
_cell_angle_beta     89.99994699012073
_cell_angle_gamma    90.00002126643783

_space_group_name_H-M_alt    "P 1"
_space_group_IT_number       1

loop_
  _space_group_symop_operation_xyz
  'x, y, z'

loop_
  _atom_site_type_symbol
  _atom_site_label
  _atom_site_symmetry_multiplicity
  _atom_site_fract_x
  _atom_site_fract_y
  _atom_site_fract_z
  _atom_site_occupancy
  K   K1        1.0  0.6563918033750724  0.37348234358029947  0.837659575806008  1.0000
  K   K2        1.0  0.15638378195059488  0.12652323950161562  0.6623416904032313  1.0000
  K   K3        1.0  0.343611177706606  0.6265217932023007  0.16233501649929147  1.0000
  K   K4        1.0  0.843610857729402  0.8734826726798985  0.33766129621621854  1.0000
  K   K5        1.0  0.15685353999073476  0.5727927426647597  0.9059235894172064  1.0000
  K   K6        1.0  0.6568468061202495  0.9271988486729938  0.5940771902237929  1.0000
  K   K7        1.0  0.8431466606199151  0.42720257817239116  0.09407512751564441  1.0000
  K   K8        1.0  0.3431603456411523  0.0727938380265627  0.4059308013801229  1.0000
  H   H1        1.0  0.8600898327063361  0.19424695251053953  0.9719881912054124  1.0000
  H   H2        1.0  0.360080794038943  0.30575337886473614  0.5280126327615093  1.0000
  H   H3        1.0  0.1399145386011895  0.805752780213318  0.02801141829706211  1.0000
  H   H4        1.0  0.6399138456462622  0.6942472321651467  0.4719840821776702  1.0000
  H   H5        1.0  0.7715686141676343  0.6433534907377946  0.6728184601065055  1.0000
  H   H6        1.0  0.27156314625607797  0.856648709120634  0.8271818161665225  1.0000
  H   H7        1.0  0.22844270830134414  0.35664800642818767  0.3271812700320569  1.0000
  H   H8        1.0  0.7284342738901586  0.14335014138180213  0.17281773301859008  1.0000
  H   H9        1.0  0.5100698909723178  0.14948524583725487  0.7548020638055067  1.0000
  H   H10       1.0  0.010071542636502798  0.35051589311601106  0.7451965946043801  1.0000
  H   H11       1.0  0.48992613894123593  0.8505144876684839  0.2451981366754056  1.0000
  H   H12       1.0  0.9899258775112969  0.6494847202623646  0.2548018932646202  1.0000
  H   H13       1.0  0.3963988583917271  0.09017897490957687  0.8214559266846497  1.0000
  H   H14       1.0  0.8963988900175508  0.4098240081988538  0.6785432909875199  1.0000
  H   H15       1.0  0.6035985617543815  0.9098225230377254  0.1785443944334518  1.0000
  H   H16       1.0  0.10359574966518181  0.5901766059619789  0.32145578785881673  1.0000
  H   H17       1.0  0.2545563036471847  0.29181513036513707  0.8147583526400768  1.0000
  H   H18       1.0  0.7545492667143137  0.20818164665217156  0.6852393167856692  1.0000
  H   H19       1.0  0.7454466774304224  0.7081837170069107  0.18523883263678445  1.0000
  H   H20       1.0  0.24544398273496168  0.7918189690739934  0.31476094401451615  1.0000
  H   H21       1.0  0.0692522032132885  0.29848775874529576  0.8614815364132584  1.0000
  H   H22       1.0  0.5692452606304174  0.20150898119513982  0.6385167970655917  1.0000
  H   H23       1.0  0.9307521680953101  0.7015110901923762  0.13851683081691146  1.0000
  H   H24       1.0  0.43074937905120686  0.7984889870863086  0.36148269180133513  1.0000
  H   H25       1.0  0.8762349896176218  0.91345001411014  0.7753796271696206  1.0000
  H   H26       1.0  0.3762365490005664  0.5865522079162133  0.7246211988026874  1.0000
  H   H27       1.0  0.12376799145780379  0.0865470711687166  0.2246192104001424  1.0000
  H   H28       1.0  0.6237678223054245  0.4134492915972742  0.2753803042676212  1.0000
  H   H29       1.0  0.6550553541863876  0.8552564272599599  0.04370606407442783  1.0000
  H   H30       1.0  0.1550564586099838  0.6447427138188003  0.4562952798781908  1.0000
  H   H31       1.0  0.3449476268884553  0.14474418846720027  0.9562941967238392  1.0000
  H   H32       1.0  0.8449423517674005  0.3552570204699705  0.5437055115789563  1.0000
  C   C1        1.0  0.7663397263212205  0.9813805363522762  0.9701596315607907  1.0000
  C   C2        1.0  0.26633192683863166  0.518615490023592  0.529842588450798  1.0000
  C   C3        1.0  0.2336604742900832  0.018618313367710502  0.029839326646985912  1.0000
  C   C4        1.0  0.7336627128416281  0.4813851272681972  0.4701588543026959  1.0000
  C   C5        1.0  0.8272653493013563  0.997452764491186  0.8919447795034261  1.0000
  C   C6        1.0  0.32726015837351946  0.5025476846535142  0.6080571270979508  1.0000
  C   C7        1.0  0.17273763177563953  0.0025460836636029  0.10805299675022442  1.0000
  C   C8        1.0  0.6727386520016906  0.49745028754205123  0.3919453166521054  1.0000
  C   C9        1.0  0.8281481815963331  0.8994054112712747  0.8346303317261319  1.0000
  C   C10       1.0  0.3281429210040159  0.600594155833079  0.6653715142083672  1.0000
  C   C11       1.0  0.1718534092453439  0.10059344079706993  0.16537039941173506  1.0000
  C   C12       1.0  0.6718517186760807  0.3994055792379996  0.3346298682263936  1.0000
  C   C13       1.0  0.7769472732237189  0.7864588459496814  0.8506932715683395  1.0000
  C   C14       1.0  0.2769421041555802  0.7135424735697243  0.6493075332415689  1.0000
  C   C15       1.0  0.22305431761935773  0.21354088677389169  0.14930633793468226  1.0000
  C   C16       1.0  0.7230567062200778  0.28645461562239666  0.350694259212972  1.0000
  C   C17       1.0  0.7141754234190217  0.771783276472789  0.927749676431944  1.0000
  C   C18       1.0  0.21417320358512631  0.7282153843425619  0.5722515631526195  1.0000
  C   C19       1.0  0.2858233869577518  0.22821645859871614  0.07225170600199253  1.0000
  C   C20       1.0  0.7858214360957518  0.2717852321664865  0.42774928862408523  1.0000
  C   C21       1.0  0.7079443673707785  0.8681174418495559  0.9850114027585736  1.0000
  C   C22       1.0  0.2079422179701638  0.6318794516858476  0.5149885366922009  1.0000
  C   C23       1.0  0.29205722347320767  0.1318805248671282  0.01498690415341031  1.0000
  C   C24       1.0  0.7920552021728183  0.3681185205095829  0.4850139070581252  1.0000
  C   C25       1.0  0.758723381929208  0.07198814497689911  0.042022898354169114  1.0000
  C   C26       1.0  0.2587246280668722  0.4280091299309988  0.4579783963415452  1.0000
  C   C27       1.0  0.24127403822090088  0.928011583049816  0.9579731652889408  1.0000
  C   C28       1.0  0.741279743237726  0.5719914889272601  0.5420242283636088  1.0000
  C   C29       1.0  0.8960468953718389  0.10828060334524987  0.858789416846655  1.0000
  C   C30       1.0  0.39603766390569456  0.3917170855833304  0.6412088480769642  1.0000
  C   C31       1.0  0.10395747593659621  0.891717363371711  0.14120889006477463  1.0000
  C   C32       1.0  0.6039569757728387  0.6082808866118086  0.35879359567391605  1.0000
  C   C33       1.0  0.8031379003906095  0.6871737232552348  0.785955514385819  1.0000
  C   C34       1.0  0.30313264676053814  0.8128328941566988  0.7140450510311853  1.0000
  C   C35       1.0  0.19686508068361522  0.3128268932546661  0.2140453373892371  1.0000
  C   C36       1.0  0.6968647733841352  0.18716419346979757  0.2859555594700468  1.0000
  S   S1        1.0  0.6288512474569218  0.6334257149624065  0.9544355780375827  1.0000
  S   S2        1.0  0.12885471533643766  0.8665738059451514  0.5455622096522037  1.0000
  S   S3        1.0  0.3711461726914962  0.3665748976332281  0.045562318854628414  1.0000
  S   S4        1.0  0.8711538266642549  0.1334303433618445  0.4544418382806229  1.0000
  O   O1        1.0  0.6999720921790952  0.041163152099116494  0.10703656181744496  1.0000
  O   O2        1.0  0.199972099936879  0.4588367559017854  0.3929637550502251  1.0000
  O   O3        1.0  0.3000267182009253  0.9588374612794087  0.8929619260512783  1.0000
  O   O4        1.0  0.8000308811392356  0.5411673879254691  0.6070361560461779  1.0000
  O   O5        1.0  0.8152544272001379  0.17860797606212486  0.037266670994220916  1.0000
  O   O6        1.0  0.3152611696507464  0.32139371915155834  0.4627331300701771  1.0000
  O   O7        1.0  0.1847360417893356  0.8213943986260046  0.962729573606453  1.0000
  O   O8        1.0  0.6847432016577242  0.6786077772309725  0.5372660090929744  1.0000
  O   O9        1.0  0.9041324628604883  0.20795622030069444  0.9053197462979414  1.0000
  O   O10       1.0  0.4041121557941878  0.2920432417647945  0.5946839548678045  1.0000
  O   O11       1.0  0.09588442053657079  0.7920408657623101  0.09467968224587517  1.0000
  O   O12       1.0  0.5958769229579132  0.7079547272988262  0.4053161249770129  1.0000
  O   O13       1.0  0.9426572839157358  0.10357869893348949  0.7881161519765673  1.0000
  O   O14       1.0  0.44266041905619596  0.39642253544684536  0.711887654629415  1.0000
  O   O15       1.0  0.057341526463794396  0.8964192677829105  0.2118821549359709  1.0000
  O   O16       1.0  0.5573342206246467  0.6035745513966263  0.2881123648955752  1.0000
  O   O17       1.0  0.7431230454136823  0.7130740882543236  0.7158978763159356  1.0000
  O   O18       1.0  0.24311902213236178  0.7869272259200243  0.7841041237862074  1.0000
  O   O19       1.0  0.25688966728722556  0.28692917413595614  0.28410256543660506  1.0000
  O   O20       1.0  0.7568728370845149  0.21307250758529517  0.2158960766955219  1.0000
  O   O21       1.0  0.8809894791536265  0.5936400557077945  0.797063020101405  1.0000
  O   O22       1.0  0.38097595532738643  0.906359521409023  0.7029382140194973  1.0000
  O   O23       1.0  0.11900238006013102  0.4063561520456462  0.20293930301256324  1.0000
  O   O24       1.0  0.6190284159779581  0.0936384492216362  0.297063047775879  1.0000
  O   O25       1.0  0.5204312677466021  0.5858979383951282  0.8846670051277248  1.0000
  O   O26       1.0  0.0204248823748543  0.914103322453258  0.6153291730274902  1.0000
  O   O27       1.0  0.47956754263127266  0.41410444255576806  0.11533396728562202  1.0000
  O   O28       1.0  0.9795780987000242  0.0859008229394718  0.38467192002249123  1.0000
  O   O29       1.0  0.5156428361597207  0.661671113412723  0.02543689472601332  1.0000
  O   O30       1.0  0.0156453918447212  0.8383244640379602  0.47455953511565974  1.0000
  O   O31       1.0  0.4843573644511636  0.33833214897627784  0.974563547028993  1.0000
  O   O32       1.0  0.984365930625394  0.16168320867298291  0.5254406172540201  1.0000
  O   O33       1.0  0.7941387044017958  0.561527313575887  0.9681101906977081  1.0000
  O   O34       1.0  0.29413667683076733  0.9384695944389991  0.5318873508543833  1.0000
  O   O35       1.0  0.2058587157444407  0.4384715369265563  0.03188935848741181  1.0000
  O   O36       1.0  0.7058704749367521  0.06153279120917429  0.4681171674180435  1.0000
  O   O37       1.0  0.42118535031283943  0.16529499798247824  0.8001171704638781  1.0000
  O   O38       1.0  0.9211783476083183  0.33470887632378066  0.6998850526375764  1.0000
  O   O39       1.0  0.5788106796002593  0.8347056185267121  0.19988368131254936  1.0000
  O   O40       1.0  0.0788135116084376  0.6652935046263976  0.30011591977713453  1.0000
  O   O41       1.0  0.1480575636035866  0.34505605629677655  0.8282374074792788  1.0000
  O   O42       1.0  0.6480519178102212  0.1549415827480232  0.6717615462172407  1.0000
  O   O43       1.0  0.8519440272410177  0.6549419096371664  0.17176030845591586  1.0000
  O   O44       1.0  0.35194272187172965  0.8450581499748396  0.3282380632871523  1.0000
