data_image0
_chemical_formula_structural       Zn2H22C34N2O10
_chemical_formula_sum              "Zn2 H22 C34 N2 O10"
_cell_length_a       9.563192578092126
_cell_length_b       11.063587970212982
_cell_length_c       14.779062294373933
_cell_angle_alpha    93.18044550285877
_cell_angle_beta     101.28850560777568
_cell_angle_gamma    88.04832889675843

_space_group_name_H-M_alt    "P 1"
_space_group_IT_number       1

loop_
  _space_group_symop_operation_xyz
  'x, y, z'

loop_
  _atom_site_type_symbol
  _atom_site_label
  _atom_site_symmetry_multiplicity
  _atom_site_fract_x
  _atom_site_fract_y
  _atom_site_fract_z
  _atom_site_occupancy
  Zn  Zn1       1.0  0.13688269240930145  0.49374966279649607  0.4878800427578581  1.0000
  Zn  Zn2       1.0  0.862030458001087  0.501483005182088  0.5124357760855532  1.0000
  H   H1        1.0  0.7717515943663432  0.319970263155369  0.8929388194462573  1.0000
  H   H2        1.0  0.20208979111740896  0.5494730624656441  0.11779215115636528  1.0000
  H   H3        1.0  0.9176758642857337  0.5501857732786489  0.813649933754746  1.0000
  H   H4        1.0  0.0737466357303944  0.3867365150028306  0.18932690221001275  1.0000
  H   H5        1.0  0.6611882277988883  0.36755652168746167  0.6021479738936576  1.0000
  H   H6        1.0  0.3375704623699178  0.628990116719386  0.3972893107331217  1.0000
  H   H7        1.0  0.3330566115243627  0.4370971356595134  0.7712267417436749  1.0000
  H   H8        1.0  0.6591404887058373  0.5016512481611386  0.23137248969941732  1.0000
  H   H9        1.0  0.9740337704106569  0.3289907218478234  0.02414249360244728  1.0000
  H   H10       1.0  0.007083030018549213  0.5652552620152491  0.984349879593921  1.0000
  H   H11       1.0  0.5207343908061617  0.36375340970458564  0.8269726818528084  1.0000
  H   H12       1.0  0.4539032820323642  0.5096935708242184  0.18329580312741459  1.0000
  H   H13       1.0  0.6360812357393045  0.8564127433978964  0.6280352266119562  1.0000
  H   H14       1.0  0.6652027273799846  0.8311218440482475  0.5120282955134954  1.0000
  H   H15       1.0  0.6347914655131677  0.9825412766020986  0.5563525893794645  1.0000
  H   H16       1.0  0.18707002473530573  0.185225849356847  0.2772047541724873  1.0000
  H   H17       1.0  0.03206551462074711  0.22358523373978295  0.3236947268049234  1.0000
  H   H18       1.0  0.040535204123557406  0.08326145407465187  0.25712677562550806  1.0000
  H   H19       1.0  0.8501359152720837  0.1300562998597599  0.5823063155106494  1.0000
  H   H20       1.0  0.14763519682816914  0.8644403410847871  0.4128427256187023  1.0000
  H   H21       1.0  0.3889340555058496  0.3597814776495908  0.5862911407640041  1.0000
  H   H22       1.0  0.609329651555122  0.6342275090179399  0.41119542534215  1.0000
  C   C1        1.0  0.9967532602927135  0.7343566400420937  0.504600239857389  1.0000
  C   C2        1.0  0.00032646988320550593  0.25968258745861306  0.49285645104077946  1.0000
  C   C3        1.0  0.5605221009336036  0.38475755496146025  0.9002137365196601  1.0000
  C   C4        1.0  0.41669687212122847  0.4971862603469361  0.10894423496111469  1.0000
  C   C5        1.0  0.7008641313293611  0.3597427992746702  0.9367366353518632  1.0000
  C   C6        1.0  0.2757445625204511  0.519520425262783  0.07276367348318757  1.0000
  C   C7        1.0  0.9111765473720795  0.9462363371951168  0.5512016931747539  1.0000
  C   C8        1.0  0.0836109797281708  0.04744101839495577  0.4421158114421004  1.0000
  C   C9        1.0  0.9137368628197963  0.07112992649811638  0.5436874258491996  1.0000
  C   C10       1.0  0.08163959954443101  0.9225890780693786  0.450193090118077  1.0000
  C   C11       1.0  0.9991210493936438  0.12412417944748458  0.4906182143005893  1.0000
  C   C12       1.0  0.9963251941706802  0.8697558384082381  0.5034503837923623  1.0000
  C   C13       1.0  0.5874063869271782  0.4252029425542503  0.5566281094990728  1.0000
  C   C14       1.0  0.4111295836236693  0.5705130706833045  0.442269273347641  1.0000
  C   C15       1.0  0.4400416956019485  0.4208446627113743  0.5480469121634001  1.0000
  C   C16       1.0  0.5584048684871806  0.5741706377524166  0.45034970381169603  1.0000
  C   C17       1.0  0.9259443911101999  0.4802412925962684  0.3187052848397585  1.0000
  C   C18       1.0  0.07220362700556392  0.49345202228217017  0.681304592622183  1.0000
  C   C19       1.0  0.8694618879597582  0.4485606745513591  0.21868036501757615  1.0000
  C   C20       1.0  0.1228167998166967  0.4924866487203088  0.7837425835875179  1.0000
  C   C21       1.0  0.9048671804235796  0.36756756278741415  0.0694374799190243  1.0000
  C   C22       1.0  0.0780664840707672  0.535333515652745  0.9376277964563116  1.0000
  C   C23       1.0  0.9605553546756198  0.39933690780832626  0.1606454045049617  1.0000
  C   C24       1.0  0.02815965403380721  0.5272567949997153  0.8434997728523539  1.0000
  C   C25       1.0  0.7247825562725226  0.4644905778032394  0.1837036873978093  1.0000
  C   C26       1.0  0.2637855989177639  0.461580808813899  0.8199742809561597  1.0000
  C   C27       1.0  0.6650099190454881  0.4357093591598156  0.09031041281130568  1.0000
  C   C28       1.0  0.31721298550640853  0.46556811623482725  0.9161389393491672  1.0000
  C   C29       1.0  0.7580714357899795  0.38663984223899917  0.0319219500079058  1.0000
  C   C30       1.0  0.2222907366313152  0.50647053628294  0.9758365818418467  1.0000
  C   C31       1.0  0.5151697732345325  0.45622914797943537  0.05199775748702959  1.0000
  C   C32       1.0  0.46441475187102566  0.4354065987561029  0.9557284895773818  1.0000
  C   C33       1.0  0.6836555840873191  0.8929998429393319  0.5739388189559305  1.0000
  C   C34       1.0  0.1023142541391024  0.14853285066258337  0.3071397091879504  1.0000
  N   N1        1.0  0.3537489718646398  0.49375591876675873  0.491101464510514  1.0000
  N   N2        1.0  0.6447662670603407  0.501798019264484  0.5077359364739635  1.0000
  O   O1        1.0  0.11084460906669591  0.6781170053957125  0.4920592216404599  1.0000
  O   O2        1.0  0.8848869060798136  0.3153735003999286  0.5027795798765524  1.0000
  O   O3        1.0  0.8834406037441696  0.6850391339986073  0.5154964988796067  1.0000
  O   O4        1.0  0.11594609146985144  0.30930321188411364  0.4866477868568281  1.0000
  O   O5        1.0  0.061033000902391187  0.4814734844837145  0.3465004617415488  1.0000
  O   O6        1.0  0.9375716237346197  0.4976086151272625  0.6513173199189239  1.0000
  O   O7        1.0  0.8338325369790738  0.501586385416118  0.3697537781083398  1.0000
  O   O8        1.0  0.16690534199533152  0.49146181143062506  0.6313068065424544  1.0000
  O   O9        1.0  0.8333008252258266  0.9013990817206686  0.610753569932413  1.0000
  O   O10       1.0  0.17225533656944245  0.08851199501380337  0.3880623960866244  1.0000
