data_image0
_chemical_formula_structural       Zn8H122C118N2O54
_chemical_formula_sum              "Zn8 H122 C118 N2 O54"
_cell_length_a       16.90557780050741
_cell_length_b       17.080652803063455
_cell_length_c       17.02634313174459
_cell_angle_alpha    94.90673044685134
_cell_angle_beta     96.15219406440664
_cell_angle_gamma    91.11797990252926

_space_group_name_H-M_alt    "P 1"
_space_group_IT_number       1

loop_
  _space_group_symop_operation_xyz
  'x, y, z'

loop_
  _atom_site_type_symbol
  _atom_site_label
  _atom_site_symmetry_multiplicity
  _atom_site_fract_x
  _atom_site_fract_y
  _atom_site_fract_z
  _atom_site_occupancy
  Zn  Zn1       1.0  0.3356648149120502  0.23202279996106512  0.21393851086783397  1.0000
  Zn  Zn2       1.0  0.664335331250456  0.7679780527379448  0.7860596687626185  1.0000
  Zn  Zn3       1.0  0.1901288370688761  0.34464767036743643  0.2295645283555103  1.0000
  Zn  Zn4       1.0  0.8098694694833669  0.6553514260933471  0.7704339042099518  1.0000
  Zn  Zn5       1.0  0.3522286760810545  0.366156006539093  0.3561440882866975  1.0000
  Zn  Zn6       1.0  0.6477679686828212  0.6338472083520514  0.6438521758076305  1.0000
  Zn  Zn7       1.0  0.23812167532359746  0.2231007359716486  0.3616671758013296  1.0000
  Zn  Zn8       1.0  0.7618772777918182  0.7769001203207395  0.6383302963486486  1.0000
  H   H1        1.0  0.5880821420010776  0.3225350557399338  0.4393000307650397  1.0000
  H   H2        1.0  0.4119182220725506  0.6774710976756354  0.5607062549427438  1.0000
  H   H3        1.0  0.5773080745600154  0.20456422225190346  0.206031601664769  1.0000
  H   H4        1.0  0.42269087356539364  0.7954342996185774  0.793978593725228  1.0000
  H   H5        1.0  0.4217177055482679  0.5919120270301053  0.3104891582806387  1.0000
  H   H6        1.0  0.5782786501757258  0.4080835372770366  0.6894999682988114  1.0000
  H   H7        1.0  0.1617555575429961  0.3857630371520315  0.9904329520791392  1.0000
  H   H8        1.0  0.8382444492629588  0.6142336998037194  0.00956427773316191  1.0000
  H   H9        1.0  0.3950646727460311  0.2924782352263905  0.995574683084044  1.0000
  H   H10       1.0  0.6049389553794456  0.7075196674274764  0.0044253603562011985  1.0000
  H   H11       1.0  0.97864800478267  0.392192189794784  0.33117421961779303  1.0000
  H   H12       1.0  0.0213497428698446  0.6078075005632043  0.6688271434700893  1.0000
  H   H13       1.0  0.0385616629761714  0.4516080621818261  0.8250301028870196  1.0000
  H   H14       1.0  0.9614359192702578  0.5483869230353522  0.1749690831886355  1.0000
  H   H15       1.0  0.09606161221676503  0.47659525756844107  0.918605684358873  1.0000
  H   H16       1.0  0.9039394582005471  0.5233973623674969  0.0813930663173892  1.0000
  H   H17       1.0  0.054954933993911895  0.37876986474421415  0.8948639416014783  1.0000
  H   H18       1.0  0.9450462336016943  0.6212256944567116  0.10513506770640652  1.0000
  H   H19       1.0  0.8022195425381184  0.4956067270162734  0.274818984442497  1.0000
  H   H20       1.0  0.1977793787258264  0.5043923718953351  0.7251830343995351  1.0000
  H   H21       1.0  0.888729991898643  0.44734961475687385  0.24577194710801106  1.0000
  H   H22       1.0  0.11127015838273019  0.552650072275732  0.7542337696102095  1.0000
  H   H23       1.0  0.8877710874059731  0.4907420201163219  0.34580937976087966  1.0000
  H   H24       1.0  0.11222789877881922  0.5092588438988274  0.6541939697278778  1.0000
  H   H25       1.0  0.17507769705055415  0.5877798871165538  0.2202135892213235  1.0000
  H   H26       1.0  0.8249170233405752  0.41221980179916073  0.7797780707580201  1.0000
  H   H27       1.0  0.05453984805922121  0.7507950393803854  0.16770992485699313  1.0000
  H   H28       1.0  0.945455695033914  0.24920995038589677  0.8322916642746134  1.0000
  H   H29       1.0  0.07760091155660831  0.6793391233656364  0.23733783998834204  1.0000
  H   H30       1.0  0.9223957596627629  0.3206640977037197  0.7626631259770136  1.0000
  H   H31       1.0  0.09790236049502002  0.6599073901045074  0.13618000839962013  1.0000
  H   H32       1.0  0.9020877733614371  0.3400964397398667  0.8638179997502817  1.0000
  H   H33       1.0  0.5566570648628898  0.7599249980537552  0.353887637476106  1.0000
  H   H34       1.0  0.44333880390206565  0.2400723435793495  0.6461104004171929  1.0000
  H   H35       1.0  0.5327481262051778  0.6690455651901744  0.295366490889684  1.0000
  H   H36       1.0  0.4672477297379985  0.3309511901344848  0.7046326707450559  1.0000
  H   H37       1.0  0.4984703824318404  0.6857777008734021  0.3918147459391506  1.0000
  H   H38       1.0  0.5015225343193707  0.31422082351846836  0.6081801573709241  1.0000
  H   H39       1.0  0.7629223843816036  0.37087822642791934  0.5786228638717006  1.0000
  H   H40       1.0  0.23708191716852411  0.6291208590164247  0.4213843957010255  1.0000
  H   H41       1.0  0.6719816082738675  0.31476423667234604  0.5555211546210117  1.0000
  H   H42       1.0  0.32802212735668235  0.6852360243439932  0.4444843853294315  1.0000
  H   H43       1.0  0.6841909781223948  0.4072418595863497  0.5136575626771958  1.0000
  H   H44       1.0  0.3158110870168827  0.5927607678855151  0.48635446963130846  1.0000
  H   H45       1.0  0.8405125996661197  0.009297554591562101  0.3920823725879359  1.0000
  H   H46       1.0  0.1594904468170313  0.9907003533342406  0.6079199619145257  1.0000
  H   H47       1.0  0.9242395134318003  0.06751951922718291  0.44035536438664014  1.0000
  H   H48       1.0  0.07576299648825112  0.9324801544404411  0.5596470654214939  1.0000
  H   H49       1.0  0.9179878699414631  0.03957458294895131  0.33587240953930564  1.0000
  H   H50       1.0  0.08201417454425551  0.9604292063279303  0.6641291470120477  1.0000
  H   H51       1.0  0.4124944947243209  0.5825910819889444  0.7804344658704707  1.0000
  H   H52       1.0  0.5875057490224407  0.4174121267557069  0.2195674470685418  1.0000
  H   H53       1.0  0.35238606658761285  0.5671350411503512  0.687073475210248  1.0000
  H   H54       1.0  0.6476134822098132  0.4328646465205281  0.31293100616691305  1.0000
  H   H55       1.0  0.44449588044404464  0.5166221380628856  0.7033354114917643  1.0000
  H   H56       1.0  0.5555080942163501  0.4833863451726615  0.2966649752884365  1.0000
  H   H57       1.0  0.4019345807673673  0.8254228574447142  0.027555303831896086  1.0000
  H   H58       1.0  0.5980675396275785  0.1745662256016445  0.9724391420958652  1.0000
  H   H59       1.0  0.4343900987016768  0.9102454128700401  0.093559753353027  1.0000
  H   H60       1.0  0.5656138972738775  0.0897460181289205  0.9064374300354314  1.0000
  H   H61       1.0  0.3360639386068343  0.9053829107627039  0.041704190905925  1.0000
  H   H62       1.0  0.6639395398353115  0.0946114570504193  0.9582896648375936  1.0000
  H   H63       1.0  0.5183590449192578  0.26614080754453084  0.8359627558965527  1.0000
  H   H64       1.0  0.4816392384844194  0.7338582835103155  0.1640315625317683  1.0000
  H   H65       1.0  0.4607082119155805  0.22408058995269187  0.9049363141949556  1.0000
  H   H66       1.0  0.53929602018885  0.7759184792738553  0.09505860296633273  1.0000
  H   H67       1.0  0.5051319317344324  0.32095569418050474  0.9282094908160943  1.0000
  H   H68       1.0  0.4948716728365172  0.6790427862867718  0.07178296381005822  1.0000
  H   H69       1.0  0.7414909947020052  0.15061890151738314  0.09529375757722391  1.0000
  H   H70       1.0  0.2585050208453126  0.849381390964858  0.9047133549558737  1.0000
  H   H71       1.0  0.6652616991451764  0.21983308272319144  0.11131833791169038  1.0000
  H   H72       1.0  0.33473674798151615  0.7801683798228253  0.8886914685027563  1.0000
  H   H73       1.0  0.6537098713869939  0.12045924721938661  0.1365269170237084  1.0000
  H   H74       1.0  0.34628680395125144  0.8795428081835654  0.8634815860294154  1.0000
  H   H75       1.0  0.998415268922429  0.1495386079743923  0.3747377922512811  1.0000
  H   H76       1.0  0.0015837788762809028  0.8504640203720228  0.6252663001503294  1.0000
  H   H77       1.0  0.35686433149683694  0.4516348680006033  0.6041432744080735  1.0000
  H   H78       1.0  0.6431429468986638  0.5483653737405519  0.3958579229111265  1.0000
  H   H79       1.0  0.22528276532299435  0.2326274610139194  0.5847475376260647  1.0000
  H   H80       1.0  0.7747309301085821  0.7673692272812929  0.4152522447398254  1.0000
  H   H81       1.0  0.14247309703187483  0.13704939469123195  0.7393196318082358  1.0000
  H   H82       1.0  0.8575337229491354  0.862954380984391  0.2606853423988795  1.0000
  H   H83       1.0  0.21585578186633111  0.1362439562794506  0.6705186894679542  1.0000
  H   H84       1.0  0.7841466048258923  0.8637521887256414  0.32948225451448104  1.0000
  H   H85       1.0  0.12416664042923742  0.18585322695076914  0.6501014010634663  1.0000
  H   H86       1.0  0.8758396268599499  0.8141517273859621  0.3499042044568768  1.0000
  H   H87       1.0  0.25871229955958347  0.989038576047598  0.38085594815144924  1.0000
  H   H88       1.0  0.7412932839781875  0.0109657764011644  0.6191372033578304  1.0000
  H   H89       1.0  0.34350814267762086  0.9904856723045584  0.15296985850073236  1.0000
  H   H90       1.0  0.6564893734300554  0.0095092974670976  0.8470175728973572  1.0000
  H   H91       1.0  0.22322746554750952  0.8207386276535117  0.48949044365570415  1.0000
  H   H92       1.0  0.776775222194445  0.17926692068270716  0.510509564746279  1.0000
  H   H93       1.0  0.18303380475794742  0.9014464894103117  0.4385923331707104  1.0000
  H   H94       1.0  0.8169701434469517  0.0985619876470238  0.5614033517384628  1.0000
  H   H95       1.0  0.2842486233431245  0.9067778977530454  0.4839961016761265  1.0000
  H   H96       1.0  0.7157576654707611  0.0932293948669738  0.5159997192735872  1.0000
  H   H97       1.0  0.06769321098901321  0.4022336116476382  0.2576132271941844  1.0000
  H   H98       1.0  0.9323061335310073  0.5977601951764413  0.7423889737181071  1.0000
  H   H99       1.0  0.11474588117741293  0.4614862702827765  0.2152014170146899  1.0000
  H   H100      1.0  0.8852464899018245  0.5385128510954118  0.7847987677533155  1.0000
  H   H101      1.0  0.013286807309739902  0.2702747081020007  0.1668343393682719  1.0000
  H   H102      1.0  0.9867060982435518  0.7297208971040661  0.8331755863910146  1.0000
  H   H103      1.0  0.0528073288295658  0.0406887245110141  0.0950606342892328  1.0000
  H   H104      1.0  0.9471909326434443  0.9593086114798766  0.9049399940327733  1.0000
  H   H105      1.0  0.1352290041434046  0.10230682347287262  0.1370339505695597  1.0000
  H   H106      1.0  0.8647652743679188  0.8976964032386976  0.8629644249670959  1.0000
  H   H107      1.0  0.9089501267966328  0.19008907792427007  0.15162053104256057  1.0000
  H   H108      1.0  0.0910444844063534  0.8099059189793323  0.8483789434004905  1.0000
  H   H109      1.0  0.9194182462021772  0.08853195789822621  0.15812745967970437  1.0000
  H   H110      1.0  0.08057393672837071  0.9114618697138753  0.8418699086158696  1.0000
  H   H111      1.0  0.11673945108128692  0.9914004792883734  0.2211267570798441  1.0000
  H   H112      1.0  0.8832649472411661  0.008602128640298204  0.7788772864475604  1.0000
  H   H113      1.0  0.0180152045220723  0.0203849630109758  0.2334266716361455  1.0000
  H   H114      1.0  0.9819880367236353  0.9796182402254562  0.766579654806506  1.0000
  H   H115      1.0  0.10061947686687492  0.08308159079007284  0.2740167200386452  1.0000
  H   H116      1.0  0.8993843906944151  0.9169239508636551  0.7259816449083019  1.0000
  H   H117      1.0  0.8495812675243288  0.11002913733074854  0.025525389711226906  1.0000
  H   H118      1.0  0.15041411306369673  0.8899717312863445  0.9744711354650947  1.0000
  H   H119      1.0  0.9444778412059379  0.07243778087350708  0.011749532164344602  1.0000
  H   H120      1.0  0.05551755881774772  0.9275636755965878  0.9882470447383013  1.0000
  H   H121      1.0  0.927858381079439  0.1744956324817437  0.006557519957695521  1.0000
  H   H122      1.0  0.0721388428317553  0.8255064099265115  0.9934428146944256  1.0000
  C   C1        1.0  0.235352187225871  0.7024059521821756  0.23009269402308521  1.0000
  C   C2        1.0  0.7646431606987463  0.2975943254928168  0.7699014284913943  1.0000
  C   C3        1.0  0.6197626863318534  0.29355211370037904  0.39323499393477584  1.0000
  C   C4        1.0  0.3802353855189439  0.7064569853946736  0.6067695477098027  1.0000
  C   C5        1.0  0.3303666039800889  0.874171727597407  0.19536333018529456  1.0000
  C   C6        1.0  0.6696333408059872  0.1258238282464106  0.8046296820372092  1.0000
  C   C7        1.0  0.48923263223372965  0.2761501925655807  0.3092087455669272  1.0000
  C   C8        1.0  0.5107663084658753  0.7238494941990227  0.6907933250014295  1.0000
  C   C9        1.0  0.2914053238181467  0.4985412916175349  0.2803907099986702  1.0000
  C   C10       1.0  0.7085952543033543  0.5014560209687887  0.7195989908728393  1.0000
  C   C11       1.0  0.3191838790834468  0.41636255920676757  0.7149703987669795  1.0000
  C   C12       1.0  0.6808274596104128  0.583634726445041  0.2850297835659248  1.0000
  C   C13       1.0  0.8666357061565507  0.3287450829188999  0.3328785688701927  1.0000
  C   C14       1.0  0.13336560781544193  0.6712540103504951  0.6671260404005395  1.0000
  C   C15       1.0  0.6139270337751556  0.2265776034413136  0.2600566768501267  1.0000
  C   C16       1.0  0.3860714001237824  0.7734238560156044  0.7399507786288025  1.0000
  C   C17       1.0  0.212907084184792  0.3803081543649753  0.8776191697713641  1.0000
  C   C18       1.0  0.7870946877957297  0.6196879881892841  0.1223781879345012  1.0000
  C   C19       1.0  0.7418225362181021  0.25225502934355865  0.3393918260119976  1.0000
  C   C20       1.0  0.2581766286005305  0.7477505429015068  0.6606160514244975  1.0000
  C   C21       1.0  0.29814138712048793  0.5832318532239427  0.2658556790903717  1.0000
  C   C22       1.0  0.7018550794155233  0.41676607021794615  0.7341395317331632  1.0000
  C   C23       1.0  0.5765962331261392  0.2638690073974104  0.3219223469183206  1.0000
  C   C24       1.0  0.42340165759582504  0.7361342162567726  0.6780840283985297  1.0000
  C   C25       1.0  0.37083306625405754  0.6240051286030737  0.2871777485751608  1.0000
  C   C26       1.0  0.6291681104504292  0.3759915993533555  0.7128160745804593  1.0000
  C   C27       1.0  0.278084684855962  0.33785981714141405  0.998781918880475  1.0000
  C   C28       1.0  0.721918975526961  0.6621392596738929  0.0012170525446606115  1.0000
  C   C29       1.0  0.3463581617631207  0.3302529995118989  0.8816330297695458  1.0000
  C   C30       1.0  0.6536437950591465  0.6697484360361656  0.1183665566748715  1.0000
  C   C31       1.0  0.307142103867271  0.7452386929261863  0.2533975037265037  1.0000
  C   C32       1.0  0.6928537256204096  0.25475805622026826  0.7465969560372088  1.0000
  C   C33       1.0  0.21231913708232503  0.3707054805177067  0.9582525077643637  1.0000
  C   C34       1.0  0.7876838213314131  0.6292906568986185  0.041744381954224315  1.0000
  C   C35       1.0  0.34560442548999504  0.31817168738708557  0.9616222081511695  1.0000
  C   C36       1.0  0.6543974047975071  0.6818262187261651  0.03837530473366969  1.0000
  C   C37       1.0  0.8295978639411176  0.25665756520363914  0.3447099678836523  1.0000
  C   C38       1.0  0.17040476630580062  0.7433450531349095  0.6552968346932531  1.0000
  C   C39       1.0  0.8771575781965738  0.19197784319450767  0.3599488574652128  1.0000
  C   C40       1.0  0.12284383295371273  0.8080241893398752  0.6400560104371422  1.0000
  C   C41       1.0  0.3074883441664015  0.8320769830792756  0.2569712785245457  1.0000
  C   C42       1.0  0.6925099979502177  0.1679232883152224  0.7430266697596934  1.0000
  C   C43       1.0  0.9494397069304769  0.3362773306950119  0.3376502228182403  1.0000
  C   C44       1.0  0.05055994565911702  0.6637252977854049  0.6623556926583022  1.0000
  C   C45       1.0  0.27424131038694816  0.3202603134023718  0.0825937390031086  1.0000
  C   C46       1.0  0.7257575811145571  0.6797387785587434  0.9174029902340164  1.0000
  C   C47       1.0  0.27943541952570433  0.3597078149037499  0.8381847725998668  1.0000
  C   C48       1.0  0.7205677237297792  0.6402936155063799  0.1618143458572661  1.0000
  C   C49       1.0  0.08138338316283722  0.4296656313710089  0.8703730597084699  1.0000
  C   C50       1.0  0.9186153892297071  0.5703287662611701  0.1296297207907173  1.0000
  C   C51       1.0  0.2785617775497117  0.35871830917806596  0.7510696583065694  1.0000
  C   C52       1.0  0.7214442883630454  0.6412813483034724  0.2489307798058391  1.0000
  C   C53       1.0  0.8516873907839868  0.4593622343069726  0.2945806083506142  1.0000
  C   C54       1.0  0.14831221301348313  0.5406392161506232  0.7054234404716411  1.0000
  C   C55       1.0  0.6967006593928602  0.22179103065916192  0.2689497969527608  1.0000
  C   C56       1.0  0.303296678637281  0.7782133716561218  0.7310572096773243  1.0000
  C   C57       1.0  0.3750420364707027  0.7051336985339489  0.2811715250001328  1.0000
  C   C58       1.0  0.6249538678586435  0.2948648180328775  0.7188260286119359  1.0000
  C   C59       1.0  0.2304367743418752  0.6215192800791274  0.2360633434632007  1.0000
  C   C60       1.0  0.7695603131137432  0.378479230577483  0.7639331544277111  1.0000
  C   C61       1.0  0.09672948760970003  0.705973470636309  0.1854967393356404  1.0000
  C   C62       1.0  0.9032653824647596  0.29402975312015656  0.8145011083404299  1.0000
  C   C63       1.0  0.7024497294977297  0.2870448747280818  0.4018768012053826  1.0000
  C   C64       1.0  0.2975489860152792  0.7129654002069686  0.5981296669667769  1.0000
  C   C65       1.0  0.5110360676975675  0.7132375263337211  0.3381017210276481  1.0000
  C   C66       1.0  0.48895987881002867  0.2867621667113767  0.6618965237709489  1.0000
  C   C67       1.0  0.7142409503739914  0.3541469090426831  0.5321790074927364  1.0000
  C   C68       1.0  0.28576172866505095  0.6458568873186864  0.46782966173844887  1.0000
  C   C69       1.0  0.883185389900568  0.05677286204381459  0.38546309975079407  1.0000
  C   C70       1.0  0.116815933586274  0.9432268167617437  0.6145397980446247  1.0000
  C   C71       1.0  0.3924531984142162  0.5391214627461809  0.7309189930496486  1.0000
  C   C72       1.0  0.6075494963475806  0.4608835039152481  0.2690856654970375  1.0000
  C   C73       1.0  0.38327706328187366  0.8707072115838914  0.07074190662914501  1.0000
  C   C74       1.0  0.6167257975476019  0.1292865697867853  0.9292512497808758  1.0000
  C   C75       1.0  0.47690352609510717  0.27897059180787653  0.8801568585075896  1.0000
  C   C76       1.0  0.5230977672233267  0.7210296632665348  0.11983727500597752  1.0000
  C   C77       1.0  0.6967839661580868  0.16935297102335056  0.1345090716553514  1.0000
  C   C78       1.0  0.3032150758386791  0.8306484893398364  0.865500794632389  1.0000
  C   C79       1.0  0.9954343589949275  0.2709828851086442  0.3525245959123353  1.0000
  C   C80       1.0  0.004562894272744696  0.7290197474694367  0.6474775536677484  1.0000
  C   C81       1.0  0.08350037824106951  0.2779191281777926  0.3526865076744485  1.0000
  C   C82       1.0  0.9164991995068593  0.7220817328822521  0.6473163139537307  1.0000
  C   C83       1.0  0.9600718420327965  0.1985882426889134  0.3636486758815706  1.0000
  C   C84       1.0  0.03992721197381851  0.8014149704213976  0.6363531173108469  1.0000
  C   C85       1.0  0.32531985891971976  0.4082893109087991  0.633253431876831  1.0000
  C   C86       1.0  0.6746915670316227  0.5917109116911661  0.3667452458860581  1.0000
  C   C87       1.0  0.2920000344694103  0.3410086545519492  0.5882836598021584  1.0000
  C   C88       1.0  0.7080114175314663  0.6589921574455674  0.4117162451548069  1.0000
  C   C89       1.0  0.30267902734898666  0.32676203933902315  0.5025758360221317  1.0000
  C   C90       1.0  0.6973235144225428  0.6732393917093875  0.4974220470939485  1.0000
  C   C91       1.0  0.24987605534746393  0.2838007048684688  0.6223881661839671  1.0000
  C   C92       1.0  0.7501388947451135  0.7161977441646316  0.3776130665752433  1.0000
  C   C93       1.0  0.2427108647840157  0.29341363989937014  0.7034396843825733  1.0000
  C   C94       1.0  0.7573010915225212  0.706584232194878  0.29656119728382885  1.0000
  C   C95       1.0  0.16995002393957753  0.17129082157413933  0.6973207727634758  1.0000
  C   C96       1.0  0.8300572809114257  0.8287094263452204  0.30268512642674483  1.0000
  C   C97       1.0  0.2820120236916496  0.873626812041813  0.3244175117930794  1.0000
  C   C98       1.0  0.7179892989832554  0.1263740332024241  0.6755784366484505  1.0000
  C   C99       1.0  0.2780717899396734  0.9554180461059902  0.3296462376556093  1.0000
  C   C100      1.0  0.7219307543268628  0.044584552153374105  0.6703452838404544  1.0000
  C   C101      1.0  0.32656728613213204  0.9561175899425722  0.1996890347583857  1.0000
  C   C102      1.0  0.6734332469101433  0.04387796217385901  0.8003028618696604  1.0000
  C   C103      1.0  0.2998681726067147  0.9957122599788093  0.26677582268751365  1.0000
  C   C104      1.0  0.7001354865583026  0.004288566494516  0.7332127247067888  1.0000
  C   C105      1.0  0.29378423713900764  0.08287009862385021  0.271875656506559  1.0000
  C   C106      1.0  0.7062055679943101  0.9171260713692034  0.7281081613219271  1.0000
  C   C107      1.0  0.23670105614645115  0.8673695586586733  0.4523644789740615  1.0000
  C   C108      1.0  0.7633022909804696  0.13263833581760315  0.5476334452710034  1.0000
  C   C109      1.0  0.05645588516628661  0.22253867439071942  0.1668215617829816  1.0000
  C   C110      1.0  0.9435370691791435  0.7774581088381681  0.8331902306305922  1.0000
  C   C111      1.0  0.07528635072321072  0.08176812164605711  0.14624327097818926  1.0000
  C   C112      1.0  0.9247114779788748  0.918233920896199  0.8537588867488709  1.0000
  C   C113      1.0  0.9382938363388079  0.1382174157856326  0.1267173382844859  1.0000
  C   C114      1.0  0.0616979072069412  0.8617811168332778  0.8732803839483907  1.0000
  C   C115      1.0  0.07752471185531111  0.0418994440563409  0.22337522245005914  1.0000
  C   C116      1.0  0.9224773715017207  0.9581055209265372  0.7766264375539363  1.0000
  C   C117      1.0  0.9138521921392029  0.1230046092911792  0.03756108014101761  1.0000
  C   C118      1.0  0.08614613054176351  0.8769950742503242  0.962436816416897  1.0000
  N   N1        1.0  0.024353405007950395  0.15041607169661117  0.1461882198989954  1.0000
  N   N2        1.0  0.9756401008113897  0.8495812825292007  0.8538125171705102  1.0000
  O   O1        1.0  0.2777526701852936  0.2927677351910133  0.2896391895546131  1.0000
  O   O2        1.0  0.7222438840141622  0.7072325419796996  0.7103579913758508  1.0000
  O   O3        1.0  0.35493398117841224  0.4674209485355335  0.3101144348259409  1.0000
  O   O4        1.0  0.6450648028180126  0.5325757850631093  0.6898767979009862  1.0000
  O   O5        1.0  0.3291303060151449  0.38366044966346635  0.4676052010546954  1.0000
  O   O6        1.0  0.6708657666212544  0.6163433560357847  0.5323916426265356  1.0000
  O   O7        1.0  0.22313754412422077  0.3560373295635416  0.12058556069289492  1.0000
  O   O8        1.0  0.776861325040649  0.6439605905529648  0.8794140037609708  1.0000
  O   O9        1.0  0.27037795287889566  0.1151916531736603  0.335472343152304  1.0000
  O   O10       1.0  0.7296028932329434  0.884803957847467  0.6645075861810099  1.0000
  O   O11       1.0  0.22354405096165664  0.4636598351421029  0.2651343541976914  1.0000
  O   O12       1.0  0.7764572456637212  0.5363404207045904  0.7348603670497624  1.0000
  O   O13       1.0  0.4600209053970731  0.322918670826887  0.3604680823742186  1.0000
  O   O14       1.0  0.5399756496143127  0.6770804399051471  0.6395360479101411  1.0000
  O   O15       1.0  0.7507375754828303  0.3146420106012116  0.4682204132310942  1.0000
  O   O16       1.0  0.24926162449420988  0.6853653197969082  0.5317835052472333  1.0000
  O   O17       1.0  0.4087385627290915  0.3115979937946848  0.839271577488347  1.0000
  O   O18       1.0  0.5912621034618227  0.6884010893011167  0.16072356816703603  1.0000
  O   O19       1.0  0.32266557649450084  0.2689610389111222  0.10838008328313008  1.0000
  O   O20       1.0  0.6773333282347523  0.7310380561391058  0.8916189968895054  1.0000
  O   O21       1.0  0.2855766918774875  0.2573064249849679  0.4704318232599646  1.0000
  O   O22       1.0  0.7144258854584181  0.7426961809971573  0.5295655755748854  1.0000
  O   O23       1.0  0.12332087421862782  0.21749732581347567  0.37102145544633197  1.0000
  O   O24       1.0  0.8766787982125948  0.7825053073005963  0.6289879864334791  1.0000
  O   O25       1.0  0.45138307170144293  0.24028561632380982  0.24721004987478784  1.0000
  O   O26       1.0  0.5486175407073334  0.7597099543272636  0.7527959523663412  1.0000
  O   O27       1.0  0.3115912748184258  0.11813160742746481  0.212568527112559  1.0000
  O   O28       1.0  0.6884100052722603  0.8818686445578409  0.7874232554654981  1.0000
  O   O29       1.0  0.44209438634078424  0.7509175747752082  0.30381440239375473  1.0000
  O   O30       1.0  0.557902678372237  0.24908034725612535  0.6961814560369533  1.0000
  O   O31       1.0  0.11413783509973291  0.34097621848057  0.3329320976613984  1.0000
  O   O32       1.0  0.8858604846802578  0.659022881069319  0.6670686858395739  1.0000
  O   O33       1.0  0.17202806073312624  0.7459942592642224  0.2040980720335526  1.0000
  O   O34       1.0  0.8279708663327555  0.254006007630622  0.7958981729223424  1.0000
  O   O35       1.0  0.8167717346961682  0.38807194900365266  0.31561125391577594  1.0000
  O   O36       1.0  0.1832284317139283  0.6119283251096733  0.6843939267948825  1.0000
  O   O37       1.0  0.8368306913725406  0.12376254504052747  0.3703352615068169  1.0000
  O   O38       1.0  0.16317192564662264  0.8762400702089154  0.629669190134571  1.0000
  O   O39       1.0  0.3515865971813028  0.4782180256702304  0.764923944751331  1.0000
  O   O40       1.0  0.6484218449048171  0.5217816223077136  0.235076145120388  1.0000
  O   O41       1.0  0.3551684896586664  0.8295785045408479  0.1321185458913874  1.0000
  O   O42       1.0  0.6448308995346183  0.1704176459724565  0.8678779845874159  1.0000
  O   O43       1.0  0.12950972933178656  0.2359022085854434  0.18500293034546897  1.0000
  O   O44       1.0  0.870481423868725  0.7640945773305533  0.8150057437788192  1.0000
  O   O45       1.0  0.7396842420629853  0.190747125782778  0.2102293939856423  1.0000
  O   O46       1.0  0.2603128792739398  0.8092502261579213  0.7897799305979376  1.0000
  O   O47       1.0  0.14961920735979112  0.4081993194570117  0.8317971662704408  1.0000
  O   O48       1.0  0.850380162803802  0.5917956599839587  0.16820278715898243  1.0000
  O   O49       1.0  0.2038037842248812  0.2401312982555055  0.742665617760906  1.0000
  O   O50       1.0  0.7962093845644063  0.7598671580983591  0.2573360231122876  1.0000
  O   O51       1.0  0.26181988277006957  0.8283490435476042  0.3819604900203331  1.0000
  O   O52       1.0  0.7381810137477771  0.17165650979254823  0.6180381632940026  1.0000
  O   O53       1.0  0.076704929942025  0.4166138056038308  0.2040557818155406  1.0000
  O   O54       1.0  0.9232909164863016  0.5833823641846579  0.7959450912945059  1.0000
