data_image0
_chemical_formula_structural       Dy2H14C16S2O18
_chemical_formula_sum              "Dy2 H14 C16 S2 O18"
_cell_length_a       6.349587991522016
_cell_length_b       8.57813183390453
_cell_length_c       10.585899024198351
_cell_angle_alpha    90.6371428208944
_cell_angle_beta     99.71308635734897
_cell_angle_gamma    107.56173585282352

_space_group_name_H-M_alt    "P 1"
_space_group_IT_number       1

loop_
  _space_group_symop_operation_xyz
  'x, y, z'

loop_
  _atom_site_type_symbol
  _atom_site_label
  _atom_site_symmetry_multiplicity
  _atom_site_fract_x
  _atom_site_fract_y
  _atom_site_fract_z
  _atom_site_occupancy
  Dy  Dy1       1.0  0.15294482837999368  0.24609244856161888  0.6146131838095172  1.0000
  Dy  Dy2       1.0  0.8470551621906635  0.7539079585319468  0.3853859931445599  1.0000
  H   H1        1.0  0.6181944097030508  0.4133905084770931  0.14452011427670192  1.0000
  H   H2        1.0  0.38180558141816323  0.5866098943596896  0.8554809519971303  1.0000
  H   H3        1.0  0.6573719481017759  0.3659366737681182  0.9189109051551726  1.0000
  H   H4        1.0  0.34262278296599635  0.634058827135412  0.0810886348107118  1.0000
  H   H5        1.0  0.17976207906042416  0.1524522339137135  0.054650665838110506  1.0000
  H   H6        1.0  0.8202347661101894  0.8475444936066122  0.9453491000719225  1.0000
  H   H7        1.0  0.527290057294948  0.08412045374792138  0.6768301657034073  1.0000
  H   H8        1.0  0.4727157600732637  0.9158824056536047  0.3231705688630981  1.0000
  H   H9        1.0  0.3011790749160851  0.9535150650776599  0.606781706523563  1.0000
  H   H10       1.0  0.6988267421768483  0.046487796452254294  0.39321808338305436  1.0000
  H   H11       1.0  0.6533005401558184  0.3550883526895205  0.7091246214054082  1.0000
  H   H12       1.0  0.3466988836707399  0.6449145040293442  0.2908745242441952  1.0000
  H   H13       1.0  0.5820958075958413  0.5062722172808092  0.6494314996438108  1.0000
  H   H14       1.0  0.417905214272025  0.49373064276921486  0.3505668624101688  1.0000
  C   C1        1.0  0.02099504555442876  0.22438109907094625  0.1999365208327433  1.0000
  C   C2        1.0  0.9790044300558236  0.7756180762234095  0.8000654252210851  1.0000
  C   C3        1.0  0.8673550953778103  0.30377541128570573  0.22711968743460892  1.0000
  C   C4        1.0  0.13264649378471907  0.6962249948822288  0.7728805952435992  1.0000
  C   C5        1.0  0.736937844169489  0.35207323916302596  0.1236538941154137  1.0000
  C   C6        1.0  0.26306214722700355  0.6479271615453613  0.8763481168182994  1.0000
  C   C7        1.0  0.7598956877418672  0.3260891930770455  0.9972393589306565  1.0000
  C   C8        1.0  0.24010378704254967  0.6739099886024958  0.0027597531435290977  1.0000
  C   C9        1.0  0.9226691565358891  0.256032896610094  0.9724519707237108  1.0000
  C   C10       1.0  0.077330885267905  0.7439638333157531  0.027548117314836397  1.0000
  C   C11       1.0  0.05091905899499948  0.20410172355095568  0.07423112655168751  1.0000
  C   C12       1.0  0.9490804672978326  0.7958937788324646  0.9257698412668489  1.0000
  C   C13       1.0  0.8450123960757451  0.34722199067388704  0.361473391563223  1.0000
  C   C14       1.0  0.15499032685027447  0.6527735141150542  0.6385278983838206  1.0000
  C   C15       1.0  0.9816992875599623  0.2461538143870711  0.8427342722539636  1.0000
  C   C16       1.0  0.01829487676370417  0.7538441361417582  0.15726523640744722  1.0000
  S   S1        1.0  0.21021842641078337  0.1644737719848521  0.32011439646570494  1.0000
  S   S2        1.0  0.7897820804966781  0.8355278562659619  0.6798867346880186  1.0000
  O   O1        1.0  0.0827090227416676  0.02575616246416249  0.38634434534746737  1.0000
  O   O2        1.0  0.9172920002273127  0.9742466890722878  0.6136577953460289  1.0000
  O   O3        1.0  0.30782429367930314  0.3071699276477204  0.4166773803866733  1.0000
  O   O4        1.0  0.6921756453829389  0.6928341587419664  0.5833199408230598  1.0000
  O   O5        1.0  0.3720104732652914  0.12535370676448568  0.2547061681078874  1.0000
  O   O6        1.0  0.6279884860081565  0.8746442473726288  0.7452938237462946  1.0000
  O   O7        1.0  0.8539176775653132  0.244993955456053  0.4478242813472663  1.0000
  O   O8        1.0  0.14608391159721618  0.7550064507118818  0.5521760013309418  1.0000
  O   O9        1.0  0.8194873519006833  0.48454660379671566  0.3820749337989896  1.0000
  O   O10       1.0  0.1805094423120649  0.5154537987629408  0.6179248656864545  1.0000
  O   O11       1.0  0.1685570503080243  0.22253217655059387  0.8356071826713748  1.0000
  O   O12       1.0  0.8314418580075651  0.7774694526258514  0.16439284275821112  1.0000
  O   O13       1.0  0.8536007968740619  0.26410073864992256  0.739806847922786  1.0000
  O   O14       1.0  0.14639285221391418  0.7358959822080848  0.260194485178488  1.0000
  O   O15       1.0  0.37423828725977876  0.0718075511332827  0.6330729801445116  1.0000
  O   O16       1.0  0.625770209578988  0.928194095901702  0.3669232883712184  1.0000
  O   O17       1.0  0.5282825027852738  0.4044812503805701  0.6934173568196443  1.0000
  O   O18       1.0  0.47171743682752515  0.5955228317523336  0.30658185370985086  1.0000
