data_image0
_chemical_formula_structural       Cu2H52C28O10
_chemical_formula_sum              "Cu2 H52 C28 O10"
_cell_length_a       8.852927578310236
_cell_length_b       9.81988005998431
_cell_length_c       10.96757074718317
_cell_angle_alpha    84.8140504746529
_cell_angle_beta     66.35626163562289
_cell_angle_gamma    71.36810016035373

_space_group_name_H-M_alt    "P 1"
_space_group_IT_number       1

loop_
  _space_group_symop_operation_xyz
  'x, y, z'

loop_
  _atom_site_type_symbol
  _atom_site_label
  _atom_site_symmetry_multiplicity
  _atom_site_fract_x
  _atom_site_fract_y
  _atom_site_fract_z
  _atom_site_occupancy
  Cu  Cu1       1.0  0.1259273982034514  0.5238950587423403  0.009740498395054045  1.0000
  Cu  Cu2       1.0  0.8741020943784223  0.47610920619315067  0.9902602930312269  1.0000
  H   H1        1.0  0.16677207123356647  0.4886821584684428  0.5482319468244583  1.0000
  H   H2        1.0  0.8332172641326852  0.5113208623719456  0.45177534929080576  1.0000
  H   H3        1.0  0.35223451180487336  0.512032166234718  0.560759385767966  1.0000
  H   H4        1.0  0.6477589583522134  0.4879665443457099  0.4392433005531161  1.0000
  H   H5        1.0  0.585084070716029  0.29423646326834774  0.5916056874329738  1.0000
  H   H6        1.0  0.41490981741608846  0.7057611676219293  0.40839604264718327  1.0000
  H   H7        1.0  0.43045622479431966  0.24109363707853498  0.732390718940543  1.0000
  H   H8        1.0  0.5695409638229522  0.7588986076593826  0.2676076671108021  1.0000
  H   H9        1.0  0.5653225084014722  0.11968735702858171  0.5922820259103644  1.0000
  H   H10       1.0  0.4346665477082825  0.8803102206440201  0.40771304067107644  1.0000
  H   H11       1.0  0.5241591315226658  0.16080277520040906  0.37589154207668674  1.0000
  H   H12       1.0  0.47582497468154383  0.8392012640643711  0.6241082171897361  1.0000
  H   H13       1.0  0.3537776717893808  0.30919304477951925  0.36251291725051255  1.0000
  H   H14       1.0  0.6462002042643535  0.6908110014019329  0.6374952076607768  1.0000
  H   H15       1.0  0.5387159996641914  0.33794513611356775  0.3699748895586978  1.0000
  H   H16       1.0  0.46126565406698466  0.6620588906265252  0.6300247397426944  1.0000
  H   H17       1.0  0.16523263990542603  0.20391052181029312  0.7167257159861719  1.0000
  H   H18       1.0  0.8347547426598184  0.7960946098956112  0.2832738222754473  1.0000
  H   H19       1.0  0.12929019045522247  0.24037516177506993  0.56782256062435  1.0000
  H   H20       1.0  0.8706955618805952  0.759634272595278  0.43217714341887603  1.0000
  H   H21       1.0  0.300948038203778  0.08752964599833749  0.5730500442878466  1.0000
  H   H22       1.0  0.6990340126670844  0.9124733090996809  0.4269504583636632  1.0000
  H   H23       1.0  0.6519537150593214  0.9614624883238105  0.9970528527614277  1.0000
  H   H24       1.0  0.3480707821062056  0.03853531723328269  0.002954618461508563  1.0000
  H   H25       1.0  0.8371522607336107  0.9928326377399656  0.0032357093909993733  1.0000
  H   H26       1.0  0.16288191675509725  0.0071726554782643  0.9967489170913665  1.0000
  H   H27       1.0  0.8421829398751087  0.7531851299362415  0.7409362470469747  1.0000
  H   H28       1.0  0.15781255600668942  0.2468114416103759  0.2590677935590975  1.0000
  H   H29       1.0  0.6521138218581585  0.9038099259584698  0.7768729979348094  1.0000
  H   H30       1.0  0.3478799204265287  0.09618776126839629  0.2231415392826506  1.0000
  H   H31       1.0  0.8369788753220893  0.894436644340423  0.6273610358905727  1.0000
  H   H32       1.0  0.16300433735919034  0.10555987263082046  0.37264418448137343  1.0000
  H   H33       1.0  0.11682300950539574  0.7842402111501555  0.7487866887618466  1.0000
  H   H34       1.0  0.8831816615430556  0.21575202287333176  0.2512011096383376  1.0000
  H   H35       1.0  0.10841029790847062  0.9243370230210811  0.6346847644497869  1.0000
  H   H36       1.0  0.8915849724495858  0.07565084996483758  0.3653018259283768  1.0000
  H   H37       1.0  0.11419564345536785  0.9557932409078727  0.7896062133475539  1.0000
  H   H38       1.0  0.8858185565843401  0.04419683531928339  0.2103705220954311  1.0000
  H   H39       1.0  0.8394359517094189  0.135961009778562  0.6799531513287747  1.0000
  H   H40       1.0  0.16056417863524095  0.864033374898298  0.3200386515945155  1.0000
  H   H41       1.0  0.6530772970627583  0.1514354301851313  0.8297643445650776  1.0000
  H   H42       1.0  0.34692476360317676  0.8485600869469961  0.1702376925193789  1.0000
  H   H43       1.0  0.8422538661585366  0.17381385250267553  0.8346668796937209  1.0000
  H   H44       1.0  0.15775652166192347  0.8261827257833685  0.1653223891786979  1.0000
  H   H45       1.0  0.3934523911233402  0.6812740044092749  0.8651852396542521  1.0000
  H   H46       1.0  0.6065414520492994  0.31873011312256233  0.13482144304096266  1.0000
  H   H47       1.0  0.5078324791298173  0.6976903283751097  0.9641096390029275  1.0000
  H   H48       1.0  0.4921679496622958  0.3023127266941543  0.03589321057962282  1.0000
  H   H49       1.0  0.2881241022287924  0.48458716912779903  0.218974831519354  1.0000
  H   H50       1.0  0.7118653077055657  0.5154125882716016  0.7810254143107755  1.0000
  H   H51       1.0  0.44461006459960134  0.5795940826075208  0.1763457947848437  1.0000
  H   H52       1.0  0.5553763290392695  0.42040679829392485  0.8236680844584754  1.0000
  C   C1        1.0  0.15884986969919626  0.4813910063955902  0.7458280231684071  1.0000
  C   C2        1.0  0.8411538579336837  0.5186098977940146  0.25417212910180353  1.0000
  C   C3        1.0  0.2586378133821087  0.4514576618302613  0.5972240953508674  1.0000
  C   C4        1.0  0.7413569178289593  0.5485442762010564  0.4027761008848857  1.0000
  C   C5        1.0  0.3573057072051142  0.28872055264546503  0.5607370002237388  1.0000
  C   C6        1.0  0.6426824400308676  0.7112792125757321  0.43926638240819926  1.0000
  C   C7        1.0  0.4918388413554597  0.23323289527697705  0.6230380402115401  1.0000
  C   C8        1.0  0.5081460295194875  0.7667657775030959  0.37696556342520887  1.0000
  C   C9        1.0  0.44904110094478983  0.273716850757637  0.4084196872962168  1.0000
  C   C10       1.0  0.5509446322000714  0.7262893563880937  0.5915811996215722  1.0000
  C   C11       1.0  0.23058881338673143  0.20051971710309144  0.6077597035036391  1.0000
  C   C12       1.0  0.7693997589531779  0.7994854349493108  0.3922431015248264  1.0000
  C   C13       1.0  0.8608760003631276  0.7708808637216646  0.9862051995380767  1.0000
  C   C14       1.0  0.13915762700958112  0.2291190909538656  0.013790982094022299  1.0000
  C   C15       1.0  0.7945677103203865  0.926831731191015  0.9557800436489927  1.0000
  C   C16       1.0  0.20546102416830794  0.07316495913840267  0.044214316541037114  1.0000
  C   C17       1.0  0.8630231270066422  0.9504786242788722  0.8032143555327023  1.0000
  C   C18       1.0  0.13697731549192582  0.04951795622095289  0.1967862858213607  1.0000
  C   C19       1.0  0.7947613491804192  0.8702476283560897  0.7335414026704186  1.0000
  C   C20       1.0  0.20523169422835255  0.1297489306658335  0.2664625079706298  1.0000
  C   C21       1.0  0.06207198047978602  0.9002570768740478  0.7408305258410123  1.0000
  C   C22       1.0  0.9379388998838041  0.09973515828085056  0.2591507365053474  1.0000
  C   C23       1.0  0.7957444886007539  0.11249090360096395  0.7863477271046974  1.0000
  C   C24       1.0  0.20426094218527185  0.8875056697559103  0.21364585581525827  1.0000
  C   C25       1.0  0.45779019489539524  0.6252855580422078  0.9307636796373301  1.0000
  C   C26       1.0  0.5422073426133097  0.3747185722406029  0.06924182581214917  1.0000
  C   C27       1.0  0.39658115089870466  0.5097202996687713  0.13765763092568042  1.0000
  C   C28       1.0  0.6034118892212917  0.49028272989854566  0.8623475731483338  1.0000
  O   O1        1.0  0.23724353525656747  0.5094203129072595  0.8113052917817498  1.0000
  O   O2        1.0  0.7627651389930822  0.4905806002355674  0.18869146123645197  1.0000
  O   O3        1.0  0.9940635724904047  0.5288400046083763  0.205631930711462  1.0000
  O   O4        1.0  0.0059375760129825655  0.47116417061774024  0.7943797158564648  1.0000
  O   O5        1.0  0.002921185568688305  0.7318900210339901  0.0029223338220063623  1.0000
  O   O6        1.0  0.9971067168100664  0.2681217657424709  0.997075610920277  1.0000
  O   O7        1.0  0.22662143736990717  0.3109106122910816  0.012715443974585067  1.0000
  O   O8        1.0  0.7734171262018918  0.6890893553617017  0.9872782532010191  1.0000
  O   O9        1.0  0.3259452729238534  0.5878006696668335  0.04475768770084439  1.0000
  O   O10       1.0  0.6740510106597599  0.41220669968642903  0.955250686471409  1.0000
