data_image0
_chemical_formula_structural       Co2H12C16N20
_chemical_formula_sum              "Co2 H12 C16 N20"
_cell_length_a       6.349907594057634
_cell_length_b       8.320056573197306
_cell_length_c       10.35693482160845
_cell_angle_alpha    92.45348660318437
_cell_angle_beta     90.00003926871113
_cell_angle_gamma    112.41490554730613

_space_group_name_H-M_alt    "P 1"
_space_group_IT_number       1

loop_
  _space_group_symop_operation_xyz
  'x, y, z'

loop_
  _atom_site_type_symbol
  _atom_site_label
  _atom_site_symmetry_multiplicity
  _atom_site_fract_x
  _atom_site_fract_y
  _atom_site_fract_z
  _atom_site_occupancy
  Co  Co1       1.0  0.5000030664048581  0.4999967154660824  0.9999969081668141  1.0000
  Co  Co2       1.0  0.9999991911796898  0.5000004760699639  0.5000001269647782  1.0000
  H   H1        1.0  0.8204153072474295  0.12055224230562084  0.5701417160562842  1.0000
  H   H2        1.0  0.6995122289324271  0.8792312091752308  0.9297857107625166  1.0000
  H   H3        1.0  0.1795981618512314  0.8794523136838704  0.42986152262368904  1.0000
  H   H4        1.0  0.30048632182721485  0.12076553281877982  0.07021706551323352  1.0000
  H   H5        1.0  0.4762383659491504  0.12344184408803469  0.9252710252005445  1.0000
  H   H6        1.0  0.3527986935864078  0.8763799594890643  0.5745337289333676  1.0000
  H   H7        1.0  0.5237561031079209  0.8765498667007491  0.07472758932966171  1.0000
  H   H8        1.0  0.6472056196306395  0.12361570358569905  0.4254641535200463  1.0000
  H   H9        1.0  0.8441378496402407  0.5850920000159405  0.7487386353371762  1.0000
  H   H10       1.0  0.25901554673830407  0.41471802034445904  0.7512151793102931  1.0000
  H   H11       1.0  0.15584183899634496  0.41490481308993304  0.2512622120634163  1.0000
  H   H12       1.0  0.7409893494758604  0.5852788135236507  0.24878567056215675  1.0000
  C   C1        1.0  0.7731718589478972  0.18840962023307375  0.6501011537458156  1.0000
  C   C2        1.0  0.584514583394906  0.8113879138221165  0.8498306837747123  1.0000
  C   C3        1.0  0.22683336324445932  0.8115910281098521  0.34990185365479937  1.0000
  C   C4        1.0  0.415485608178521  0.1886089594948501  0.15016920212362814  1.0000
  C   C5        1.0  0.6458981856424229  0.09556407799948367  0.7509739315172155  1.0000
  C   C6        1.0  0.5502424164042238  0.9042616767629851  0.7489216452444368  1.0000
  C   C7        1.0  0.3541016835718904  0.9044353089736318  0.2490280350221639  1.0000
  C   C8        1.0  0.44976472540090373  0.09573650256321291  0.2510783181589957  1.0000
  C   C9        1.0  0.5892985807963455  0.19042099544889618  0.8494826678636757  1.0000
  C   C10       1.0  0.398795815619465  0.8093973244249213  0.6504002606613568  1.0000
  C   C11       1.0  0.4106971195951487  0.8095731869519084  0.15051899097268523  1.0000
  C   C12       1.0  0.6012069003439178  0.1905982940104279  0.34959858514820047  1.0000
  C   C13       1.0  0.7855174783746361  0.44420267338593783  0.7505757497097961  1.0000
  C   C14       1.0  0.3411873642835771  0.5556198104781486  0.7493896253987984  1.0000
  C   C15       1.0  0.2144716195434171  0.5557940608222296  0.24942702563900818  1.0000
  C   C16       1.0  0.6588131278689031  0.4443745058408979  0.25060914336913953  1.0000
  N   N1        1.0  0.839534621371044  0.3631046869467908  0.6470485792073148  1.0000
  N   N2        1.0  0.47626736803898223  0.6367395303778878  0.8529003707312413  1.0000
  N   N3        1.0  0.16046335001055914  0.6368972123848309  0.3529554678186174  1.0000
  N   N4        1.0  0.5237375499552426  0.3632573468320003  0.14709951563057194  1.0000
  N   N5        1.0  0.6623030881708656  0.364249985007298  0.8502725236464741  1.0000
  N   N6        1.0  0.29791301182288515  0.635535317770973  0.6496283306531085  1.0000
  N   N7        1.0  0.3376850789918108  0.6357417205909285  0.14972609026576583  1.0000
  N   N8        1.0  0.7020890775832596  0.3644590431874803  0.35036947475868635  1.0000
  N   N9        1.0  0.9569671864558128  0.7560656960225243  0.9880512095577887  1.0000
  N   N10       1.0  0.200970209742131  0.24391280153546546  0.51194811169578  1.0000
  N   N11       1.0  0.043050564707826276  0.24394744503090487  0.011935147253574002  1.0000
  N   N12       1.0  0.7990268678632331  0.7561062607036533  0.4880511528721101  1.0000
  N   N13       1.0  0.7962633019545036  0.6737814454140008  0.05096532071364381  1.0000
  N   N14       1.0  0.12260164242512415  0.32621644342953005  0.4490089157505963  1.0000
  N   N15       1.0  0.20373574540475656  0.32621312965804344  0.9490276668360026  1.0000
  N   N16       1.0  0.8773989404666905  0.6737843743875729  0.5509902371440135  1.0000
  N   N17       1.0  0.1197149788425094  0.8443100197150953  0.9338786489362718  1.0000
  N   N18       1.0  0.2754609081038096  0.15563290036054409  0.5661736352782542  1.0000
  N   N19       1.0  0.880275336590813  0.1556986346770372  0.06612000038007443  1.0000
  N   N20       1.0  0.7245505578809031  0.8443802794095632  0.4338407396106377  1.0000
