data_image0
_chemical_formula_structural       Cu4H16C16S4N8Cl4
_chemical_formula_sum              "Cu4 H16 C16 S4 N8 Cl4"
_cell_length_a       7.363444658745645
_cell_length_b       7.338919582188048
_cell_length_c       12.882325026036101
_cell_angle_alpha    84.19979022521126
_cell_angle_beta     83.53643217129041
_cell_angle_gamma    63.355753358101865

_space_group_name_H-M_alt    "P 1"
_space_group_IT_number       1

loop_
  _space_group_symop_operation_xyz
  'x, y, z'

loop_
  _atom_site_type_symbol
  _atom_site_label
  _atom_site_symmetry_multiplicity
  _atom_site_fract_x
  _atom_site_fract_y
  _atom_site_fract_z
  _atom_site_occupancy
  Cu  Cu1       1.0  0.16110685075809533  0.5055715986490696  0.34211790908271666  1.0000
  Cu  Cu2       1.0  0.8389014724854391  0.4944323107347797  0.6578850423732872  1.0000
  Cu  Cu3       1.0  0.9450895716161086  0.31901152215839085  0.24491979117834006  1.0000
  Cu  Cu4       1.0  0.05491665473424233  0.6809908244899462  0.7550810829045246  1.0000
  H   H1        1.0  0.3615332602548806  0.6472511195268422  0.9688634441320473  1.0000
  H   H2        1.0  0.6384257522665846  0.35275854635164444  0.03113185527736563  1.0000
  H   H3        1.0  0.13106131584128633  0.27942836841426544  0.0382731128947427  1.0000
  H   H4        1.0  0.8689470219706554  0.7205724866023926  0.9617308079756268  1.0000
  H   H5        1.0  0.3226225248256185  0.005233898583831798  0.910556318791933  1.0000
  H   H6        1.0  0.6773563388654441  0.9947743796659267  0.08944150825634269  1.0000
  H   H7        1.0  0.40234656355224996  0.7916806895541981  0.6456816666313897  1.0000
  H   H8        1.0  0.5976657432928718  0.20831707782279096  0.35431672766608807  1.0000
  H   H9        1.0  0.3379839042173103  0.970029012995276  0.3158467635175839  1.0000
  H   H10       1.0  0.6620365776581706  0.029962676520270293  0.6841514231054902  1.0000
  H   H11       1.0  0.17896721222173542  0.019358733724992295  0.5046803767587136  1.0000
  H   H12       1.0  0.8210450414877927  0.9806359514511199  0.4953158882470205  1.0000
  H   H13       1.0  0.23873518216516496  0.5928463229726475  0.1400477801151112  1.0000
  H   H14       1.0  0.7612416885463064  0.40716349561773757  0.8599524228813492  1.0000
  H   H15       1.0  0.6535135532646948  0.6839631610637723  0.2844952976843445  1.0000
  H   H16       1.0  0.34650629656452747  0.31602701493174823  0.7155053600997263  1.0000
  C   C1        1.0  0.7088528159123586  0.5847230346175607  0.4397878088578223  1.0000
  C   C2        1.0  0.29116023438825084  0.41526711101155905  0.560214121227844  1.0000
  C   C3        1.0  0.10388318610367983  0.8927718158159476  0.1828957578119699  1.0000
  C   C4        1.0  0.8961073297278475  0.1072319617312658  0.817104614086567  1.0000
  C   C5        1.0  0.45241354510616844  0.7718682547151942  0.562672447296876  1.0000
  C   C6        1.0  0.5475919283583295  0.22812946837855458  0.4373256699491392  1.0000
  C   C7        1.0  0.3303632954576374  0.9001467215499301  0.4849472344962393  1.0000
  C   C8        1.0  0.669643536582605  0.09984488635755889  0.5150511727004313  1.0000
  C   C9        1.0  0.41153100689037087  0.8717705982820264  0.3827346255354556  1.0000
  C   C10       1.0  0.5884778712650557  0.1282225514857132  0.6172635350047813  1.0000
  C   C11       1.0  0.2863321430745388  0.777037382745057  0.018165449343619886  1.0000
  C   C12       1.0  0.7136385145146208  0.22295859845404917  0.9818329791295425  1.0000
  C   C13       1.0  0.2616906438703383  0.9714868510473094  0.9868515240339447  1.0000
  C   C14       1.0  0.7382944042290803  0.028519951007247395  0.013148276550275291  1.0000
  C   C15       1.0  0.15608926872040033  0.12239712526600496  0.0581485670982858  1.0000
  C   C16       1.0  0.8439115359606647  0.8776021441137087  0.9418544491755083  1.0000
  S   S1        1.0  0.9313232810349208  0.3736395883398842  0.4095663701868162  1.0000
  S   S2        1.0  0.06868365491891391  0.626355122643744  0.5904364903311787  1.0000
  S   S3        1.0  0.01136003528370831  0.8408529204873217  0.3027579667261691  1.0000
  S   S4        1.0  0.9886401082142838  0.15915094410674868  0.697245581879912  1.0000
  N   N1        1.0  0.6397161922722319  0.6210448440278711  0.5416584964780284  1.0000
  N   N2        1.0  0.36029073382837146  0.3789590439741701  0.4583430051499349  1.0000
  N   N3        1.0  0.5969196218864355  0.7160200893066532  0.3628483110494471  1.0000
  N   N4        1.0  0.40309338470893863  0.2839792194240474  0.6371507107931365  1.0000
  N   N5        1.0  0.20722103750019044  0.7433169675179625  0.11345699309190849  1.0000
  N   N6        1.0  0.7927523561011752  0.25669127391351754  0.8865404573798941  1.0000
  N   N7        1.0  0.0792231951957731  0.086242547426572  0.1533789116270867  1.0000
  N   N8        1.0  0.9207809681133983  0.9137582504030917  0.8466214344356898  1.0000
  Cl  Cl1       1.0  0.3647770771974309  0.30283794045413964  0.20460733836601008  1.0000
  Cl  Cl2       1.0  0.6352216014536366  0.6971658749244442  0.7953916617059206  1.0000
  Cl  Cl3       1.0  0.7331279860948284  0.5837724827841128  0.1390280514949751  1.0000
  Cl  Cl4       1.0  0.2668761579307458  0.4162252467615203  0.8609717146291018  1.0000
