data_image0
_chemical_formula_structural       Ca4H24C12O24
_chemical_formula_sum              "Ca4 H24 C12 O24"
_cell_length_a       6.71784756300388
_cell_length_b       9.762306438980957
_cell_length_c       12.182419172426615
_cell_angle_alpha    115.34189075376909
_cell_angle_beta     90.00012272192289
_cell_angle_gamma    89.99994456926221

_space_group_name_H-M_alt    "P 1"
_space_group_IT_number       1

loop_
  _space_group_symop_operation_xyz
  'x, y, z'

loop_
  _atom_site_type_symbol
  _atom_site_label
  _atom_site_symmetry_multiplicity
  _atom_site_fract_x
  _atom_site_fract_y
  _atom_site_fract_z
  _atom_site_occupancy
  Ca  Ca1       1.0  0.8657501569311138  0.5825958046234092  0.8229230951184404  1.0000
  Ca  Ca2       1.0  0.365749080723603  0.41740187392237266  0.6770771074658342  1.0000
  Ca  Ca3       1.0  0.13424390113733864  0.4174035595745806  0.17707738230403441  1.0000
  Ca  Ca4       1.0  0.6342464659167105  0.58259862362911  0.3229237499952616  1.0000
  H   H1        1.0  0.7557110002069577  0.14682269019833433  0.9289994593980495  1.0000
  H   H2        1.0  0.25571774818985205  0.8531761739381168  0.571005114883981  1.0000
  H   H3        1.0  0.24428603500857088  0.8531778313549266  0.07100304791432416  1.0000
  H   H4        1.0  0.7442882184497533  0.14682542096458914  0.4289936478455587  1.0000
  H   H5        1.0  0.4894471509552432  0.14999597628479927  0.9340882503751117  1.0000
  H   H6        1.0  0.9894527584858325  0.8500017589961074  0.5659154013886365  1.0000
  H   H7        1.0  0.5105513728315642  0.8499988665004495  0.06591153182437637  1.0000
  H   H8        1.0  0.010550231013965598  0.1500032719694033  0.4340869762278246  1.0000
  H   H9        1.0  0.7545895579824204  0.6932332396117501  0.10326137391945156  1.0000
  H   H10       1.0  0.2545939752739415  0.3067678187334337  0.39673952376818983  1.0000
  H   H11       1.0  0.24540598865772273  0.3067683912931757  0.8967398635793558  1.0000
  H   H12       1.0  0.7454105027969788  0.6932326668175008  0.6032605087731113  1.0000
  H   H13       1.0  0.9957263035831119  0.6753090815359498  0.08809072735837722  1.0000
  H   H14       1.0  0.4957277738626829  0.32469538188977504  0.41191077690359623  1.0000
  H   H15       1.0  0.0042692430552762  0.3246936707215582  0.9119100652529609  1.0000
  H   H16       1.0  0.5042737270657653  0.6753051156619206  0.5880900805610949  1.0000
  H   H17       1.0  0.013596214779511197  0.9005060876597496  0.9322476560336738  1.0000
  H   H18       1.0  0.5136015400455207  0.0994881179649099  0.5677476811999184  1.0000
  H   H19       1.0  0.9864127290058492  0.09948417370865312  0.0677473063204772  1.0000
  H   H20       1.0  0.486408892313527  0.9005123675862379  0.43225235134498513  1.0000
  H   H21       1.0  0.8833447839378864  0.836228252452841  0.007077761038452457  1.0000
  H   H22       1.0  0.38334682519210633  0.16377163362384548  0.4929196124962942  1.0000
  H   H23       1.0  0.11665969413445511  0.16377337845239745  0.9929234764657551  1.0000
  H   H24       1.0  0.616663607163936  0.8362276945721305  0.5070783901605083  1.0000
  C   C1        1.0  0.6241120645824055  0.3087142577424657  0.8736619713329006  1.0000
  C   C2        1.0  0.12411481990476152  0.6912822823943048  0.6263383841471893  1.0000
  C   C3        1.0  0.3758834820579081  0.6912862398090169  0.12633888612819524  1.0000
  C   C4        1.0  0.8758896581677504  0.3087182151574908  0.3736624733192997  1.0000
  C   C5        1.0  0.6234781547157341  0.21972059597472793  0.9514701663977689  1.0000
  C   C6        1.0  0.1234834435404011  0.7802781868225424  0.5485292985428885  1.0000
  C   C7        1.0  0.37652036906898456  0.780277634869975  0.048529930989680246  1.0000
  C   C8        1.0  0.8765195459570663  0.21972115337403864  0.451469529034604  1.0000
  C   C9        1.0  0.6314417347676696  0.3321433232960588  0.08466139295054381  1.0000
  C   C10       1.0  0.13144267001406007  0.6678588717106421  0.41534056088683957  1.0000
  C   C11       1.0  0.3685523233006122  0.6678571742553743  0.9153394645096569  1.0000
  C   C12       1.0  0.8685543651949387  0.3321427351926117  0.5846590267624947  1.0000
  O   O1        1.0  0.7884324859410512  0.3655936016531172  0.8619388301121234  1.0000
  O   O2        1.0  0.2884398432767981  0.6343983806663971  0.6380577290080822  1.0000
  O   O3        1.0  0.21156008355729483  0.6344035078388046  0.13806171215919952  1.0000
  O   O4        1.0  0.7115586804996425  0.3656020568808813  0.3619390038288657  1.0000
  O   O5        1.0  0.4596247547409292  0.3227715985832874  0.8276989177491456  1.0000
  O   O6        1.0  0.959628073352441  0.6772226505260973  0.672297783386547  1.0000
  O   O7        1.0  0.5403752576174057  0.6772266442623336  0.1723020045644006  1.0000
  O   O8        1.0  0.0403764047138822  0.3227766656688118  0.3276993943414723  1.0000
  O   O9        1.0  0.7955851183339959  0.39743605741856675  0.1292091296035878  1.0000
  O   O10       1.0  0.29558896246551575  0.6025638704669162  0.3707914375847706  1.0000
  O   O11       1.0  0.2044104283079093  0.6025644521337769  0.8707925527826959  1.0000
  O   O12       1.0  0.7044080727441582  0.3974332030225725  0.6292066299136891  1.0000
  O   O13       1.0  0.4727674954591805  0.3632940570008357  0.14731693534189108  1.0000
  O   O14       1.0  0.9727730662268568  0.6367081861009966  0.3526870808046069  1.0000
  O   O15       1.0  0.5272220968977663  0.636706476553023  0.8526863968911728  1.0000
  O   O16       1.0  0.027220991839833196  0.3632922994495758  0.6473129517303988  1.0000
  O   O17       1.0  0.8710583118135063  0.6987508734696632  0.05436434234938044  1.0000
  O   O18       1.0  0.37106292735158775  0.3012501570941454  0.4456342213029316  1.0000
  O   O19       1.0  0.1289372348248818  0.3012518787878378  0.9456364502619578  1.0000
  O   O20       1.0  0.6289400621472935  0.6987503284567396  0.5543658112374673  1.0000
  O   O21       1.0  0.8779370937335429  0.870387223547162  0.9403652818966036  1.0000
  O   O22       1.0  0.37793899952009713  0.12961043185724463  0.5596332855657167  1.0000
  O   O23       1.0  0.1220688729113348  0.12961100729780375  0.05963481549535027  1.0000
  O   O24       1.0  0.622068455695221  0.8703877869869173  0.4403659869019449  1.0000
