data_image0
_chemical_formula_structural       Ag4H16C16N12O8
_chemical_formula_sum              "Ag4 H16 C16 N12 O8"
_cell_length_a       6.399864954538046
_cell_length_b       7.266055686221179
_cell_length_c       12.77279189676074
_cell_angle_alpha    90.00278738325966
_cell_angle_beta     90.00145851323452
_cell_angle_gamma    90.00028898822578

_space_group_name_H-M_alt    "P 1"
_space_group_IT_number       1

loop_
  _space_group_symop_operation_xyz
  'x, y, z'

loop_
  _atom_site_type_symbol
  _atom_site_label
  _atom_site_symmetry_multiplicity
  _atom_site_fract_x
  _atom_site_fract_y
  _atom_site_fract_z
  _atom_site_occupancy
  Ag  Ag1       1.0  0.9012138961417476  0.1433134074704796  0.8312693156280632  1.0000
  Ag  Ag2       1.0  0.09878776223362  0.856714224442463  0.3312494268352851  1.0000
  Ag  Ag3       1.0  0.09878208716095568  0.6432992535328451  0.8312546124097437  1.0000
  Ag  Ag4       1.0  0.9012133213256914  0.35671324002138494  0.3312766564300986  1.0000
  H   H1        1.0  0.4129668916463486  0.05650607484889749  0.7542301063970598  1.0000
  H   H2        1.0  0.5870340405890672  0.9435177395198123  0.2542299136370048  1.0000
  H   H3        1.0  0.5870338127219127  0.5564996390512107  0.7542146836467154  1.0000
  H   H4        1.0  0.4129686817675661  0.4435104123265035  0.2542367241504451  1.0000
  H   H5        1.0  0.5959540130800817  0.3063870824645605  0.0383740388148297  1.0000
  H   H6        1.0  0.4040658146426138  0.6936045574706213  0.538354997831668  1.0000
  H   H7        1.0  0.4040507122493721  0.8063844624852193  0.0383742520776664  1.0000
  H   H8        1.0  0.5959597408151963  0.1936223171308171  0.5383735746586638  1.0000
  H   H9        1.0  0.9972964265872548  0.2751636712400369  0.0269378295626055  1.0000
  H   H10       1.0  0.0027384552772176  0.7248627768207853  0.5269355937571945  1.0000
  H   H11       1.0  0.0027386888294458  0.7751066892946736  0.026941453849779903  1.0000
  H   H12       1.0  0.9972711916213014  0.22480002333906404  0.5269186581056289  1.0000
  H   H13       1.0  0.1914864708541657  0.39366777938913333  0.09943993597379831  1.0000
  H   H14       1.0  0.8085395352463961  0.6063221881557296  0.5994307603353803  1.0000
  H   H15       1.0  0.8085611777478475  0.8936644764969374  0.0994414759032125  1.0000
  H   H16       1.0  0.19149139150030692  0.10630622369610879  0.5994362665384472  1.0000
  C   C1        1.0  0.40713772976162926  0.12015597599041433  0.8309142648254024  1.0000
  C   C2        1.0  0.5928967244744996  0.8798523588602266  0.3309147301825561  1.0000
  C   C3        1.0  0.5929017728418842  0.6201509267833814  0.8309059641058879  1.0000
  C   C4        1.0  0.40711393059735457  0.3798298823336238  0.3309120696000534  1.0000
  C   C5        1.0  0.5071971337495569  0.2436514801101595  0.9748013789656724  1.0000
  C   C6        1.0  0.4927648248932498  0.7563760079919816  0.4747885087643411  1.0000
  C   C7        1.0  0.4927647649792845  0.7436324967882512  0.9747949126671144  1.0000
  C   C8        1.0  0.5072096940143708  0.2563757239500219  0.4748020211042743  1.0000
  C   C9        1.0  0.15444192433739798  0.2628316932675645  0.0605317430577728  1.0000
  C   C10       1.0  0.8455743239673338  0.7371742234543674  0.5605251122067046  1.0000
  C   C11       1.0  0.8455822565788936  0.7628201963283274  0.06053454564774801  1.0000
  C   C12       1.0  0.1544386791867325  0.23713892760596875  0.5605254406546436  1.0000
  C   C13       1.0  0.15999962111884966  0.1064477383187139  0.1426322545185599  1.0000
  C   C14       1.0  0.8399738561287008  0.8935624287595444  0.6426330224401084  1.0000
  C   C15       1.0  0.8399787804064828  0.60643210315731  0.1426381163963129  1.0000
  C   C16       1.0  0.15998063386327738  0.3935643010834937  0.6426224627951669  1.0000
  N   N1        1.0  0.2981989224899237  0.23136679139332728  0.9750245508317334  1.0000
  N   N2        1.0  0.7017849228328928  0.7686276858261891  0.4750202097256491  1.0000
  N   N3        1.0  0.701797249933925  0.7313591769727593  0.975030970933446  1.0000
  N   N4        1.0  0.29820690851664006  0.26860639931913977  0.4750270988957793  1.0000
  N   N5        1.0  0.23225113633132113  0.15067258874133665  0.8841509370587132  1.0000
  N   N6        1.0  0.7677766047241545  0.8493334061703237  0.3841669141469097  1.0000
  N   N7        1.0  0.7677788104701547  0.6506582067423565  0.8841730871865324  1.0000
  N   N8        1.0  0.2322286177863261  0.3492996195651656  0.3841588556745918  1.0000
  N   N9        1.0  0.580446099814921  0.17544423896083572  0.8842208672642258  1.0000
  N   N10       1.0  0.41955508081537113  0.8245645129271324  0.3842018943088377  1.0000
  N   N11       1.0  0.41955595286852787  0.6754333871585486  0.8842017084877014  1.0000
  N   N12       1.0  0.5804514777297384  0.3245822457134223  0.3842132240794315  1.0000
  O   O1        1.0  0.0010633629751736998  0.1001179770417764  0.20263054873102956  1.0000
  O   O2        1.0  0.9989084269033411  0.8999234571226679  0.7026468617034354  1.0000
  O   O3        1.0  0.9989101675108285  0.6001150013105131  0.20265177974235374  1.0000
  O   O4        1.0  0.0010475596237853  0.3999209279254075  0.7026287621813836  1.0000
  O   O5        1.0  0.3164212439119396  0.0020901083438929005  0.1448122361058566  1.0000
  O   O6        1.0  0.6835367171512486  0.9979106111583319  0.6448209188792902  1.0000
  O   O7        1.0  0.6835703646014295  0.5020742049343596  0.14481450537268611  1.0000
  O   O8        1.0  0.3164141591900318  0.4979223852689003  0.6448061231002457  1.0000
