data_image0
_chemical_formula_structural       Al2H11C20ClO10
_chemical_formula_sum              "Al2 H11 C20 Cl1 O10"
_cell_length_a       6.646316265709329
_cell_length_b       11.170071287108259
_cell_length_c       11.04674029946657
_cell_angle_alpha    76.58647123342664
_cell_angle_beta     74.00182797103105
_cell_angle_gamma    71.74398525646787

_space_group_name_H-M_alt    "P 1"
_space_group_IT_number       1

loop_
  _space_group_symop_operation_xyz
  'x, y, z'

loop_
  _atom_site_type_symbol
  _atom_site_label
  _atom_site_symmetry_multiplicity
  _atom_site_fract_x
  _atom_site_fract_y
  _atom_site_fract_z
  _atom_site_occupancy
  Al  Al1       1.0  0.49257795060950815  0.49284290276754217  0.5068813145770434  1.0000
  Al  Al2       1.0  0.9942474928837866  0.49188456588240836  0.5040592677093869  1.0000
  H   H1        1.0  0.283633918982197  0.33719257424431964  0.5903893341922171  1.0000
  H   H2        1.0  0.7003077152238574  0.6492875156040157  0.4302944828690656  1.0000
  H   H3        1.0  0.17733717823259795  0.4152829361736252  0.12281146072244546  1.0000
  H   H4        1.0  0.664258224489913  0.595366513359906  0.11945856061336713  1.0000
  H   H5        1.0  0.3205114336028671  0.4115137448646566  0.8881456088892747  1.0000
  H   H6        1.0  0.2645653630317639  0.2444738770029744  0.348026337036984  1.0000
  H   H7        1.0  0.6261743952297534  0.1405041488600958  0.23040823333490582  1.0000
  H   H8        1.0  0.4701280304964755  0.7793564171434822  0.33209752775794493  1.0000
  H   H9        1.0  0.7288250764595079  0.9068186989429138  0.220235929308643  1.0000
  H   H10       1.0  0.7425380048325037  0.8667792204964897  0.5824952595351435  1.0000
  H   H11       1.0  0.6279185417951254  0.10288164899187541  0.5769231899179134  1.0000
  C   C1        1.0  0.8623743706792624  0.2668109911645473  0.4920851352726173  1.0000
  C   C2        1.0  0.6475483343423389  0.488545264956457  0.7331548501991563  1.0000
  C   C3        1.0  0.1329035171181444  0.7209003218579754  0.49721362595533947  1.0000
  C   C4        1.0  0.338685068206921  0.5047707806115155  0.27554744237151846  1.0000
  C   C5        1.0  0.571204651207175  0.5000358166158704  0.8717319682234077  1.0000
  C   C6        1.0  0.41504711465321964  0.5038366526013079  0.13529422655255266  1.0000
  C   C7        1.0  0.6647934647208374  0.5554578505492813  0.9374676142812887  1.0000
  C   C8        1.0  0.3150795391441149  0.4529619440294539  0.0706176920374801  1.0000
  C   C9        1.0  0.5888371307390728  0.5550035993894653  0.06852973794654102  1.0000
  C   C10       1.0  0.39466846899669855  0.45072309271003513  0.940866487044886  1.0000
  C   C11       1.0  0.9409219182320641  0.1287524741372224  0.47900315441135893  1.0000
  C   C12       1.0  0.15769900118201724  0.0711569798633178  0.4150646076806055  1.0000
  C   C13       1.0  0.7937116015953406  0.056129601056831284  0.5328692902895398  1.0000
  C   C14       1.0  0.31002453428717996  0.1422587895500982  0.3475508932910927  1.0000
  C   C15       1.0  0.5123169352710448  0.08384345280817482  0.28101448769827186  1.0000
  C   C16       1.0  0.06803124862937451  0.8631791245668406  0.48016782116764034  1.0000
  C   C17       1.0  0.8571128273495815  0.9235963829342497  0.534882563836568  1.0000
  C   C18       1.0  0.22032599086949742  0.9357479826669958  0.41337338243823035  1.0000
  C   C19       1.0  0.4275483103891986  0.8799811747434346  0.3400324632297965  1.0000
  C   C20       1.0  0.5708952442323607  0.9519387367674385  0.27590469428334785  1.0000
  Cl  Cl1       1.0  0.8682729148688817  0.6309884315192279  0.8633444127836896  1.0000
  O   O1        1.0  0.6655942558575842  0.3229591108050158  0.48560399122096953  1.0000
  O   O2        1.0  0.839264314749286  0.49551931555165424  0.678410111894017  1.0000
  O   O3        1.0  0.9973727635404046  0.6665749745202946  0.4868329259901998  1.0000
  O   O4        1.0  0.46605919223900116  0.525154173121095  0.33136980582067815  1.0000
  O   O5        1.0  0.3181409835524888  0.6633673077785643  0.5227272039564639  1.0000
  O   O6        1.0  0.152474336768698  0.4860013076952328  0.3282268056552695  1.0000
  O   O7        1.0  0.9926666100830129  0.3187273034878757  0.5127912807879866  1.0000
  O   O8        1.0  0.51406107491875  0.4686701400725538  0.6812358081861374  1.0000
  O   O9        1.0  0.2507026057752029  0.4285643484924932  0.5615407900914064  1.0000
  O   O10       1.0  0.7359843079199921  0.5566399139093646  0.448065590290227  1.0000
