data_image0
_chemical_formula_structural       Zn2H44C64N8O8
_chemical_formula_sum              "Zn2 H44 C64 N8 O8"
_cell_length_a       7.610665486
_cell_length_b       11.51257742069801
_cell_length_c       15.9969
_cell_angle_alpha    90.0
_cell_angle_beta     90.0
_cell_angle_gamma    109.3018002046048

_space_group_name_H-M_alt    "P 1"
_space_group_IT_number       1

loop_
  _space_group_symop_operation_xyz
  'x, y, z'

loop_
  _atom_site_type_symbol
  _atom_site_label
  _atom_site_symmetry_multiplicity
  _atom_site_fract_x
  _atom_site_fract_y
  _atom_site_fract_z
  _atom_site_occupancy
  Zn  Zn1       1.0  0.649934304654636  3.22121600647e-05  0.4999756202764303  1.0000
  Zn  Zn2       1.0  0.1499346650698925  3.22121600647e-05  2.43797235697e-05  1.0000
  H   H1        1.0  0.24108718198460374  0.6417840329127884  0.4709875038288659  1.0000
  H   H2        1.0  0.5993049413231191  0.35825260004411763  0.5289924922953804  1.0000
  H   H3        1.0  0.7410881355148791  0.6417840329127884  0.0290124961711342  1.0000
  H   H4        1.0  0.09930530173837582  0.35825260004411763  0.9710075077046199  1.0000
  H   H5        1.0  0.9393173464390474  0.4736199911336598  0.4532246872831607  1.0000
  H   H6        1.0  0.4656439226802648  0.5263816686208997  0.5467046740305932  1.0000
  H   H7        1.0  0.439316392908765  0.4736199911336598  0.0467746875957218  1.0000
  H   H8        1.0  0.965643562265001  0.5263816686208997  0.9532953259694068  1.0000
  H   H9        1.0  0.7652598797920407  0.6973582921471859  0.2768098819146233  1.0000
  H   H10       1.0  0.06798892104000491  0.3027031901903428  0.7232295007157603  1.0000
  H   H11       1.0  0.26526024020729727  0.6973582921471859  0.22319011808537687  1.0000
  H   H12       1.0  0.5679890208082767  0.3027041105377677  0.7767704992842399  1.0000
  H   H13       1.0  0.06921959663692696  0.8637055680988084  0.2947783633078914  1.0000
  H   H14       1.0  0.20549049927768695  0.1362583574111085  0.7052097593908826  1.0000
  H   H15       1.0  0.569219696405199  0.8637064884462333  0.2052216366921087  1.0000
  H   H16       1.0  0.7054905990459589  0.1362592777585334  0.7947908657302349  1.0000
  H   H17       1.0  0.7606842110335281  0.3253372945449939  0.36075239577667884  1.0000
  H   H18       1.0  0.4354409572022108  0.6747821696806469  0.6393501240865405  1.0000
  H   H19       1.0  0.2606845714487919  0.3253372945449939  0.1392476042233213  1.0000
  H   H20       1.0  0.9354405967869471  0.6747821696806469  0.8606498759134598  1.0000
  H   H21       1.0  0.4515107098565637  0.1604469285756309  0.3657639917734059  1.0000
  H   H22       1.0  0.29114856959606084  0.8395970671607245  0.6341859985372196  1.0000
  H   H23       1.0  0.9515103494413069  0.1604469285756309  0.1342360082265941  1.0000
  H   H24       1.0  0.7911482091807972  0.8395970671607245  0.8658140014627806  1.0000
  H   H25       1.0  0.1823084574456146  0.43548447500957366  0.35139433265194964  1.0000
  H   H26       1.0  0.7467837698955152  0.5644803708477681  0.6486394238883761  1.0000
  H   H27       1.0  0.6823080970303579  0.43548447500957366  0.14860566734805056  1.0000
  H   H28       1.0  0.24678413031077898  0.5644803708477681  0.8513612012327414  1.0000
  H   H29       1.0  0.48960127864221914  0.6006840777155418  0.3523020085141512  1.0000
  H   H30       1.0  0.8889899511249981  0.3992982547429804  0.6477061180603769  1.0000
  H   H31       1.0  0.9896009182269554  0.6006840777155418  0.1476973663647314  1.0000
  H   H32       1.0  0.3889903115402548  0.3992982547429804  0.8522945070607408  1.0000
  H   H33       1.0  0.031169357053563822  0.2350097959930579  0.4861948252473952  1.0000
  H   H34       1.0  0.7960284339221175  0.7649670143808791  0.5137132819483767  1.0000
  H   H35       1.0  0.5311689966383002  0.2350097959930579  0.0138045496314945  1.0000
  H   H36       1.0  0.2960287943373815  0.7649670143808791  0.9862867180516235  1.0000
  H   H37       1.0  0.7752837199827454  0.9525678735416249  0.3128649925923171  1.0000
  H   H38       1.0  0.8226755684069362  0.04737948571454349  0.6871287561965149  1.0000
  H   H39       1.0  0.2752827664524631  0.9525678735416249  0.1871343822865654  1.0000
  H   H40       1.0  0.3226759288221929  0.04737948571454349  0.8128712438034853  1.0000
  H   H41       1.0  0.11594845360232142  0.09727059956651368  0.24918765510818025  1.0000
  H   H42       1.0  0.01868899230996138  0.9026601934358993  0.7507504579012192  1.0000
  H   H43       1.0  0.6159480931870578  0.09727059956651368  0.2508123448918198  1.0000
  H   H44       1.0  0.5186886318946977  0.9026601934358993  0.7492495420987808  1.0000
  C   C1        1.0  0.3534050363489671  0.8674292938020116  0.3971919559414658  1.0000
  C   C2        1.0  0.4859045048334779  0.1325392334450513  0.6027580343691596  1.0000
  C   C3        1.0  0.8534059898792494  0.8674292938020116  0.10280804405853423  1.0000
  C   C4        1.0  0.9859041444182143  0.1325392334450513  0.8972419656308406  1.0000
  C   C5        1.0  0.1750111101163584  0.7629238430854954  0.38348680056761  1.0000
  C   C6        1.0  0.4118038616364645  0.2369627732402648  0.6163719220598978  1.0000
  C   C7        1.0  0.6750107497011016  0.7629238430854954  0.1165125743112725  1.0000
  C   C8        1.0  0.9118035012212008  0.2369627732402648  0.8836280779401025  1.0000
  C   C9        1.0  0.13765492497614676  0.6520514288458017  0.4272902874932002  1.0000
  C   C10       1.0  0.485476024155169  0.3479373460447306  0.5726271965193277  1.0000
  C   C11       1.0  0.6376545645608901  0.6520514288458017  0.0727097125067999  1.0000
  C   C12       1.0  0.9854748099778947  0.3479382663921625  0.927372178359555  1.0000
  C   C13       1.0  0.96836946694382  0.558132734620628  0.41694765860885513  1.0000
  C   C14       1.0  0.4102172396968059  0.4418799693030948  0.5830148341241141  1.0000
  C   C15       1.0  0.46836982735908367  0.558132734620628  0.08305234139114502  1.0000
  C   C16       1.0  0.9102164190980135  0.44187904895566277  0.9169851658758861  1.0000
  C   C17       1.0  0.8303477259065208  0.5729991066631115  0.36363732973263313  1.0000
  C   C18       1.0  0.2573012832141757  0.42701635830290025  0.6363345398170921  1.0000
  C   C19       1.0  0.33034723255977394  0.5730000270105435  0.136362670267367  1.0000
  C   C20       1.0  0.7573022367444582  0.42701635830290025  0.8636660853040254  1.0000
  C   C21       1.0  0.8690067757701814  0.6843381370499912  0.3194825247391648  1.0000
  C   C22       1.0  0.18469835151610436  0.3156653633994253  0.6805449805899926  1.0000
  C   C23       1.0  0.3690071361854451  0.6843381370499912  0.1805174752608352  1.0000
  C   C24       1.0  0.6846979911008404  0.3156653633994253  0.8194550194100074  1.0000
  C   C25       1.0  0.03970037183064081  0.7774045895546634  0.3287724496621252  1.0000
  C   C26       1.0  0.2622691713590585  0.22257314116670557  0.6712244247322943  1.0000
  C   C27       1.0  0.5396995512318412  0.7774036692072315  0.17122817545899247  1.0000
  C   C28       1.0  0.7622701248893408  0.22257314116670557  0.828775575267706  1.0000
  C   C29       1.0  0.6477418401426008  0.4749618576871129  0.3575073920572081  1.0000
  C   C30       1.0  0.17281955096890309  0.5250471648468888  0.6424344716788897  1.0000
  C   C31       1.0  0.14774220055786466  0.4749618576871129  0.1424926079427919  1.0000
  C   C32       1.0  0.6728196507371751  0.5250480851943209  0.8575655283211105  1.0000
  C   C33       1.0  0.6343149309155225  0.3501875955119402  0.3593527495952316  1.0000
  C   C34       1.0  0.28423068543576596  0.6498858513421837  0.6406891335196223  1.0000
  C   C35       1.0  0.1343152913307861  0.3501875955119402  0.14064662528365096  1.0000
  C   C36       1.0  0.7842316389660483  0.6498858513421837  0.8593114916014957  1.0000
  C   C37       1.0  0.4621593618233889  0.2570916918895065  0.3609955678912797  1.0000
  C   C38       1.0  0.20510742985516128  0.7429504631519848  0.639095699791838  1.0000
  C   C39       1.0  0.962159001408125  0.2570916918895065  0.1390044321087203  1.0000
  C   C40       1.0  0.7051070694398975  0.7429504631519848  0.8609043002081622  1.0000
  C   C41       1.0  0.3011435767591664  0.2895514254106004  0.3594183873125446  1.0000
  C   C42       1.0  0.011571092165411379  0.71044931399652  0.6405959904731517  1.0000
  C   C43       1.0  0.8011445302894417  0.2895514254106004  0.1405816126874555  1.0000
  C   C44       1.0  0.5115707317501477  0.71044931399652  0.8594040095268483  1.0000
  C   C45       1.0  0.3098809420320166  0.4123073656710119  0.354185498440323  1.0000
  C   C46       1.0  0.8975585689177382  0.5876832499143845  0.6458988929105021  1.0000
  C   C47       1.0  0.8098805816167527  0.4123073656710119  0.1458138764385595  1.0000
  C   C48       1.0  0.39755761538745576  0.5876832499143845  0.8541017322106157  1.0000
  C   C49       1.0  0.4828843270606954  0.5045813990381447  0.35362976576711713  1.0000
  C   C50       1.0  0.9782895063627848  0.495429464190714  0.646410241984384  1.0000
  C   C51       1.0  0.9828839666454315  0.5045813990381447  0.14637023423288306  1.0000
  C   C52       1.0  0.47828986677804863  0.495429464190714  0.8535903831367335  1.0000
  C   C53       1.0  0.0032898706842417027  0.1776831952512694  0.4306690671317598  1.0000
  C   C54       1.0  0.8254082341835203  0.8222485180985828  0.5692740468465802  1.0000
  C   C55       1.0  0.5032886565069674  0.17768411559870148  0.0693309328682403  1.0000
  C   C56       1.0  0.3254072806532379  0.8222485180985828  0.9307259531534271  1.0000
  C   C57       1.0  0.8785930667264527  0.0325425647898285  0.339578918415441  1.0000
  C   C58       1.0  0.8460768326429859  0.9674342455841085  0.660371697016295  1.0000
  C   C59       1.0  0.37859211319617003  0.0325425647898285  0.160421081584559  1.0000
  C   C60       1.0  0.34607719305824963  0.9674342455841085  0.8396283029837053  1.0000
  C   C61       1.0  0.04685970026435631  0.1033089990570559  0.307260156655353  1.0000
  C   C62       1.0  0.9436281524191873  0.8966825368757654  0.6926673292950483  1.0000
  C   C63       1.0  0.5468593398490926  0.1033089990570559  0.192739843344647  1.0000
  C   C64       1.0  0.4436271988889119  0.8966825368757654  0.807332670704952  1.0000
  N   N1        1.0  0.12373593749817502  0.1949571961715506  0.3653195306590646  1.0000
  N   N2        1.0  0.9288131114729626  0.8050361804561277  0.6345754489932462  1.0000
  N   N3        1.0  0.6237355770829112  0.1949571961715506  0.1346804693409354  1.0000
  N   N4        1.0  0.4288139320717549  0.8050371008035596  0.8654245510067611  1.0000
  N   N5        1.0  0.8536628431400504  0.0794637174840602  0.4164363095349728  1.0000
  N   N6        1.0  0.7739871398604237  0.9204615534337818  0.5835593146172044  1.0000
  N   N7        1.0  0.35366366373884983  0.0794646378314852  0.0835636904650272  1.0000
  N   N8        1.0  0.2739875002756875  0.9204615534337818  0.9164406853827956  1.0000
  O   O1        1.0  0.45189708279709623  0.8534492163349583  0.4605373541123613  1.0000
  O   O2        1.0  0.598758600904752  0.1466361950357609  0.5395289087260622  1.0000
  O   O3        1.0  0.9518962621983039  0.8534482959875261  0.0394626458876388  1.0000
  O   O4        1.0  0.09875896132001571  0.1466361950357609  0.9604710912739378  1.0000
  O   O5        1.0  0.39580161673183784  0.9596232569427059  0.3504197688302143  1.0000
  O   O6        1.0  0.4364046318904046  0.0404317829628127  0.6496296157380499  1.0000
  O   O7        1.0  0.8958017165001098  0.9596241772901379  0.1495802311697858  1.0000
  O   O8        1.0  0.9364042714751408  0.0404317829628127  0.8503703842619503  1.0000
