data_image0
_chemical_formula_structural       Ag8H24C48S8N8Cl8O40
_chemical_formula_sum              "Ag8 H24 C48 S8 N8 Cl8 O40"
_cell_length_a       5.134738513
_cell_length_b       15.192198221372571
_cell_length_c       24.0585
_cell_angle_alpha    106.86749095009984
_cell_angle_beta     90.0
_cell_angle_gamma    90.0

_space_group_name_H-M_alt    "P 1"
_space_group_IT_number       1

loop_
  _space_group_symop_operation_xyz
  'x, y, z'

loop_
  _atom_site_type_symbol
  _atom_site_label
  _atom_site_symmetry_multiplicity
  _atom_site_fract_x
  _atom_site_fract_y
  _atom_site_fract_z
  _atom_site_occupancy
  Ag  Ag1       1.0  0.030763007619583498  0.0335898799211307  0.4491381201780484  1.0000
  Ag  Ag2       1.0  0.5307631524176131  0.9664104561496247  0.05086223235651494  1.0000
  Ag  Ag3       1.0  0.9692353344576219  0.9664097683257324  0.5508616906753687  1.0000
  Ag  Ag4       1.0  0.46923324214075984  0.0335891920972387  0.9491379941504191  1.0000
  Ag  Ag5       1.0  0.0632339892631251  0.020407047146108  0.179195605200924  1.0000
  Ag  Ag6       1.0  0.5632321865423079  0.9795932889246475  0.32080433168012235  1.0000
  Ag  Ag7       1.0  0.9367663003329268  0.9795932889246475  0.8208043316801225  1.0000
  Ag  Ag8       1.0  0.43676615553489734  0.0204063593222088  0.6791958948268046  1.0000
  H   H1        1.0  0.5016925386712501  0.3557782854298139  0.7573733416200241  1.0000
  H   H2        1.0  0.0016923938732204998  0.6442220506409413  0.7426270109145321  1.0000
  H   H3        1.0  0.49830775092480195  0.6442220506409413  0.2426265952610223  1.0000
  H   H4        1.0  0.9983059482039849  0.3557782854298139  0.2573733416200241  1.0000
  H   H5        1.0  0.1461281812307149  0.4495424388207924  0.7330579067059447  1.0000
  H   H6        1.0  0.6461283260287445  0.550457897249963  0.7669424458286116  1.0000
  H   H7        1.0  0.8538701608464976  0.5504572094260711  0.26694231980098243  1.0000
  H   H8        1.0  0.35387001604846796  0.4495424388207924  0.23305749105243484  1.0000
  H   H9        1.0  0.08360698386356089  0.2558608594725484  0.5624363463520154  1.0000
  H   H10       1.0  0.5836071286615905  0.7441394765982068  0.9375640061825408  1.0000
  H   H11       1.0  0.9163913582136515  0.7441394765982068  0.4375631748755211  1.0000
  H   H12       1.0  0.4163931609344615  0.2558601716486493  0.0624362203243862  1.0000
  H   H13       1.0  0.9917525473024966  0.3780362666778458  0.5020177157848522  1.0000
  H   H14       1.0  0.49175240250447416  0.6219640693929094  0.9979822210961942  1.0000
  H   H15       1.0  0.0082457947747088  0.6219640693929094  0.49798222109619417  1.0000
  H   H16       1.0  0.5082478870915779  0.3780362666778458  0.0020177157848521887  1.0000
  H   H17       1.0  0.3354153275068654  0.4708278370810391  0.47148504793830176  1.0000
  H   H18       1.0  0.8354135247860482  0.529171811165817  0.02851517856862532  1.0000
  H   H19       1.0  0.6645869096080332  0.5291731868136083  0.5285158462773936  1.0000
  H   H20       1.0  0.16458871232884317  0.470827149257147  0.9714845062571626  1.0000
  H   H21       1.0  0.4383670160225747  0.2537327323408576  0.3115445152523009  1.0000
  H   H22       1.0  0.9383671608205972  0.7462669159059985  0.18845529560111632  1.0000
  H   H23       1.0  0.5616313260546377  0.7462676037298976  0.6884558372822553  1.0000
  H   H24       1.0  0.06163118125660819  0.2537327323408576  0.8115445152523009  1.0000
  C   C1        1.0  0.377103915827  0.22547692672684863  0.6181261380755032  1.0000
  C   C2        1.0  0.8771060081438691  0.7745227215200077  0.8818740884314238  1.0000
  C   C3        1.0  0.622896373769052  0.7745234093439068  0.38187379880554323  1.0000
  C   C4        1.0  0.12289622897102959  0.22547692672684863  0.11812613807550322  1.0000
  C   C5        1.0  0.49259567816282157  0.2536412517628008  0.6736604717437444  1.0000
  C   C6        1.0  0.9925977704796907  0.7463583964840623  0.8263401704166924  1.0000
  C   C7        1.0  0.5074026639143838  0.7463577086601632  0.3263392130820435  1.0000
  C   C8        1.0  0.0074025191163614  0.2536412517628008  0.1736600560902346  1.0000
  C   C9        1.0  0.4093548278414545  0.334257651397408  0.714850061550429  1.0000
  C   C10       1.0  0.9093569201583235  0.6657426846733472  0.7851502909841273  1.0000
  C   C11       1.0  0.5906454617545975  0.6657413090255562  0.2851500389288689  1.0000
  C   C12       1.0  0.0906472644754146  0.3342583392213073  0.2148493562710385  1.0000
  C   C13       1.0  0.2113603248251721  0.3868686133158549  0.7013146117118084  1.0000
  C   C14       1.0  0.711358522104355  0.6131317227549005  0.7986853251692381  1.0000
  C   C15       1.0  0.7886399647708799  0.6131303471071095  0.2986859044209993  1.0000
  C   C16       1.0  0.288641767491697  0.386869988963646  0.2013136168065373  1.0000
  C   C17       1.0  0.09788229697141299  0.35767461590882027  0.6463663928275167  1.0000
  C   C18       1.0  0.5978824417694355  0.642325720161935  0.8536335440535296  1.0000
  C   C19       1.0  0.9021199401434856  0.642325720161935  0.3536335440535296  1.0000
  C   C20       1.0  0.4021197953454561  0.3576739280849281  0.1463662667998875  1.0000
  C   C21       1.0  0.1780324348913922  0.2780129158407263  0.604608956545654  1.0000
  C   C22       1.0  0.6780345272082613  0.7219874202300292  0.8953913959889022  1.0000
  C   C23       1.0  0.8219678547046597  0.7219887958778202  0.395390401083624  1.0000
  C   C24       1.0  0.3219677099066303  0.27801154019293517  0.10460912014391252  1.0000
  C   C25       1.0  0.1455536631724854  0.22956053719253336  0.36965516923120845  1.0000
  C   C26       1.0  0.645553807970515  0.7704391110543227  0.1303450572757185  1.0000
  C   C27       1.0  0.8544466264235665  0.7704404867021142  0.6303457249844868  1.0000
  C   C28       1.0  0.354446481625537  0.22955984936864132  0.8696550432035793  1.0000
  C   C29       1.0  0.0211325269486053  0.2652847346604119  0.42372079556441383  1.0000
  C   C30       1.0  0.5211326717466277  0.7347149135864515  0.07627984659602305  1.0000
  C   C31       1.0  0.9788697101662932  0.7347156014103434  0.5762799726236523  1.0000
  C   C32       1.0  0.4788695653682637  0.2652840468365198  0.9237206695367846  1.0000
  C   C33       1.0  0.0899831605504744  0.3518315519192684  0.4603781914256403  1.0000
  C   C34       1.0  0.5899833053485039  0.6481687841514869  0.03962174545540621  1.0000
  C   C35       1.0  0.910019076564417  0.6481694719753863  0.5396222871365455  1.0000
  C   C36       1.0  0.4100208792852342  0.3518308640953691  0.9603776497445012  1.0000
  C   C37       1.0  0.2823084362192887  0.4031473414430877  0.4436580325129924  1.0000
  C   C38       1.0  0.7823066334984787  0.5968523068037686  0.056341362686914906  1.0000
  C   C39       1.0  0.7176957484144424  0.5968536824515596  0.5563424460492001  1.0000
  C   C40       1.0  0.2176956036164199  0.4031466536191958  0.9436574908318464  1.0000
  C   C41       1.0  0.4036583352302046  0.3669045247582474  0.39005061617078246  1.0000
  C   C42       1.0  0.9036584800282341  0.6330951234886159  0.1099491946826348  1.0000
  C   C43       1.0  0.596343901884687  0.6330958113125078  0.6099497363637738  1.0000
  C   C44       1.0  0.0963437570866645  0.3669045247582474  0.8900506161707824  1.0000
  C   C45       1.0  0.3378244083137432  0.2811356363248407  0.3527152575270592  1.0000
  C   C46       1.0  0.8378245531117656  0.7188640119220155  0.14728455332635804  1.0000
  C   C47       1.0  0.6621739337634693  0.7188640119220155  0.647284553326358  1.0000
  C   C48       1.0  0.1621737889654469  0.28113632414874  0.8527157992082054  1.0000
  S   S1        1.0  0.46367307584841194  0.12155499005184822  0.5639875087924011  1.0000
  S   S2        1.0  0.9636732206464345  0.878445346018907  0.936012843742155  1.0000
  S   S3        1.0  0.53632721374764  0.878445346018907  0.4360128437421551  1.0000
  S   S4        1.0  0.0363270689496176  0.12155499005184822  0.0639870931388913  1.0000
  S   S5        1.0  0.0696802766283326  0.1186111037804736  0.3218112670119737  1.0000
  S   S6        1.0  0.5696804214263621  0.8813892322902817  0.17818866986907272  1.0000
  S   S7        1.0  0.9303180654488727  0.8813885444663825  0.6781885438414434  1.0000
  S   S8        1.0  0.4303198681696898  0.1186111037804736  0.8218108513584639  1.0000
  N   N1        1.0  0.8839106389758982  0.410978216489717  0.6323401916938565  1.0000
  N   N2        1.0  0.3839104941778757  0.5890221195810383  0.8676597451871899  1.0000
  N   N3        1.0  0.1160896506201468  0.5890228074049304  0.36765945556130936  1.0000
  N   N4        1.0  0.6160897954181763  0.410978216489717  0.13234060734736633  1.0000
  N   N5        1.0  0.6110398790622895  0.4193235838099412  0.3727287316847239  1.0000
  N   N6        1.0  0.11103973426426708  0.5806753766130228  0.12727095314106412  1.0000
  N   N7        1.0  0.38896041053376246  0.580676064436922  0.6272706635151835  1.0000
  N   N8        1.0  0.8889586078129453  0.4193242716338333  0.8727292733658629  1.0000
  Cl  Cl1       1.0  0.7350793015932524  0.1907108679449649  0.6938530435192406  1.0000
  Cl  Cl2       1.0  0.23508305183290898  0.8092894681257905  0.806147309015316  1.0000
  Cl  Cl3       1.0  0.2649170929651206  0.8092901559496897  0.3061470193894351  1.0000
  Cl  Cl4       1.0  0.764917237763143  0.1907101801210658  0.19385250183810138  1.0000
  Cl  Cl5       1.0  0.780865469555799  0.2057439469980196  0.4475986291816625  1.0000
  Cl  Cl6       1.0  0.2808653247577766  0.7942557012488367  0.0524015973252716  1.0000
  Cl  Cl7       1.0  0.21913482004025298  0.7942570768966277  0.5524014337270131  1.0000
  Cl  Cl8       1.0  0.7191349648382753  0.20574325917412753  0.9475985031540334  1.0000
  O   O1        1.0  0.3366052615189901  0.1271662573887298  0.5104889676277367  1.0000
  O   O2        1.0  0.8366073538358592  0.8728340786820256  0.9895109692533098  1.0000
  O   O3        1.0  0.6633930805582224  0.8728333908581336  0.48951084322568056  1.0000
  O   O4        1.0  0.1633929357601929  0.1271662573887298  0.010488967627736693  1.0000
  O   O5        1.0  0.355274177133154  0.04617499373124191  0.5853767534069618  1.0000
  O   O6        1.0  0.8552762694500231  0.9538246545156142  0.9146234730999652  1.0000
  O   O7        1.0  0.644726112462898  0.9538253423395135  0.41462359912759433  1.0000
  O   O8        1.0  0.1447240201460289  0.04617499373124191  0.0853767534069618  1.0000
  O   O9        1.0  0.7483457999412265  0.11842676697656881  0.5604432438362821  1.0000
  O   O10       1.0  0.24834370762435748  0.8815735690941866  0.9395566930447643  1.0000
  O   O11       1.0  0.2516544896548254  0.8815728812702943  0.4395565670171352  1.0000
  O   O12       1.0  0.751654634452855  0.11842676697656881  0.06044324383628211  1.0000
  O   O13       1.0  0.806718782176084  0.47960103086406763  0.6707744307172377  1.0000
  O   O14       1.0  0.30671863737806143  0.5203993052066878  0.8292259218173187  1.0000
  O   O15       1.0  0.19327955990112858  0.5203993052066878  0.3292255061638087  1.0000
  O   O16       1.0  0.693279704699151  0.4796003430401754  0.17077472034311822  1.0000
  O   O17       1.0  0.7878317444516795  0.3843690612807721  0.5828297345249425  1.0000
  O   O18       1.0  0.28783159965365  0.6156319626138824  0.9171707440372501  1.0000
  O   O19       1.0  0.21216659762553286  0.6156305869660914  0.41717007632847475  1.0000
  O   O20       1.0  0.7121667424235625  0.3843690612807721  0.08282973452494252  1.0000
  O   O21       1.0  0.2279064449021533  0.11052642171652852  0.2696912866377659  1.0000
  O   O22       1.0  0.7279065897001828  0.8894732265303347  0.23030852421565132  1.0000
  O   O23       1.0  0.7720918971750591  0.8894732265303347  0.7303085242156514  1.0000
  O   O24       1.0  0.2720917523770296  0.1105271095404206  0.7696914126653952  1.0000
  O   O25       1.0  0.7879797558836258  0.11724508552464391  0.3121618032907705  1.0000
  O   O26       1.0  0.2879796110856034  0.8827552505461114  0.1878385492437857  1.0000
  O   O27       1.0  0.2120185861935795  0.8827552505461114  0.6878385492437857  1.0000
  O   O28       1.0  0.7120187309916091  0.11724508552464391  0.8121618032907705  1.0000
  O   O29       1.0  0.151524755940379  0.05139282580008601  0.35286562523850057  1.0000
  O   O30       1.0  0.6515249007384085  0.9486068224467772  0.14713418561491662  1.0000
  O   O31       1.0  0.8484735861368264  0.9486068224467772  0.6471341856149166  1.0000
  O   O32       1.0  0.348473441338804  0.05139351362397802  0.8528657512661297  1.0000
  O   O33       1.0  0.7053660066292053  0.4854784860483861  0.41054244390230116  1.0000
  O   O34       1.0  0.20536586183118294  0.5145218500223692  0.08945749297874529  1.0000
  O   O35       1.0  0.2946362304856862  0.5145225378462683  0.5894576190063745  1.0000
  O   O36       1.0  0.7946363752837158  0.4854784860483861  0.910543275209328  1.0000
  O   O37       1.0  0.6824807127232972  0.3941788056738319  0.3212071434828729  1.0000
  O   O38       1.0  0.1824786204064281  0.6058201547491322  0.17879295699642486  1.0000
  O   O39       1.0  0.3175176293539153  0.6058208425730244  0.6787926673705442  1.0000
  O   O40       1.0  0.8175177741519377  0.394179493497731  0.8212076851640121  1.0000
