data_image0
_chemical_formula_structural       Cu6B6H120C96N48
_chemical_formula_sum              "Cu6 B6 H120 C96 N48"
_cell_length_a       15.944616464000598
_cell_length_b       15.944614626000687
_cell_length_c       15.944657371000268
_cell_angle_alpha    89.99998285938644
_cell_angle_beta     90.00001213497768
_cell_angle_gamma    89.99997103340229

_space_group_name_H-M_alt    "P 1"
_space_group_IT_number       1

loop_
  _space_group_symop_operation_xyz
  'x, y, z'

loop_
  _atom_site_type_symbol
  _atom_site_label
  _atom_site_symmetry_multiplicity
  _atom_site_fract_x
  _atom_site_fract_y
  _atom_site_fract_z
  _atom_site_occupancy
  Cu  Cu1       1.0  0.49999988460069034  0.9999995460849718  0.2500002581272725  1.0000
  Cu  Cu2       1.0  0.49999993753387884  0.9999994713262622  0.7499997133993688  1.0000
  Cu  Cu3       1.0  0.2499990941769781  0.49999995580042617  0.9999994893743251  1.0000
  Cu  Cu4       1.0  0.7500009807072631  0.4999999789110348  6.317948048999999e-07  1.0000
  Cu  Cu5       1.0  2.115133952e-07  0.2500000702744387  0.5000001509596714  1.0000
  Cu  Cu6       1.0  8.513872270000002e-08  0.7499989844533134  0.5000000761385195  1.0000
  B   B1        1.0  0.2499970333561521  0.9999995719095054  0.4999999592807783  1.0000
  B   B2        1.0  0.7500027887784171  0.9999994455017287  0.500000012245863  1.0000
  B   B3        1.0  0.5000000476954867  0.2500034072946278  1.5553297299999994e-08  1.0000
  B   B4        1.0  0.5000000271887473  0.7499965274168334  1.0561583959999994e-07  1.0000
  B   B5        1.0  1.2185931549999999e-07  0.49999987832882914  0.2499997587436695  1.0000
  B   B6        1.0  1.7479263900000004e-07  0.49999980356992785  0.7500004683544219  1.0000
  H   H1        1.0  0.2582884366150537  0.1555784224530896  0.4063354836851332  1.0000
  H   H2        1.0  0.7417122456084542  0.8444209130961299  0.4063360589828307  1.0000
  H   H3        1.0  0.7417118123742412  0.15557827222853862  0.5936647405643074  1.0000
  H   H4        1.0  0.2582876551711025  0.8444210073030619  0.5936645862755014  1.0000
  H   H5        1.0  0.4063339645906225  0.2582927269033419  0.1555768814777636  1.0000
  H   H6        1.0  0.40633328816237935  0.7417072551683148  0.8444225926780788  1.0000
  H   H7        1.0  0.5936666645386384  0.7417079379736221  0.1555768289821984  1.0000
  H   H8        1.0  0.5936662324763873  0.25829320371983755  0.8444226848613852  1.0000
  H   H9        1.0  0.1555772008734664  0.40633398229247314  0.258291488956509  1.0000
  H   H10       1.0  0.8444229213589054  0.40633373586430827  0.7417080330761794  1.0000
  H   H11       1.0  0.15557720470293654  0.5936661265678895  0.7417085592439321  1.0000
  H   H12       1.0  0.844422822833103  0.5936660246983507  0.2582915338923186  1.0000
  H   H13       1.0  0.6555785457488525  0.7582883299633636  0.9063355180199724  1.0000
  H   H14       1.0  0.34442098799900833  0.2417114832397402  0.9063349351919714  1.0000
  H   H15       1.0  0.6555785902789993  0.24171152608365534  0.09366463610970042  1.0000
  H   H16       1.0  0.3444220257416148  0.7582885301361629  0.09366515301662302  1.0000
  H   H17       1.0  0.75829214715764  0.9063333118671223  0.6555775313965597  1.0000
  H   H18       1.0  0.24170834949612902  0.9063334889890841  0.34442309533235976  1.0000
  H   H19       1.0  0.241707333496649  0.09366594915043443  0.6555769711156361  1.0000
  H   H20       1.0  0.7582923196184482  0.09366586507417203  0.3444232716632243  1.0000
  H   H21       1.0  0.9063334116971973  0.6555771201743427  0.7582916136273072  1.0000
  H   H22       1.0  0.9063334356525632  0.3444232362555937  0.2417092207959826  1.0000
  H   H23       1.0  0.0936665845428379  0.6555767756941293  0.2417078338106009  1.0000
  H   H24       1.0  0.09366671787581281  0.3444227372989559  0.7582909469350483  1.0000
  H   H25       1.0  0.3763778111224384  0.1555984811081856  0.2790100885162587  1.0000
  H   H26       1.0  0.6236234713126336  0.8444021468577532  0.27901001163235156  1.0000
  H   H27       1.0  0.6236224378568737  0.155597725346837  0.7209901357272701  1.0000
  H   H28       1.0  0.37637705664737103  0.8444021432809022  0.7209906336316793  1.0000
  H   H29       1.0  0.2790075732383031  0.3763802791815394  0.15559754690701774  1.0000
  H   H30       1.0  0.2790069564988258  0.6236197672696447  0.8444012731044097  1.0000
  H   H31       1.0  0.7209930558954056  0.6236203856891437  0.15559818389772326  1.0000
  H   H32       1.0  0.7209931913065832  0.3763800644536276  0.844401984090439  1.0000
  H   H33       1.0  0.1555979421976303  0.27900758844560863  0.3763799658691839  1.0000
  H   H34       1.0  0.8444016172271775  0.2790080045115814  0.6236202214395804  1.0000
  H   H35       1.0  0.155597856660485  0.720992520404188  0.6236207095049694  1.0000
  H   H36       1.0  0.8444014793411584  0.7209923832328613  0.37637934552430613  1.0000
  H   H37       1.0  0.6555979447212297  0.8763777506004331  0.7790100926758613  1.0000
  H   H38       1.0  0.3444021892387994  0.12362147350619072  0.7790101723556477  1.0000
  H   H39       1.0  0.6555980759045357  0.123622105436759  0.22099006145792546  1.0000
  H   H40       1.0  0.3444013127329768  0.8763785398796956  0.22098991584876165  1.0000
  H   H41       1.0  0.8763796858207089  0.7790069058246799  0.6555982595466218  1.0000
  H   H42       1.0  0.12362087519651511  0.7790071426608663  0.344402405289202  1.0000
  H   H43       1.0  0.1236197948378646  0.2209929823576005  0.6555982633102531  1.0000
  H   H44       1.0  0.876379793913543  0.2209922114087703  0.3444013141922824  1.0000
  H   H45       1.0  0.7790076898564493  0.6555984585218155  0.8763800579936643  1.0000
  H   H46       1.0  0.7790070616484357  0.34440196228739234  0.12362074945460223  1.0000
  H   H47       1.0  0.22099230637287803  0.6555980849749972  0.123620016607191  1.0000
  H   H48       1.0  0.22099309189055563  0.34440199080972894  0.876379418282717  1.0000
  H   H49       1.0  0.4541537311438759  0.8858838932406528  0.37256859869257414  1.0000
  H   H50       1.0  0.545846316758933  0.11411607957727911  0.3725687238948084  1.0000
  H   H51       1.0  0.545846148676354  0.8858832047820897  0.6274320341566196  1.0000
  H   H52       1.0  0.45415332601867686  0.11411606465186712  0.6274321399329423  1.0000
  H   H53       1.0  0.372566482143327  0.4541568771711225  0.885882287526421  1.0000
  H   H54       1.0  0.3725670044365402  0.545843121973931  0.1141171794756417  1.0000
  H   H55       1.0  0.6274330472738827  0.5458435693190465  0.8858829279732419  1.0000
  H   H56       1.0  0.6274329887435711  0.4541569281300823  0.11411722019347081  1.0000
  H   H57       1.0  0.885882661214204  0.37256750856884924  0.4541559243838195  1.0000
  H   H58       1.0  0.11411747808723051  0.37256706280081897  0.54584423492404  1.0000
  H   H59       1.0  0.8858826065037347  0.6274328582016154  0.5458442785374871  1.0000
  H   H60       1.0  0.1141174039631494  0.6274330670226433  0.45415580449282805  1.0000
  H   H61       1.0  0.3858837019721619  0.9541539084608887  0.872568036516782  1.0000
  H   H62       1.0  0.6141164517968677  0.0458465420106151  0.8725681966147081  1.0000
  H   H63       1.0  0.3858838526618912  0.0458460839507282  0.1274314333065902  1.0000
  H   H64       1.0  0.6141161433372703  0.9541539621718796  0.1274313215614384  1.0000
  H   H65       1.0  0.954156355486795  0.8725670428662653  0.3858828312495248  1.0000
  H   H66       1.0  0.0458435310647403  0.8725672383742732  0.6141165512464186  1.0000
  H   H67       1.0  0.0458436952350638  0.12743292597026104  0.38588284653677374  1.0000
  H   H68       1.0  0.9541565679816558  0.12743328938321946  0.6141173861361224  1.0000
  H   H69       1.0  0.8725666175112824  0.3858829048112041  0.9541560034221208  1.0000
  H   H70       1.0  0.8725670908363699  0.614116841521053  0.045844196678224605  1.0000
  H   H71       1.0  0.12743288788824714  0.3858826018279942  0.045844151900546116  1.0000
  H   H72       1.0  0.12743229919086474  0.6141168940919854  0.9541558903373331  1.0000
  H   H73       1.0  0.3553410814027913  0.8545912144870512  0.41520920814250684  1.0000
  H   H74       1.0  0.6446589755284368  0.1454087455798359  0.41520934491354217  1.0000
  H   H75       1.0  0.6446594414068231  0.8545904888171875  0.5847914340721945  1.0000
  H   H76       1.0  0.35534065143071564  0.1454087933676504  0.584791509548765  1.0000
  H   H77       1.0  0.41520785560850026  0.3553429431723885  0.8545909477001956  1.0000
  H   H78       1.0  0.4152077074057061  0.6446570344123757  0.14540790116637942  1.0000
  H   H79       1.0  0.5847922943544503  0.6446568855037356  0.8545921767090476  1.0000
  H   H80       1.0  0.5847922923997544  0.3553430063345218  0.14540858959331623  1.0000
  H   H81       1.0  0.8545912005656434  0.4152082608012079  0.3553422516950775  1.0000
  H   H82       1.0  0.14540891718091595  0.4152077696626719  0.6446578948510365  1.0000
  H   H83       1.0  0.8545911883321652  0.5847921217910043  0.6446579445968939  1.0000
  H   H84       1.0  0.1454088436896015  0.5847923443390498  0.3553421511951669  1.0000
  H   H85       1.0  0.35459103770949  0.8553406092704918  0.9152086632229911  1.0000
  H   H86       1.0  0.6454091250879586  0.14465982844996725  0.9152088003771512  1.0000
  H   H87       1.0  0.3545911294206903  0.14465939896350485  0.0847907999707829  1.0000
  H   H88       1.0  0.645408857550045  0.855340659910148  0.08479072442858643  1.0000
  H   H89       1.0  0.8553430520612582  0.915207802073134  0.3545920824408384  1.0000
  H   H90       1.0  0.14465681293539487  0.9152079382616095  0.6454072872933596  1.0000
  H   H91       1.0  0.14465699203525165  0.0847921761205157  0.3545915042548771  1.0000
  H   H92       1.0  0.8553432927364998  0.08479195296775542  0.6454087411798568  1.0000
  H   H93       1.0  0.9152073395908719  0.35459146578831013  0.8553423496283372  1.0000
  H   H94       1.0  0.9152078180204061  0.6454076318127091  0.14465785950586965  1.0000
  H   H95       1.0  0.08479218162647584  0.3545911548165677  0.14465781505938932  1.0000
  H   H96       1.0  0.08479155618932312  0.6454077354926329  0.8553422181448056  1.0000
  H   H97       1.0  0.4290957499685888  0.9057658316207409  0.4797499491897669  1.0000
  H   H98       1.0  0.5709043206282018  0.0942334819751878  0.4797500856512045  1.0000
  H   H99       1.0  0.5709047469720261  0.9057657897141597  0.5202500505397012  1.0000
  H   H100      1.0  0.42909533219981455  0.09423413894182182  0.520250156957694  1.0000
  H   H101      1.0  0.4797481216897666  0.4290976023738721  0.905764824569694  1.0000
  H   H102      1.0  0.4797486271056783  0.5709023425775259  0.0942340379703097  1.0000
  H   H103      1.0  0.5202507847663896  0.570902210999968  0.9057648076400896  1.0000
  H   H104      1.0  0.5202513618647375  0.429097086301148  0.09423469065015412  1.0000
  H   H105      1.0  0.9057652044208028  0.47974915075215563  0.4290967329031332  1.0000
  H   H106      1.0  0.0942348807003341  0.47974870754367777  0.570903394326834  1.0000
  H   H107      1.0  0.9057652091964884  0.5202512059651808  0.5709034742304482  1.0000
  H   H108      1.0  0.09423485545070062  0.5202514323329198  0.4290966408777521  1.0000
  H   H109      1.0  0.4057656654314457  0.9290952698523112  0.9797500256687643  1.0000
  H   H110      1.0  0.5942345110315446  0.0709051485680163  0.9797501740548641  1.0000
  H   H111      1.0  0.40576578076024117  0.0709040853354921  0.0202494483668545  1.0000
  H   H112      1.0  0.5942341925449526  0.9290959928382987  0.020249339909035803  1.0000
  H   H113      1.0  0.9290970886627008  0.9797486896917602  0.4057659616651179  1.0000
  H   H114      1.0  0.07090211653764561  0.9797495056458273  0.5942352702607536  1.0000
  H   H115      1.0  0.07090296626900992  0.0202512731991007  0.40576538716992167  1.0000
  H   H116      1.0  0.9290973511281565  0.020251028057216996  0.5942348775809594  1.0000
  H   H117      1.0  0.9797482409408576  0.4057654567027313  0.9290968342525974  1.0000
  H   H118      1.0  0.9797493567929864  0.5942354897777237  0.0709027613855753  1.0000
  H   H119      1.0  0.0202512544080378  0.40576520041969394  0.0709033151195086  1.0000
  H   H120      1.0  0.0202506704551837  0.5942356040359442  0.9290973315802377  1.0000
  C   C1        1.0  0.3018109736466386  0.10742986909561841  0.38647178864054876  1.0000
  C   C2        1.0  0.6981909587127152  0.892570099564331  0.3864717131382208  1.0000
  C   C3        1.0  0.6981905540238388  0.107429107765789  0.6135290771885948  1.0000
  C   C4        1.0  0.3018095448981556  0.8925707929966153  0.6135282905404225  1.0000
  C   C5        1.0  0.3864695635007395  0.3018140167642898  0.10742845661483363  1.0000
  C   C6        1.0  0.38647080077989676  0.6981859753508317  0.8925710133327769  1.0000
  C   C7        1.0  0.6135304282630473  0.6981866625108069  0.1074290485222349  1.0000
  C   C8        1.0  0.6135293572244154  0.3018144691390959  0.8925710966989088  1.0000
  C   C9        1.0  0.10742867072733732  0.3864702278464236  0.3018126477952165  1.0000
  C   C10       1.0  0.892570834374908  0.3864712244296697  0.6981868801821494  1.0000
  C   C11       1.0  0.10742865530113482  0.6135286510170416  0.6981873902047655  1.0000
  C   C12       1.0  0.8925713621942536  0.6135291389590306  0.30181269698683627  1.0000
  C   C13       1.0  0.6074293657009875  0.8018089955750867  0.8864711723777534  1.0000
  C   C14       1.0  0.39257079101202663  0.19819019639698612  0.8864706127757815  1.0000
  C   C15       1.0  0.6074300636079356  0.19818963047529084  0.11352834438206832  1.0000
  C   C16       1.0  0.39257055661826  0.8018110469756793  0.11352823129475813  1.0000
  C   C17       1.0  0.8018134197036559  0.8864708022940136  0.6074291227329242  1.0000
  C   C18       1.0  0.1981870869909272  0.8864697326813484  0.3925715099407371  1.0000
  C   C19       1.0  0.1981866779267065  0.11352972746337998  0.6074291744563141  1.0000
  C   C20       1.0  0.8018129651472563  0.1135296069840876  0.39257106237761263  1.0000
  C   C21       1.0  0.8864709249943845  0.6074285733642596  0.8018127796949344  1.0000
  C   C22       1.0  0.8864709153958331  0.39257116593784497  0.1981867961817727  1.0000
  C   C23       1.0  0.11352909558457473  0.6074288590264203  0.19818668215303606  1.0000
  C   C24       1.0  0.11352921379361901  0.3925712710944964  0.8018133571392028  1.0000
  C   C25       1.0  0.3610171576487176  0.10708617373214219  0.32416440403737573  1.0000
  C   C26       1.0  0.6389853886887452  0.892914440730941  0.324163061550209  1.0000
  C   C27       1.0  0.6389849973667127  0.10708479653501261  0.6758377162334384  1.0000
  C   C28       1.0  0.36101448757727184  0.8929150855948933  0.6758381963639694  1.0000
  C   C29       1.0  0.32416074337900386  0.361017094049238  0.1070866338731236  1.0000
  C   C30       1.0  0.3241607563156422  0.6389835567421115  0.8929128228736475  1.0000
  C   C31       1.0  0.6758392483125706  0.6389829581570724  0.10708725669983471  1.0000
  C   C32       1.0  0.6758394017610385  0.3610168876455973  0.8929129017222337  1.0000
  C   C33       1.0  0.1070868845845254  0.32416140677630534  0.36101618702011967  1.0000
  C   C34       1.0  0.8929126520151984  0.3241611665485493  0.6389839867748749  1.0000
  C   C35       1.0  0.10708682512563432  0.67583872660191  0.6389844780765871  1.0000
  C   C36       1.0  0.8929131608722474  0.6758385694962215  0.3610162176359424  1.0000
  C   C37       1.0  0.6070856544683992  0.8610152023146327  0.8241625182166743  1.0000
  C   C38       1.0  0.39291511622266745  0.1389846354606732  0.8241626035763546  1.0000
  C   C39       1.0  0.6070863954969499  0.1389827967386097  0.17583637130110222  1.0000
  C   C40       1.0  0.3929142379220636  0.8610172349090632  0.17583624056696584  1.0000
  C   C41       1.0  0.8610164900731406  0.8241607207312569  0.6070873310463798  1.0000
  C   C42       1.0  0.1389834209478451  0.8241609352932073  0.3929126931061831  1.0000
  C   C43       1.0  0.13898298031407563  0.17583918195749246  0.6070873515786844  1.0000
  C   C44       1.0  0.8610166312624868  0.17583903144111457  0.3929128666069418  1.0000
  C   C45       1.0  0.8241608718844446  0.607087399237635  0.8610163030826001  1.0000
  C   C46       1.0  0.8241614767489196  0.392912998740762  0.1389838867625244  1.0000
  C   C47       1.0  0.1758391488672117  0.6070870439270948  0.13898378603689576  1.0000
  C   C48       1.0  0.17583865226790613  0.3929124275174303  0.8610162664562397  1.0000
  C   C49       1.0  0.3709550927253744  0.987063528740819  0.38906375515427544  1.0000
  C   C50       1.0  0.629044958670079  0.0129364391443829  0.3890645554336913  1.0000
  C   C51       1.0  0.6290453631194525  0.9870628031475019  0.6109362202440849  1.0000
  C   C52       1.0  0.37095410808286994  0.0129364712192768  0.6109363386755646  1.0000
  C   C53       1.0  0.38906173661863624  0.3709576065194327  0.9870622745801542  1.0000
  C   C54       1.0  0.3890615682605087  0.6290423842854693  0.012936568747157701  1.0000
  C   C55       1.0  0.6109384413927117  0.6290428097141074  0.9870635138014167  1.0000
  C   C56       1.0  0.610938403496334  0.3709576960751023  0.0129366308707901  1.0000
  C   C57       1.0  0.9870628806775131  0.38906209289461924  0.3709562771542991  1.0000
  C   C58       1.0  0.012937250285901302  0.3890616734062534  0.6290438772169653  1.0000
  C   C59       1.0  0.9870628519211735  0.6109382227165555  0.6290439472028313  1.0000
  C   C60       1.0  0.012937166883887102  0.6109378804054941  0.3709561407641645  1.0000
  C   C61       1.0  0.48706333001655383  0.8709546290616927  0.8890638672697406  1.0000
  C   C62       1.0  0.5129368272452697  0.12904518930607625  0.8890633538624259  1.0000
  C   C63       1.0  0.48706343515644335  0.1290453121908683  0.1109362511586625  1.0000
  C   C64       1.0  0.5129365573499883  0.870955366035382  0.1109361428780176  1.0000
  C   C65       1.0  0.8709577474377711  0.8890616462372521  0.48706341999366753  1.0000
  C   C66       1.0  0.12904213077559493  0.8890624571055029  0.5129359575655883  1.0000
  C   C67       1.0  0.12904232470735624  0.11093829234271618  0.4870634578437888  1.0000
  C   C68       1.0  0.8709573196765917  0.1109381009087116  0.5129367797657238  1.0000
  C   C69       1.0  0.8890611786941351  0.4870631571847995  0.870956334549362  1.0000
  C   C70       1.0  0.8890629751237286  0.5129365808071498  0.12904324187630326  1.0000
  C   C71       1.0  0.11093827555880152  0.48706283766205166  0.12904379049154366  1.0000
  C   C72       1.0  0.11093709322103963  0.5129366665980798  0.8709568754210795  1.0000
  C   C73       1.0  0.4036627080035586  0.9036692149511651  0.4157128228849417  1.0000
  C   C74       1.0  0.5963367218633735  0.0963307449652859  0.4157129641069163  1.0000
  C   C75       1.0  0.5963371628262024  0.9036685138647016  0.5842878046413702  1.0000
  C   C76       1.0  0.40366292990470504  0.09633076847073602  0.5842879050437162  1.0000
  C   C77       1.0  0.41571021250844353  0.4036664617427235  0.9036675673691619  1.0000
  C   C78       1.0  0.41571070551297146  0.5963335155878723  0.09633128160390923  1.0000
  C   C79       1.0  0.5842886935037869  0.5963333522580854  0.9036688107339687  1.0000
  C   C80       1.0  0.5842892839013489  0.4036665398346599  0.0963319554617641  1.0000
  C   C81       1.0  0.9036679583107843  0.41571123231583584  0.4036656533061986  1.0000
  C   C82       1.0  0.0963321591813511  0.41571140761314496  0.5963344930892873  1.0000
  C   C83       1.0  0.9036679361000709  0.584288498290917  0.5963345533831585  1.0000
  C   C84       1.0  0.09633209617627611  0.584288731203017  0.4036655425596224  1.0000
  C   C85       1.0  0.40366965981860403  0.9036628684806374  0.9157122781587079  1.0000
  C   C86       1.0  0.5963311302565728  0.0963369419180609  0.9157124193774778  1.0000
  C   C87       1.0  0.40366914867913556  0.0963371149381231  0.0842871954326938  1.0000
  C   C88       1.0  0.5963308381849685  0.903662944086129  0.08428709503079553  1.0000
  C   C89       1.0  0.9036665775941872  0.9157114008366706  0.4036680871620248  1.0000
  C   C90       1.0  0.09633328714796362  0.9157115761341003  0.5963319095907806  1.0000
  C   C91       1.0  0.09633410406417653  0.0842891898522851  0.4036681260583634  1.0000
  C   C92       1.0  0.9036661809618353  0.084288956941883  0.5963321195269062  1.0000
  C   C93       1.0  0.9157109505625558  0.4036682168495105  0.9036657388254525  1.0000
  C   C94       1.0  0.9157114435685046  0.5963315076679692  0.09633384324603612  1.0000
  C   C95       1.0  0.08428917301743871  0.4036679205826487  0.09633441117439652  1.0000
  C   C96       1.0  0.0842879554492058  0.596331597151952  0.9036662490924103  1.0000
  N   N1        1.0  0.4037099566873721  0.0317209043839384  0.3257781265107411  1.0000
  N   N2        1.0  0.596291335650193  0.9682790824257098  0.3257780067616737  1.0000
  N   N3        1.0  0.5962916092539602  0.031720176427263894  0.6742227619769781  1.0000
  N   N4        1.0  0.4037078753480898  0.9682797061855696  0.6742232285969152  1.0000
  N   N5        1.0  0.32577443542228224  0.4037117711636001  0.0317196898753451  1.0000
  N   N6        1.0  0.3257744858988262  0.5962882516409066  0.9682791400440751  1.0000
  N   N7        1.0  0.6742249131408471  0.5962876764092256  0.0317203251380818  1.0000
  N   N8        1.0  0.6742250609645238  0.403712170209694  0.9682798329419741  1.0000
  N   N9        1.0  0.031720384728558315  0.3257757576165261  0.4037107305913281  1.0000
  N   N10       1.0  0.968279778226048  0.3257754920485851  0.5962894427205827  1.0000
  N   N11       1.0  0.0317196898748762  0.6742244138691476  0.5962892913690043  1.0000
  N   N12       1.0  0.9682796697680588  0.6742242058888195  0.40371077765728813  1.0000
  N   N13       1.0  0.5317203942226242  0.9037086330380931  0.8257774648563158  1.0000
  N   N14       1.0  0.46827974963945  0.0962912042544417  0.8257775789601638  1.0000
  N   N15       1.0  0.5317211564904272  0.09629065846374371  0.17422140869454955  1.0000
  N   N16       1.0  0.4682788494155546  0.9037100008380248  0.17422128114984056  1.0000
  N   N17       1.0  0.9037111430185052  0.8257744322053924  0.5317203975477229  1.0000
  N   N18       1.0  0.09628814001550272  0.8257759001596482  0.4682796261216283  1.0000
  N   N19       1.0  0.0962883114112074  0.17422486584972316  0.5317204095178811  1.0000
  N   N20       1.0  0.9037113009813994  0.17422467120847782  0.4682798091509001  1.0000
  N   N21       1.0  0.8257752334375897  0.5317202526191593  0.9037114934973476  1.0000
  N   N22       1.0  0.825775791164169  0.46827951737198253  0.09628869668988932  1.0000
  N   N23       1.0  0.1742248254121392  0.5317199108922284  0.09628861817842702  1.0000
  N   N24       1.0  0.17422367258380694  0.46827956136870336  0.9037114339726315  1.0000
  N   N25       1.0  0.30695003595206316  0.030861062221184492  0.4272729282471133  1.0000
  N   N26       1.0  0.6930500235335018  0.9691388942381706  0.42727345590925137  1.0000
  N   N27       1.0  0.6930502760819905  0.0308603156911715  0.5727273333284872  1.0000
  N   N28       1.0  0.30694981420099043  0.9691395972723099  0.5727271520227362  1.0000
  N   N29       1.0  0.42727204071959335  0.30695431146496327  0.0308592387920754  1.0000
  N   N30       1.0  0.42727204246746453  0.6930456600198057  0.9691396126304073  1.0000
  N   N31       1.0  0.5727279348321871  0.6930457635359344  0.030860450762979507  1.0000
  N   N32       1.0  0.5727281317489387  0.3069547615734223  0.9691396858140565  1.0000
  N   N33       1.0  0.030859870310287404  0.427272737763161  0.30695228619657666  1.0000
  N   N34       1.0  0.9691402413376267  0.4272724428259664  0.6930478567387865  1.0000
  N   N35       1.0  0.030859874421189207  0.5727274341574285  0.6930477355815159  1.0000
  N   N36       1.0  0.9691401636991517  0.5727278818474633  0.30695173665196773  1.0000
  N   N37       1.0  0.5308605780728188  0.8069499295706848  0.9272729182711644  1.0000
  N   N38       1.0  0.46913958727902383  0.19305050454214978  0.9272730035986356  1.0000
  N   N39       1.0  0.530860642768012  0.1930506167079926  0.0727265822666041  1.0000
  N   N40       1.0  0.4691393416484573  0.8069494457730997  0.0727277382017704  1.0000
  N   N41       1.0  0.8069543214311  0.9272720494283107  0.5308605229654972  1.0000
  N   N42       1.0  0.19304616463792001  0.9272728410314386  0.46913947032734893  1.0000
  N   N43       1.0  0.19304575998732795  0.0727278760547776  0.5308605858110553  1.0000
  N   N44       1.0  0.8069539037120422  0.0727277300793077  0.4691402904035941  1.0000
  N   N45       1.0  0.9272715500026366  0.5308597628061449  0.8069524480928578  1.0000
  N   N46       1.0  0.9272727549522062  0.4691399558658205  0.19304713642791435  1.0000
  N   N47       1.0  0.07272788211112412  0.5308594434641236  0.19304766384037467  1.0000
  N   N48       1.0  0.0727273355316669  0.46914008011608405  0.8069523668078207  1.0000
