data_image0
_chemical_formula_structural       Fe3H42C66N36
_chemical_formula_sum              "Fe3 H42 C66 N36"
_cell_length_a       8.730831975965474
_cell_length_b       16.369235987567578
_cell_length_c       16.36895185657492
_cell_angle_alpha    116.90917760250133
_cell_angle_beta     100.25426272625974
_cell_angle_gamma    100.23875781979447

_space_group_name_H-M_alt    "P 1"
_space_group_IT_number       1

loop_
  _space_group_symop_operation_xyz
  'x, y, z'

loop_
  _atom_site_type_symbol
  _atom_site_label
  _atom_site_symmetry_multiplicity
  _atom_site_fract_x
  _atom_site_fract_y
  _atom_site_fract_z
  _atom_site_occupancy
  Fe  Fe1       1.0  0.5000015018003267  0.500000208180225  1.7295992888276833e-07  1.0000
  Fe  Fe2       1.0  0.4999996082164202  4.281414191999881e-07  0.5000007202405569  1.0000
  Fe  Fe3       1.0  0.9999980663474518  0.4999992025248546  0.49999934311571065  1.0000
  H   H1        1.0  0.4785762266754079  0.4035564017520273  0.12588932483111387  1.0000
  H   H2        1.0  0.3526246324556084  0.8739967219734976  0.2775750602450342  1.0000
  H   H3        1.0  0.07502259820599026  0.7223122960940032  0.5963634604359597  1.0000
  H   H4        1.0  0.5214238117021495  0.5964433526493735  0.8741102892423737  1.0000
  H   H5        1.0  0.6473742370133806  0.12600303250391678  0.7224268858693533  1.0000
  H   H6        1.0  0.9249751122181564  0.27768745822825025  0.4036359312527579  1.0000
  H   H7        1.0  0.6261761752717591  0.29412055178492114  0.15211831514761087  1.0000
  H   H8        1.0  0.4741300259643212  0.8478150140101236  0.14199199966791545  1.0000
  H   H9        1.0  0.33208869483583214  0.8579926763644253  0.7058038549563719  1.0000
  H   H10       1.0  0.3738243101336496  0.7058777689673192  0.8478806932265852  1.0000
  H   H11       1.0  0.5258681277887762  0.1521833067496559  0.8580086187464742  1.0000
  H   H12       1.0  0.6679090143553523  0.142007077986726  0.29419614754066703  1.0000
  H   H13       1.0  0.8966695831315405  0.3105889194178885  0.9721021806920118  1.0000
  H   H14       1.0  0.9245066123347315  0.028091617169913295  0.338704756901535  1.0000
  H   H15       1.0  0.5859878060749749  0.6615234902361209  0.6897282960655813  1.0000
  H   H16       1.0  0.10333394471020085  0.6894108351600322  0.02789898857527344  1.0000
  H   H17       1.0  0.07548939853143115  0.9719117212554803  0.661296093439226  1.0000
  H   H18       1.0  0.4140080209576809  0.3384748304156133  0.31027148915570985  1.0000
  H   H19       1.0  0.019658378209392445  0.3722131141526077  0.5831069601945558  1.0000
  H   H20       1.0  0.4367203319509941  0.41692367910835765  0.7891894213224544  1.0000
  H   H21       1.0  0.6472714427048276  0.21089259528038434  0.627744638584623  1.0000
  H   H22       1.0  0.9803413029267036  0.6277859233755406  0.41689168462477955  1.0000
  H   H23       1.0  0.5632839153055329  0.5830775091005048  0.2108112432198721  1.0000
  H   H24       1.0  0.35272850588634  0.7891093096434503  0.37225655044232286  1.0000
  H   H25       1.0  0.9510155170058567  0.36277003381803047  0.7204275637499788  1.0000
  H   H26       1.0  0.23070563915418774  0.27954991260655493  0.6423886055698274  1.0000
  H   H27       1.0  0.5881298991768702  0.3576322990265766  0.6370479694659748  1.0000
  H   H28       1.0  0.04898568658136787  0.6372297205940569  0.2795715507075798  1.0000
  H   H29       1.0  0.7692970844182412  0.7204505587472667  0.35761220014259  1.0000
  H   H30       1.0  0.4118693361643436  0.6423681721218342  0.36295067024433064  1.0000
  H   H31       1.0  0.9060938183742523  0.628537327118522  0.6636291408952955  1.0000
  H   H32       1.0  0.2427889043531977  0.336347476896833  0.9649912361154163  1.0000
  H   H33       1.0  0.2774949586252617  0.0350035592002342  0.371297323256627  1.0000
  H   H34       1.0  0.09390397937035284  0.3714602767390927  0.3363698974566061  1.0000
  H   H35       1.0  0.7572138192192241  0.6636529944569816  0.03500956959700829  1.0000
  H   H36       1.0  0.7225062437289934  0.9649961952407504  0.6287024020092457  1.0000
  H   H37       1.0  0.8250984837438157  0.626076295831126  0.8006299971281688  1.0000
  H   H38       1.0  0.024635438229289285  0.19935002780685807  0.8255029080218531  1.0000
  H   H39       1.0  0.19875355126198713  0.17443943026513156  0.3737355316509649  1.0000
  H   H40       1.0  0.1749011961593112  0.37392274172591294  0.19936925849948742  1.0000
  H   H41       1.0  0.9753653170971223  0.8006511602832872  0.1744974229433182  1.0000
  H   H42       1.0  0.8012461298741089  0.8255596072630097  0.6262631131683631  1.0000
  C   C1        1.0  0.5727196986924666  0.3825698870503018  0.09190611980667994  1.0000
  C   C2        1.0  0.48076803171695565  0.9080405979800688  0.2906325605854077  1.0000
  C   C3        1.0  0.19014377161413176  0.7093337007766821  0.6174333808080448  1.0000
  C   C4        1.0  0.4272799799776905  0.617429150535628  0.9080937466292976  1.0000
  C   C5        1.0  0.5192335266457988  0.09195987336306638  0.7093687447429458  1.0000
  C   C6        1.0  0.8098539375770528  0.2906660535744691  0.3825666216889941  1.0000
  C   C7        1.0  0.6550755111088264  0.3220026601804094  0.1056466865820269  1.0000
  C   C8        1.0  0.5494533974806898  0.8943249654580895  0.21637035650503111  1.0000
  C   C9        1.0  0.3330671788437343  0.7836352615589773  0.6779901277750252  1.0000
  C   C10       1.0  0.3449249742965819  0.6779956605718311  0.894352321792169  1.0000
  C   C11       1.0  0.4505439507701324  0.10567407210648126  0.7836305091628117  1.0000
  C   C12       1.0  0.6669325010593994  0.2163637759980546  0.32200912785262387  1.0000
  C   C13       1.0  0.8025174469164753  0.32982709440295094  0.006755901159948398  1.0000
  C   C14       1.0  0.7956928519522892  0.9933547760064484  0.3232120816661847  1.0000
  C   C15       1.0  0.4726238800432155  0.6769286440531628  0.6703843023713032  1.0000
  C   C16       1.0  0.19748491941449225  0.670172660077604  0.9932439352983092  1.0000
  C   C17       1.0  0.20430396318319308  0.006647845643037398  0.6767891322294445  1.0000
  C   C18       1.0  0.5273731109661455  0.3230696766381412  0.32961559404238017  1.0000
  C   C19       1.0  0.7215128269913579  0.39002442763102607  0.9906725855105729  1.0000
  C   C20       1.0  0.7307522297596736  0.0093734132077898  0.3994516438208322  1.0000
  C   C21       1.0  0.3314611997291551  0.6006265126620889  0.6101074888351901  1.0000
  C   C22       1.0  0.27848989781403355  0.6099760436938981  0.009327609393530166  1.0000
  C   C23       1.0  0.26924807730592437  0.9906292085604206  0.6005499036519522  1.0000
  C   C24       1.0  0.6685361522205613  0.3993725248157957  0.389891544407689  1.0000
  C   C25       1.0  0.7491957129759895  0.43103511687215246  0.9315270385938063  1.0000
  C   C26       1.0  0.8176222766375788  0.06850448537875309  0.49959091566071817  1.0000
  C   C27       1.0  0.318098556946417  0.5004647930908277  0.5690610595431522  1.0000
  C   C28       1.0  0.2508066521220087  0.5689646376372933  0.06847340867277293  1.0000
  C   C29       1.0  0.18237883593029391  0.9314974195846588  0.5004103845586129  1.0000
  C   C30       1.0  0.6818991534777297  0.49953496123143276  0.43093833214557237  1.0000
  C   C31       1.0  0.814960281482968  0.4815605328851546  0.8423549743720853  1.0000
  C   C32       1.0  0.9726828496872812  0.1576640291960132  0.6392573561203533  1.0000
  C   C33       1.0  0.3332853974956577  0.36074735440939765  0.518352884576778  1.0000
  C   C34       1.0  0.18504172514060713  0.5184385047799225  0.15764511444866255  1.0000
  C   C35       1.0  0.027318262880591228  0.8423378757673988  0.36074394409897786  1.0000
  C   C36       1.0  0.6667142848734073  0.6392516830898458  0.4816451494342288  1.0000
  C   C37       1.0  0.8776519457731029  0.4923105075653993  0.7703887293617554  1.0000
  C   C38       1.0  0.10742920573827064  0.2296058377389798  0.7220039967532299  1.0000
  C   C39       1.0  0.38516410711440596  0.27799258378424696  0.5075037465648078  1.0000
  C   C40       1.0  0.1223488993396984  0.5076885300023192  0.22961002664995783  1.0000
  C   C41       1.0  0.8925727135648458  0.7703953503907428  0.27799644540432666  1.0000
  C   C42       1.0  0.6148359337290826  0.7220071705593722  0.4924946458920371  1.0000
  C   C43       1.0  0.9779247116045726  0.427781272399784  0.6333608907088717  1.0000
  C   C44       1.0  0.3448314491756008  0.3666186008695432  0.7944866337103063  1.0000
  C   C45       1.0  0.5500218010014564  0.2055532601857094  0.5721178249442074  1.0000
  C   C46       1.0  0.022076134741190793  0.5722177651390367  0.36663725449452017  1.0000
  C   C47       1.0  0.6551724396064956  0.6333818704949579  0.20551367238618198  1.0000
  C   C48       1.0  0.4499777903482498  0.794447927864866  0.4278823948285789  1.0000
  C   C49       1.0  0.9393339288075072  0.42251299219732624  0.7096061084528669  1.0000
  C   C50       1.0  0.2299166220128939  0.29032770500616306  0.7129457797361382  1.0000
  C   C51       1.0  0.5167181279560609  0.28705459774805314  0.577310616184384  1.0000
  C   C52       1.0  0.06066807781606804  0.5774860454677508  0.290393980367881  1.0000
  C   C53       1.0  0.7700864600339585  0.709673483192027  0.28705538442212475  1.0000
  C   C54       1.0  0.4832822701288819  0.7129458734688255  0.4226887455266277  1.0000
  C   C55       1.0  0.9129554396395109  0.5703484509805817  0.6779431500081897  1.0000
  C   C56       1.0  0.23531357136487688  0.32201680455067094  0.8924880949325738  1.0000
  C   C57       1.0  0.34247695611578166  0.10751497000164527  0.42949841495329366  1.0000
  C   C58       1.0  0.08704576518068306  0.4296513034026147  0.3220553536410406  1.0000
  C   C59       1.0  0.7646879882308468  0.6779836667635735  0.10751259958746572  1.0000
  C   C60       1.0  0.6575246047129042  0.8924855012837083  0.5705016687584246  1.0000
  C   C61       1.0  0.8684303888721562  0.568747949383642  0.7542265703925677  1.0000
  C   C62       1.0  0.1143960537551152  0.245728770957804  0.8145770623900147  1.0000
  C   C63       1.0  0.299465209790668  0.18538660601630846  0.4310636461334524  1.0000
  C   C64       1.0  0.13157009530028324  0.4312503713974963  0.2457730487899497  1.0000
  C   C65       1.0  0.885606224022425  0.7542731340162803  0.18542373821338737  1.0000
  C   C66       1.0  0.7005359937965567  0.8146131483957789  0.5689354683240991  1.0000
  N   N1        1.0  0.6041054171564256  0.4169207898458183  0.03380679699107247  1.0000
  N   N2        1.0  0.5701585024942022  0.9661785908811423  0.3831237263737035  1.0000
  N   N3        1.0  0.18715042794362094  0.6168755210074152  0.58315479588353  1.0000
  N   N4        1.0  0.39589811191827806  0.5830789647032047  0.9661937614678987  1.0000
  N   N5        1.0  0.4298368787435721  0.0338211633908614  0.6168760537385651  1.0000
  N   N6        1.0  0.8128457600293969  0.3831235164308993  0.41684412616696404  1.0000
  N   N7        1.0  0.770043171760861  0.2949248662033169  0.06356354287434127  1.0000
  N   N8        1.0  0.7065104372574424  0.9365178467825855  0.23145995495093508  1.0000
  N   N9        1.0  0.4750649673183888  0.7686377597753732  0.7052078904983218  1.0000
  N   N10       1.0  0.22995650567633413  0.7050741714115103  0.9364369343699506  1.0000
  N   N11       1.0  0.2934883473570197  0.0634840581016789  0.7685411228836256  1.0000
  N   N12       1.0  0.5249323821654032  0.2313612777603069  0.29479236436120004  1.0000
  N   N13       1.0  0.6622931484818012  0.4927605997855977  0.9332172913204742  1.0000
  N   N14       1.0  0.7290597470366649  0.06689618313669139  0.5596565659372031  1.0000
  N   N15       1.0  0.16945558306883868  0.44046278395319394  0.5072659862126159  1.0000
  N   N16       1.0  0.3377103793599403  0.5072391547923161  0.06678387794681118  1.0000
  N   N17       1.0  0.2709402003215331  0.9331057218160409  0.44034523389806396  1.0000
  N   N18       1.0  0.8305429328575897  0.5595362535642747  0.4927331582226484  1.0000
  N   N19       1.0  0.7051781279095338  0.5267026331472167  0.8771035263585032  1.0000
  N   N20       1.0  0.8281121900902447  0.12298281470313549  0.6496912096604175  1.0000
  N   N21       1.0  0.17838158772337917  0.3503969831882116  0.4731973355549285  1.0000
  N   N22       1.0  0.2948238799470033  0.47329640448896976  0.12289595165392338  1.0000
  N   N23       1.0  0.17189008398840142  0.8770190903576419  0.35031142336794097  1.0000
  N   N24       1.0  0.8216165709615809  0.6496013374559908  0.5268008396261833  1.0000
  N   N25       1.0  0.8457850284294681  0.42096183162615824  0.8744120093482902  1.0000
  N   N26       1.0  0.9713890227767692  0.12561932539149004  0.546632836203578  1.0000
  N   N27       1.0  0.424726078883026  0.45337999666681117  0.5790897311864213  1.0000
  N   N28       1.0  0.1542161739247874  0.5790379228148267  0.12558771591758938  1.0000
  N   N29       1.0  0.028609764303624288  0.8743825794349858  0.45336702001434026  1.0000
  N   N30       1.0  0.5752727955178261  0.5466197576950265  0.4209097716946885  1.0000
  N   N31       1.0  0.9627950028600551  0.4996803048228243  0.6157645710230211  1.0000
  N   N32       1.0  0.3472498434198457  0.3841949581909887  0.883969622940533  1.0000
  N   N33       1.0  0.4629928439960197  0.11603837243629299  0.5002182998736727  1.0000
  N   N34       1.0  0.03720315459194269  0.5003180158502687  0.38423421496640486  1.0000
  N   N35       1.0  0.6527532386270068  0.6158062300072016  0.11603154121772952  1.0000
  N   N36       1.0  0.5370079100974222  0.88396281568275  0.4997826418998128  1.0000
