data_image0
_chemical_formula_structural       Ni2H28C28S4N4O10
_chemical_formula_sum              "Ni2 H28 C28 S4 N4 O10"
_cell_length_a       8.151117126022259
_cell_length_b       10.312374800233442
_cell_length_c       10.682877329691216
_cell_angle_alpha    66.64949361255651
_cell_angle_beta     72.11433570520023
_cell_angle_gamma    86.790946384526

_space_group_name_H-M_alt    "P 1"
_space_group_IT_number       1

loop_
  _space_group_symop_operation_xyz
  'x, y, z'

loop_
  _atom_site_type_symbol
  _atom_site_label
  _atom_site_symmetry_multiplicity
  _atom_site_fract_x
  _atom_site_fract_y
  _atom_site_fract_z
  _atom_site_occupancy
  Ni  Ni1       1.0  0.5075286979434068  0.7112109198303501  0.7824899385780171  1.0000
  Ni  Ni2       1.0  0.49247401109469274  0.28878813235072454  0.2175107100078363  1.0000
  H   H1        1.0  0.23120850428324494  0.5845646522158319  0.8448015418970554  1.0000
  H   H2        1.0  0.76878643831143  0.41543333719624803  0.15519659662726326  1.0000
  H   H3        1.0  0.31464839579933807  0.4788666067627574  0.9644418187761158  1.0000
  H   H4        1.0  0.6853453101904775  0.5211324150927154  0.035559020116672  1.0000
  H   H5        1.0  0.9666309801585625  0.9221612492017074  0.8116958006757425  1.0000
  H   H6        1.0  0.0333714114755566  0.07783459817162001  0.18830987463091725  1.0000
  H   H7        1.0  0.017856690026782515  0.7453650786318775  0.845742137382551  1.0000
  H   H8        1.0  0.98215127139958  0.2546360692995009  0.15426307633205727  1.0000
  H   H9        1.0  0.7613981986425599  0.03937620515426231  0.8817984502461013  1.0000
  H   H10       1.0  0.23859950664366644  0.9606249266258544  0.11820442550796878  1.0000
  H   H11       1.0  0.6214850446737399  0.2267769185159949  0.9555882355459956  1.0000
  H   H12       1.0  0.3785152520507821  0.7732242326429102  0.0444131063611835  1.0000
  H   H13       1.0  0.6098636465115348  0.0013423210734373001  0.3773556947719499  1.0000
  H   H14       1.0  0.3901302264237714  0.9986588123204359  0.622645245078402  1.0000
  H   H15       1.0  0.7547452940799246  0.8050698373783192  0.32336608336775907  1.0000
  H   H16       1.0  0.2452499093303615  0.19493233420131872  0.6766379059704163  1.0000
  H   H17       1.0  0.34092472342676666  0.9027310090798012  0.38457890719799787  1.0000
  H   H18       1.0  0.6590699147243056  0.0972786250133595  0.6154149046176584  1.0000
  H   H19       1.0  0.15738884258011152  0.9337618859013549  0.5034848232014111  1.0000
  H   H20       1.0  0.842610237590243  0.06623929988651162  0.49651116598893447  1.0000
  H   H21       1.0  0.9776797489886703  0.5812889618523158  0.3254222152608362  1.0000
  H   H22       1.0  0.0223190259569321  0.4187090259460078  0.6745778591671935  1.0000
  H   H23       1.0  0.13220043450008487  0.4040733043038784  0.25006477052741627  1.0000
  H   H24       1.0  0.867798328266282  0.5959246766762335  0.7499362453837364  1.0000
  H   H25       1.0  0.5821602220861308  0.5069648750712474  0.30811211947465716  1.0000
  H   H26       1.0  0.417837096284444  0.49303099490838787  0.6918881501776892  1.0000
  H   H27       1.0  0.44543995362944594  0.6917251740137687  0.38695212335223056  1.0000
  H   H28       1.0  0.5545628041255665  0.3082739054401458  0.6130447593011398  1.0000
  C   C1        1.0  0.7620042731582045  0.7793070637123166  0.8377520928374264  1.0000
  C   C2        1.0  0.23799694276719655  0.22068985019544132  0.16225157542210408  1.0000
  C   C3        1.0  0.9153014668548138  0.8114804554335606  0.8759956216118776  1.0000
  C   C4        1.0  0.08469856118263411  0.18851751819042312  0.12400698108363167  1.0000
  C   C5        1.0  0.7735109032361648  0.9038995821081462  0.09597877122158122  1.0000
  C   C6        1.0  0.22649067093866648  0.09610156851283588  0.9040232159868395  1.0000
  C   C7        1.0  0.7311938933614072  0.0246289626581273  0.9933893599763336  1.0000
  C   C8        1.0  0.2688063911838939  0.975372181682566  0.006612923413967949  1.0000
  C   C9        1.0  0.653297138748222  0.1313725533623682  0.03374477765284209  1.0000
  C   C10       1.0  0.3467005665380043  0.8686285784177487  0.9662580981012209  1.0000
  C   C11       1.0  0.6479274381800976  0.006676008982147202  0.2683218126095354  1.0000
  C   C12       1.0  0.3520676226431547  0.9933240646955  0.7316801928048304  1.0000
  C   C13       1.0  0.7280589970395184  0.8961829054342728  0.23733272140529485  1.0000
  C   C14       1.0  0.2719373534132714  0.1038171745236696  0.7626689878271903  1.0000
  C   C15       1.0  0.27674069656421096  0.7470081332990761  0.604143752389909  1.0000
  C   C16       1.0  0.7232634282034593  0.25299200479521733  0.39585335530192367  1.0000
  C   C17       1.0  0.2258316009816994  0.8494827721254694  0.4751111755338043  1.0000
  C   C18       1.0  0.774171401101924  0.15051947122694295  0.524886329297473  1.0000
  C   C19       1.0  0.19675568407915733  0.6551666413729222  0.36331101928212195  1.0000
  C   C20       1.0  0.8032459101463586  0.3448335114336274  0.6366829148409889  1.0000
  C   C21       1.0  0.11250549210814141  0.571220337862748  0.32198827485105835  1.0000
  C   C22       1.0  0.8874946742085753  0.42877872221237834  0.6780101416491957  1.0000
  C   C23       1.0  0.2007176266042947  0.47001168457759956  0.2785166240464747  1.0000
  C   C24       1.0  0.7992822344876628  0.529984177507977  0.7214858776914708  1.0000
  C   C25       1.0  0.44810629210920166  0.5269735971552407  0.31288974691325655  1.0000
  C   C26       1.0  0.5518936829035681  0.47302333774506167  0.6871104515956715  1.0000
  C   C27       1.0  0.37003462320774355  0.6311244517723438  0.35758644036049947  1.0000
  C   C28       1.0  0.6299655309297448  0.3688746014845706  0.6424129176228773  1.0000
  S   S1        1.0  0.8817746223483242  0.7647249706530488  0.06340438017676313  1.0000
  S   S2        1.0  0.1182283188391651  0.23527723860831884  0.9365978320701199  1.0000
  S   S3        1.0  0.078276031640975  0.7789681408568185  0.4191462841554098  1.0000
  S   S4        1.0  0.9217254364845004  0.2210309323168005  0.580850894679841  1.0000
  N   N1        1.0  0.6117300153914299  0.12455219591884509  0.16849065280192826  1.0000
  N   N2        1.0  0.38826753512853424  0.8754468311410761  0.8315111805114553  1.0000
  N   N3        1.0  0.36658250151957356  0.4461044066591884  0.27361953684783197  1.0000
  N   N4        1.0  0.6334163629883774  0.5538946403174378  0.7263801173174257  1.0000
  O   O1        1.0  0.6416972650483003  0.6851744644038505  0.9330281648693698  1.0000
  O   O2        1.0  0.3583052770443159  0.31482247623882403  0.06697238275891235  1.0000
  O   O3        1.0  0.758967904077629  0.8414896260571182  0.7100544090779906  1.0000
  O   O4        1.0  0.24103247003002076  0.15851257746188452  0.2899474540495319  1.0000
  O   O5        1.0  0.42589261615275825  0.7798134330803492  0.604099383881113  1.0000
  O   O6        1.0  0.5741157522399475  0.220191978837086  0.395900382849909  1.0000
  O   O7        1.0  0.17201592932486423  0.6449880052014266  0.7003986403125564  1.0000
  O   O8        1.0  0.8279976785327958  0.3550164681137744  0.29958718119001987  1.0000
  O   O9        1.0  0.2879049133749946  0.5788274467040607  0.9183204091418485  1.0000
  O   O10       1.0  0.7120926206579765  0.4211705620868075  0.08167619553558572  1.0000
