data_image0
_chemical_formula_structural       Zn2H34C44I2N4O12
_chemical_formula_sum              "Zn2 H34 C44 I2 N4 O12"
_cell_length_a       8.11171943843805
_cell_length_b       10.537786246883659
_cell_length_c       13.38362888740292
_cell_angle_alpha    75.1432370571716
_cell_angle_beta     73.87968207101956
_cell_angle_gamma    83.28236858214143

_space_group_name_H-M_alt    "P 1"
_space_group_IT_number       1

loop_
  _space_group_symop_operation_xyz
  'x, y, z'

loop_
  _atom_site_type_symbol
  _atom_site_label
  _atom_site_symmetry_multiplicity
  _atom_site_fract_x
  _atom_site_fract_y
  _atom_site_fract_z
  _atom_site_occupancy
  Zn  Zn1       1.0  0.7352512639938454  0.2398984108375259  0.7433048193000433  1.0000
  Zn  Zn2       1.0  0.2647480359047519  0.7601018177356664  0.2566963790672148  1.0000
  H   H1        1.0  0.09304576181633449  0.1610781228698954  0.6747731736625442  1.0000
  H   H2        1.0  0.9069537862283639  0.8389181519404051  0.32523024183993954  1.0000
  H   H3        1.0  0.3752839857453267  0.2606277994179251  0.5850074000223062  1.0000
  H   H4        1.0  0.6247156982297853  0.7393665537098003  0.41499337524754054  1.0000
  H   H5        1.0  0.10593009512147938  0.6419594960361152  0.579335139115905  1.0000
  H   H6        1.0  0.8940669267495165  0.35803696669220386  0.42065595872978895  1.0000
  H   H7        1.0  0.8357877117866009  0.5257761747292804  0.6665186949496443  1.0000
  H   H8        1.0  0.1642107663952288  0.4742172618371753  0.3334779752957147  1.0000
  H   H9        1.0  0.37436828488755225  0.22727392830463347  0.7818562206052564  1.0000
  H   H10       1.0  0.6256356635537443  0.7727342625094735  0.21813593816315088  1.0000
  H   H11       1.0  0.1010342963810871  0.31995864772262916  0.880773332795137  1.0000
  H   H12       1.0  0.8989698393555158  0.6800465832891902  0.11922011394465672  1.0000
  H   H13       1.0  0.400014182238742  0.605515926267131  0.9268743124441272  1.0000
  H   H14       1.0  0.5999891404594635  0.3944812759023293  0.0731320300587228  1.0000
  H   H15       1.0  0.6624624270637157  0.4935250672806291  0.8334226964062879  1.0000
  H   H16       1.0  0.33754071545359915  0.5064751278104325  0.16658010884501107  1.0000
  H   H17       1.0  0.09613343645735738  0.6206637355100995  0.996682718714716  1.0000
  H   H18       1.0  0.9038710596410269  0.3793355096585174  0.0033178025281798635  1.0000
  H   H19       1.0  0.3348861482748759  0.23492709210750462  0.3902352387091668  1.0000
  H   H20       1.0  0.6651105242841736  0.7650741306681752  0.6097654587583321  1.0000
  H   H21       1.0  0.4900907536524811  0.10080509377672799  0.0964969682487222  1.0000
  H   H22       1.0  0.5099083613222817  0.8991981056385258  0.9035021923870872  1.0000
  H   H23       1.0  0.8366197608967596  0.0421291245056565  0.2995941366461708  1.0000
  H   H24       1.0  0.16337806609067937  0.9578740529509847  0.700406737641778  1.0000
  H   H25       1.0  0.8768419533142833  0.1251416853106235  0.4177211459119619  1.0000
  H   H26       1.0  0.12315490416860089  0.8748565666230024  0.5822815892869857  1.0000
  H   H27       1.0  0.7623193374770524  0.9835996236496457  0.4908881387444452  1.0000
  H   H28       1.0  0.23768008649459924  0.016398628042104204  0.5091141681904291  1.0000
  H   H29       1.0  0.6547448851128196  0.9399259217039387  0.047939337586960486  1.0000
  H   H30       1.0  0.3452580140013453  0.06007824922956929  0.95205975100901  1.0000
  H   H31       1.0  0.8816734734318458  0.9158110339776756  0.003505077300218276  1.0000
  H   H32       1.0  0.11833191946292489  0.08419407547570049  0.9964964026681076  1.0000
  H   H33       1.0  0.41266372662416007  0.6363902802202831  0.5099029932215018  1.0000
  H   H34       1.0  0.587329309583275  0.36360810455342824  0.49009138725294593  1.0000
  C   C1        1.0  0.10322163854304019  0.2670153680071934  0.6510963563850254  1.0000
  C   C2        1.0  0.8967781039113873  0.7329779801201469  0.348906097808701  1.0000
  C   C3        1.0  0.25904802278181893  0.32389218440567197  0.6000357498679492  1.0000
  C   C4        1.0  0.7409541059804778  0.6761041564014009  0.39996273881016003  1.0000
  C   C5        1.0  0.265550343907435  0.46201390460802116  0.571846121942791  1.0000
  C   C6        1.0  0.7344505743186431  0.537981497558242  0.4281497612309338  1.0000
  C   C7        1.0  0.10948623947704311  0.5349894549416446  0.5980213606229086  1.0000
  C   C8        1.0  0.8905109554604138  0.4650039817457525  0.40197552375448703  1.0000
  C   C9        1.0  0.9579808350780112  0.47056678166182325  0.6473710714604906  1.0000
  C   C10       1.0  0.04202001281137769  0.5294295703059576  0.35262688158960037  1.0000
  C   C11       1.0  0.42357887736276467  0.5300430349717757  0.5191691546316052  1.0000
  C   C12       1.0  0.5764155661620975  0.4699533727995515  0.4808261202784152  1.0000
  C   C13       1.0  0.3736673603976258  0.31032108494775906  0.8165099197873786  1.0000
  C   C14       1.0  0.6263355553168639  0.6896831632641636  0.18348392048823572  1.0000
  C   C15       1.0  0.22183643293652722  0.363207293472172  0.8714163661821461  1.0000
  C   C16       1.0  0.7781641668067679  0.6367930122585007  0.1285793697327193  1.0000
  C   C17       1.0  0.22733151904343163  0.4705236700172719  0.915004308912181  1.0000
  C   C18       1.0  0.7726716305883059  0.5294765581931102  0.08499624705896736  1.0000
  C   C19       1.0  0.3890894616079733  0.5206632591259747  0.8970383231565934  1.0000
  C   C20       1.0  0.6109177882744774  0.47933302599847855  0.10296305779362314  1.0000
  C   C21       1.0  0.5355619827987184  0.4597456549286746  0.8434147909193188  1.0000
  C   C22       1.0  0.46443731472840705  0.5402545626047512  0.15658715720798713  1.0000
  C   C23       1.0  0.07690392693094586  0.5280919355836247  0.9795774304083553  1.0000
  C   C24       1.0  0.9230994099960982  0.47190533282447705  0.020424413534186676  1.0000
  C   C25       1.0  0.5877059380132152  0.13833309308124334  0.3562499985459979  1.0000
  C   C26       1.0  0.41229201541874266  0.8616681185337209  0.6437512345495194  1.0000
  C   C27       1.0  0.42985325491500953  0.18835595118474663  0.3337264764664098  1.0000
  C   C28       1.0  0.5701486091008761  0.8116442661068035  0.666275043396823  1.0000
  C   C29       1.0  0.4005121424525909  0.17357419587551703  0.23999235623123388  1.0000
  C   C30       1.0  0.5994870918522679  0.8264270045787399  0.7600094124922947  1.0000
  C   C31       1.0  0.5210190900122385  0.11304788306092212  0.16723518061559164  1.0000
  C   C32       1.0  0.47897989140358277  0.8869572490766873  0.832765870492807  1.0000
  C   C33       1.0  0.6777929168493202  0.0662414431077423  0.1910320533330747  1.0000
  C   C34       1.0  0.32220741103314054  0.9337627059880871  0.8089689630470718  1.0000
  C   C35       1.0  0.7123269552577512  0.0787043703652941  0.2851218043569119  1.0000
  C   C36       1.0  0.28767080376447757  0.9212997679326379  0.7148803900473624  1.0000
  C   C37       1.0  0.7602011105160427  0.09068786897799441  0.48049392409188135  1.0000
  C   C38       1.0  0.23979311962729347  0.909311377158112  0.5195083102072999  1.0000
  C   C39       1.0  0.7733991286246534  0.1197870955960312  0.5832833430989055  1.0000
  C   C40       1.0  0.2265978529312846  0.880209179456145  0.4167205006676582  1.0000
  C   C41       1.0  0.7778749709925703  0.9851676899054812  0.03188837795067199  1.0000
  C   C42       1.0  0.22213055071819807  0.014835464745992493  0.9681127110651603  1.0000
  C   C43       1.0  0.7862491986168153  0.10964329181067  0.9420748410103529  1.0000
  C   C44       1.0  0.21375490866210353  0.890361806723867  0.05792760285005729  1.0000
  I   I1        1.0  0.1663763343449318  0.24755626469890765  0.20252681205617054  1.0000
  I   I2        1.0  0.8336179519062484  0.7524419653970398  0.7974778509269527  1.0000
  N   N1        1.0  0.9535690225742145  0.3385017394191081  0.6738313658274182  1.0000
  N   N2        1.0  0.046429193232682985  0.6614955846716057  0.3261675858430166  1.0000
  N   N3        1.0  0.5291916166976448  0.3559855130116459  0.8032796073824502  1.0000
  N   N4        1.0  0.4708124439593322  0.6440206457221436  0.19671740875382676  1.0000
  O   O1        1.0  0.9027594653601625  0.07246784804762291  0.6156361078511027  1.0000
  O   O2        1.0  0.0972375185672476  0.9275284380443197  0.3843669861553991  1.0000
  O   O3        1.0  0.6543067716342036  0.1954257049529744  0.6286601839370222  1.0000
  O   O4        1.0  0.3456927131882281  0.804571552778164  0.37134305216168434  1.0000
  O   O5        1.0  0.8457387840844746  0.21265965819927868  0.9437917204960585  1.0000
  O   O6        1.0  0.15426667440403458  0.7873444793730398  0.05620918911598955  1.0000
  O   O7        1.0  0.7280122485508046  0.0908864699806102  0.8664338973252728  1.0000
  O   O8        1.0  0.2719892922393541  0.9091186287958025  0.13356897479921054  1.0000
  O   O9        1.0  0.6080211304563647  0.15231612163501038  0.45094462061864254  1.0000
  O   O10       1.0  0.39197579499172974  0.8476811694573245  0.5490567944639865  1.0000
  O   O11       1.0  0.8058558460331541  0.0030236287347590995  0.12801619137140108  1.0000
  O   O12       1.0  0.19414454507156617  0.9969795374402326  0.8719850044125226  1.0000
