data_image0
_chemical_formula_structural       K8H16C12N8O28
_chemical_formula_sum              "K8 H16 C12 N8 O28"
_cell_length_a       5.375809174153301
_cell_length_b       11.915723002070987
_cell_length_c       13.129041026783664
_cell_angle_alpha    89.99897605472451
_cell_angle_beta     90.00062401062202
_cell_angle_gamma    89.99808407706453

_space_group_name_H-M_alt    "P 1"
_space_group_IT_number       1

loop_
  _space_group_symop_operation_xyz
  'x, y, z'

loop_
  _atom_site_type_symbol
  _atom_site_label
  _atom_site_symmetry_multiplicity
  _atom_site_fract_x
  _atom_site_fract_y
  _atom_site_fract_z
  _atom_site_occupancy
  K   K1        1.0  0.5523509548812414  0.8948925924288387  0.7881359395320402  1.0000
  K   K2        1.0  0.9476531091787664  0.10514327223088321  0.28814092830501886  1.0000
  K   K3        1.0  0.4476493366180279  0.39488873395333707  0.711847217966273  1.0000
  K   K4        1.0  0.05236130199807581  0.6051255051053486  0.21186394370162984  1.0000
  K   K5        1.0  0.9480000870090848  0.13574077484720698  0.7858241944335873  1.0000
  K   K6        1.0  0.5520262235749273  0.8642583106068497  0.2858354279972275  1.0000
  K   K7        1.0  0.0519921849858349  0.6357564310576577  0.7141949208814963  1.0000
  K   K8        1.0  0.44801481249170655  0.3642475890675598  0.21417613928814916  1.0000
  H   H1        1.0  0.7508926401164828  0.3098475519570414  0.9406282344716173  1.0000
  H   H2        1.0  0.7491016904852403  0.6901475606774028  0.4406351124271878  1.0000
  H   H3        1.0  0.24911039902338672  0.8098383464167396  0.5593631272287567  1.0000
  H   H4        1.0  0.2508913747680594  0.1901562204526215  0.059358508063034776  1.0000
  H   H5        1.0  0.8907225273666127  0.3856317592636102  0.8655757554093169  1.0000
  H   H6        1.0  0.6092897322867615  0.6143672889242495  0.36556771632511686  1.0000
  H   H7        1.0  0.10930677652292792  0.8856261419278082  0.6344140723088002  1.0000
  H   H8        1.0  0.3907124114260228  0.1143653289976498  0.1344122048083136  1.0000
  H   H9        1.0  0.43502102343128973  0.1396499320684441  0.9369044999271097  1.0000
  H   H10       1.0  0.06496000684704481  0.860340759169425  0.43691188929157215  1.0000
  H   H11       1.0  0.5649856625463983  0.6396428572179997  0.5630811797185871  1.0000
  H   H12       1.0  0.9350108100321253  0.3603510957137743  0.0630881748430028  1.0000
  H   H13       1.0  0.38105834532856164  0.267063128813504  0.914484396229973  1.0000
  H   H14       1.0  0.11891076673968122  0.7329365418032623  0.4144894185663261  1.0000
  H   H15       1.0  0.6189367983161774  0.7670459229299309  0.5855061114190434  1.0000
  H   H16       1.0  0.8810697323727582  0.2329356939371792  0.08549896249611066  1.0000
  C   C1        1.0  0.5439417295986787  0.06656239838774519  0.533340581160374  1.0000
  C   C2        1.0  0.956057458920938  0.933446034897912  0.0333461351189897  1.0000
  C   C3        1.0  0.4560606916112634  0.5665470654950439  0.966677914761675  1.0000
  C   C4        1.0  0.043934363862987914  0.43344676812043287  0.46665234142277967  1.0000
  C   C5        1.0  0.4263000964687933  0.1180055483652325  0.6170675052851351  1.0000
  C   C6        1.0  0.07370362291208471  0.8820180771834173  0.11707535547355968  1.0000
  C   C7        1.0  0.5736905818108228  0.6179856291800829  0.8829482090038353  1.0000
  C   C8        1.0  0.926305523158611  0.3819980473262206  0.3829319961226716  1.0000
  C   C9        1.0  0.7610499569163238  0.9910444613772638  0.5342192271304214  1.0000
  C   C10       1.0  0.7389585619959789  0.008962238069713599  0.0342079056756432  1.0000
  C   C11       1.0  0.2389406772485216  0.4910340498786923  0.9657963162467451  1.0000
  C   C12       1.0  0.2610636490971886  0.5089648751575949  0.46577067336726685  1.0000
  N   N1        1.0  0.22965975535704797  0.17270323776258323  0.4700158630052299  1.0000
  N   N2        1.0  0.2703316924702861  0.827298774702669  0.9700247081864999  1.0000
  N   N3        1.0  0.7703298200593666  0.6726979190519485  0.029986549201666397  1.0000
  N   N4        1.0  0.7296766962739768  0.3273040140215642  0.5299837587312125  1.0000
  N   N5        1.0  0.4147128423816611  0.10431558840428316  0.4486521550477035  1.0000
  N   N6        1.0  0.08529834679784902  0.8956810694500275  0.9486533832211066  1.0000
  N   N7        1.0  0.5852830654576167  0.6043099817693474  0.051358032221685286  1.0000
  N   N8        1.0  0.914720451136688  0.39569646683315796  0.5513412152910249  1.0000
  O   O1        1.0  0.2313518710763063  0.1824978291488506  0.5763580792672371  1.0000
  O   O2        1.0  0.26865791591324495  0.8175183151788301  0.0763706097221259  1.0000
  O   O3        1.0  0.7686478224371245  0.6824842627842499  0.9236436889328913  1.0000
  O   O4        1.0  0.7313533762797279  0.317498503122266  0.42363545449233436  1.0000
  O   O5        1.0  0.455493485761295  0.11934775658448156  0.7110294937486046  1.0000
  O   O6        1.0  0.04451340338945191  0.8806866765112314  0.21102884366506197  1.0000
  O   O7        1.0  0.5444802903470604  0.6193213955067591  0.7889801538763732  1.0000
  O   O8        1.0  0.9555089249022117  0.38063888568368026  0.2889647710368806  1.0000
  O   O9        1.0  0.4538974548020606  0.08085871494650829  0.354338165744501  1.0000
  O   O10       1.0  0.0460975310312577  0.9191313542107621  0.8543389725330994  1.0000
  O   O11       1.0  0.5460938218590173  0.5808607631351136  0.1456730767451546  1.0000
  O   O12       1.0  0.9539035757868606  0.4191547917655853  0.6456591407690125  1.0000
  O   O13       1.0  0.848048115116626  0.9677394214137677  0.6223451464120373  1.0000
  O   O14       1.0  0.6519559362988261  0.03227342126426439  0.12233248306075949  1.0000
  O   O15       1.0  0.15194531060065944  0.4677326019946761  0.8776676468362083  1.0000
  O   O16       1.0  0.34804674168616867  0.5322559839890245  0.3776404676690888  1.0000
  O   O17       1.0  0.8449841025098055  0.954880416531175  0.4493796002746251  1.0000
  O   O18       1.0  0.6550142430758968  0.04512001466508759  0.949364840667208  1.0000
  O   O19       1.0  0.1549921317511007  0.45487927690855656  0.0506413924813955  1.0000
  O   O20       1.0  0.3449758635864555  0.5451233985646836  0.5506166672686561  1.0000
  O   O21       1.0  0.7498130999750288  0.33070385893918086  0.8669094237169404  1.0000
  O   O22       1.0  0.7502047849044545  0.6693026572195535  0.36690827236051854  1.0000
  O   O23       1.0  0.25023022520305466  0.8306907967033865  0.6330831159637994  1.0000
  O   O24       1.0  0.24978333736183345  0.1692999196092657  0.13308340861210158  1.0000
  O   O25       1.0  0.2968503905063074  0.1969202226901743  0.9312235477120581  1.0000
  O   O26       1.0  0.2031248672525336  0.8030750260844852  0.4312310063742756  1.0000
  O   O27       1.0  0.7031419946350184  0.6969035942964864  0.5687617515647787  1.0000
  O   O28       1.0  0.7968453693191151  0.3030782483139447  0.06876258299723048  1.0000
