data_image0
_chemical_formula_structural       Co2H32C36S6N8O8
_chemical_formula_sum              "Co2 H32 C36 S6 N8 O8"
_cell_length_a       9.15734601849491
_cell_length_b       10.105995567651563
_cell_length_c       11.405688210970787
_cell_angle_alpha    101.837453476358
_cell_angle_beta     92.35543330332798
_cell_angle_gamma    101.15404255941701

_space_group_name_H-M_alt    "P 1"
_space_group_IT_number       1

loop_
  _space_group_symop_operation_xyz
  'x, y, z'

loop_
  _atom_site_type_symbol
  _atom_site_label
  _atom_site_symmetry_multiplicity
  _atom_site_fract_x
  _atom_site_fract_y
  _atom_site_fract_z
  _atom_site_occupancy
  Co  Co1       1.0  0.8623014941696779  0.3783298441136367  0.11634801649772443  1.0000
  Co  Co2       1.0  0.13768967705262009  0.621662791892632  0.8836479075900815  1.0000
  H   H1        1.0  0.5272908600961586  0.025492555563239695  0.1980536175965426  1.0000
  H   H2        1.0  0.47270305021488207  0.9745072989674024  0.8019463579582365  1.0000
  H   H3        1.0  0.46507606356498593  0.16258676174840758  0.28884799926566984  1.0000
  H   H4        1.0  0.5349172295071938  0.837415154399551  0.7111540945128072  1.0000
  H   H5        1.0  0.6211700438046107  0.655542507437879  0.9325413999850841  1.0000
  H   H6        1.0  0.378824491728075  0.34445527780092516  0.06745820969617002  1.0000
  H   H7        1.0  0.5681105160734815  0.47256688936139557  0.8936189538121371  1.0000
  H   H8        1.0  0.4318810474939027  0.5274371103646798  0.10638084567364099  1.0000
  H   H9        1.0  0.953363423488156  0.3413321226890602  0.8659454611660565  1.0000
  H   H10       1.0  0.04663000376997667  0.6586656806732802  0.134050612173894  1.0000
  H   H11       1.0  0.9842268311271951  0.15596210195192128  0.6958956135415877  1.0000
  H   H12       1.0  0.015780558612355854  0.844034635920437  0.304099796198699  1.0000
  H   H13       1.0  0.810688165063084  0.8611237628679905  0.906324035587119  1.0000
  H   H14       1.0  0.18931742774514498  0.13886988184013654  0.09366987006536223  1.0000
  H   H15       1.0  0.7884173625021872  0.0592744093165081  0.06936646109117113  1.0000
  H   H16       1.0  0.21157689957286854  0.9407223810362023  0.9306241880819999  1.0000
  H   H17       1.0  0.896622624000571  0.7772953807610391  0.7152757812714016  1.0000
  H   H18       1.0  0.10338025034299389  0.22270549250673347  0.28472289381826243  1.0000
  H   H19       1.0  0.036763951818400656  0.8929694601487483  0.6652697221491979  1.0000
  H   H20       1.0  0.9632397733076841  0.10703038476037112  0.33472703347402444  1.0000
  H   H21       1.0  0.842138690961761  0.9624784857736157  0.5413601980965553  1.0000
  H   H22       1.0  0.1578624658512027  0.03752445956049399  0.4586388112256616  1.0000
  H   H23       1.0  0.7008054580031171  0.8509258174264501  0.5911589512482183  1.0000
  H   H24       1.0  0.2991932966138577  0.1490760848489856  0.40884330073513553  1.0000
  H   H25       1.0  0.025993746219981514  0.6896710769310488  0.5422066457195457  1.0000
  H   H26       1.0  0.9740037898848828  0.31033493322998845  0.4578033474115274  1.0000
  H   H27       1.0  0.036651786043933036  0.5086897270646489  0.3599829550789978  1.0000
  H   H28       1.0  0.9633514331751841  0.49131731399429407  0.6400247664889493  1.0000
  H   H29       1.0  0.6724716813960326  0.5917990263346623  0.18496350918309903  1.0000
  H   H30       1.0  0.3275412652546165  0.408202847546704  0.8150374017827602  1.0000
  H   H31       1.0  0.6424209780373432  0.7746403030714858  0.36000277801361596  1.0000
  H   H32       1.0  0.35757886489719937  0.2253616002667015  0.639998629435624  1.0000
  C   C1        1.0  0.6733017069300901  0.22284459467866918  0.21205210724624388  1.0000
  C   C2        1.0  0.3267198045195271  0.7771561661891224  0.7879620007164123  1.0000
  C   C3        1.0  0.5656016645422994  0.1216892303306025  0.26654990814391516  1.0000
  C   C4        1.0  0.4343938051650085  0.8783126879428593  0.7334504965663414  1.0000
  C   C5        1.0  0.6467844719558188  0.2089152003587387  0.5102997850909929  1.0000
  C   C6        1.0  0.3532116269645371  0.7910846447856342  0.48970112992081755  1.0000
  C   C7        1.0  0.6427731634788927  0.41856207959337877  0.6515605280073589  1.0000
  C   C8        1.0  0.35722339454597557  0.5814398397428419  0.3484390321687912  1.0000
  C   C9        1.0  0.6482765248959906  0.561658175981414  0.8779228419670916  1.0000
  C   C10       1.0  0.3517223878553253  0.4383395904848512  0.12207864662823203  1.0000
  C   C11       1.0  0.8058015798380039  0.5471700419646125  0.9148580454840669  1.0000
  C   C12       1.0  0.19418460490960138  0.45282466675699595  0.08513987026353224  1.0000
  C   C13       1.0  0.9217873848567635  0.23366167490275563  0.8714353420834442  1.0000
  C   C14       1.0  0.07821040764581971  0.7663361211988189  0.12855998164531715  1.0000
  C   C15       1.0  0.9391301082357657  0.12888434211481586  0.7766852234830567  1.0000
  C   C16       1.0  0.0608665839750628  0.8711134644357796  0.22330831625456682  1.0000
  C   C17       1.0  0.8989926158727286  0.9907001236853857  0.7855393582514554  1.0000
  C   C18       1.0  0.1010136895406575  0.009296609286956  0.21445777219802417  1.0000
  C   C19       1.0  0.8414320145987871  0.9662193625476971  0.8926536156219884  1.0000
  C   C20       1.0  0.1585705428090165  0.033775316068094696  0.10734214621498245  1.0000
  C   C21       1.0  0.8283283523481443  0.07670874655643439  0.9841014701555441  1.0000
  C   C22       1.0  0.1716643623048312  0.9232859685416835  0.01589137838740124  1.0000
  C   C23       1.0  0.9188744258955808  0.8752916292204842  0.6852949622128791  1.0000
  C   C24       1.0  0.0811285946081313  0.12470511974989046  0.31470032096351025  1.0000
  C   C25       1.0  0.8187737004469966  0.8639777962095465  0.5713706337751177  1.0000
  C   C26       1.0  0.1812266095748498  0.1360261736459663  0.42863117118862  1.0000
  C   C27       1.0  0.8324944979000077  0.7495503993861304  0.46737623777105614  1.0000
  C   C28       1.0  0.1675060456654975  0.2504546037280448  0.5326257659499378  1.0000
  C   C29       1.0  0.943982156547072  0.6718694714849606  0.46558238240861993  1.0000
  C   C30       1.0  0.05602650425984729  0.32813757488774786  0.5344211164887795  1.0000
  C   C31       1.0  0.9508062547507306  0.5702140284577908  0.3640382239151166  1.0000
  C   C32       1.0  0.04919958823383298  0.4297951004302759  0.6359638252236978  1.0000
  C   C33       1.0  0.7472945856219582  0.6162441502348128  0.2666600071410059  1.0000
  C   C34       1.0  0.2527118071749399  0.38375774029358917  0.7333407139790041  1.0000
  C   C35       1.0  0.7321385049013855  0.7184978066061162  0.3644804769352988  1.0000
  C   C36       1.0  0.2678646229428239  0.2815040807340309  0.6355227777870314  1.0000
  S   S1        1.0  0.6416852797446139  0.06769647776123117  0.39327352785399233  1.0000
  S   S2        1.0  0.3583064419571116  0.9323033861556737  0.6067255082437627  1.0000
  S   S3        1.0  0.63242820990245  0.3752391633269312  0.4951303268972398  1.0000
  S   S4        1.0  0.36757006565302675  0.6247606839429379  0.5048688990463576  1.0000
  S   S5        1.0  0.6193845740593176  0.5796379708224393  0.7254903418008072  1.0000
  S   S6        1.0  0.380603629189082  0.4203608758338433  0.27450664826660204  1.0000
  N   N1        1.0  0.6621443738409667  0.19759721647212555  0.6227302229366529  1.0000
  N   N2        1.0  0.3378506367618214  0.8024026276094886  0.3772715366092713  1.0000
  N   N3        1.0  0.660991144640775  0.3171919695723843  0.7036501787359484  1.0000
  N   N4        1.0  0.33900736844975643  0.6828089071188969  0.29635012213998385  1.0000
  N   N5        1.0  0.8677214906120979  0.2094829807360199  0.9749752874003053  1.0000
  N   N6        1.0  0.13227653144273427  0.7905158524614817  0.025019358910625972  1.0000
  N   N7        1.0  0.854995758619026  0.542197424786572  0.2652156425121462  1.0000
  N   N8        1.0  0.14501391110474063  0.4578044574183124  0.7347851735307886  1.0000
  O   O1        1.0  0.6206955744009902  0.271934998360443  0.12967196259425864  1.0000
  O   O2        1.0  0.3793276860831866  0.7280689017186645  0.8703331353552034  1.0000
  O   O3        1.0  0.8120918431341978  0.2520115228183784  0.2466861212347738  1.0000
  O   O4        1.0  0.18791517531157348  0.7479830564424643  0.7533299191930143  1.0000
  O   O5        1.0  0.8173290696978341  0.500254148701103  0.00868007636159263  1.0000
  O   O6        1.0  0.18266539907542517  0.4997529260656605  0.9913247635533015  1.0000
  O   O7        1.0  0.91110487362873  0.5847775607917993  0.852268246880307  1.0000
  O   O8        1.0  0.08889136280188129  0.41520370145939006  0.14772308383931693  1.0000
