data_image0
_chemical_formula_structural       Cu2H24C28N2Cl2O8
_chemical_formula_sum              "Cu2 H24 C28 N2 Cl2 O8"
_cell_length_a       7.778134263477794
_cell_length_b       7.915984068258501
_cell_length_c       13.553512318635157
_cell_angle_alpha    91.2130177585835
_cell_angle_beta     103.65126851116305
_cell_angle_gamma    118.11985896425556

_space_group_name_H-M_alt    "P 1"
_space_group_IT_number       1

loop_
  _space_group_symop_operation_xyz
  'x, y, z'

loop_
  _atom_site_type_symbol
  _atom_site_label
  _atom_site_symmetry_multiplicity
  _atom_site_fract_x
  _atom_site_fract_y
  _atom_site_fract_z
  _atom_site_occupancy
  Cu  Cu1       1.0  0.7002217396754418  0.4326248227169173  0.37524921389478283  1.0000
  Cu  Cu2       1.0  0.5492364150080891  0.6972765259769818  0.45305418553140697  1.0000
  H   H1        1.0  0.7350704103619848  0.4895402432994301  0.6419998623264361  1.0000
  H   H2        1.0  0.19931874876722594  0.05431334195451139  0.8837007786603477  1.0000
  H   H3        1.0  0.38305073888074054  0.301317791228847  0.782300419553593  1.0000
  H   H4        1.0  0.3218653141941274  0.20527723289538363  0.5942395572295138  1.0000
  H   H5        1.0  0.06836889897964235  0.86909916703339  0.5104070865863761  1.0000
  H   H6        1.0  0.3199342003673067  0.4647916594691138  0.18410434976075143  1.0000
  H   H7        1.0  0.6887898079800081  0.6982711044055133  0.9409988963518284  1.0000
  H   H8        1.0  0.024781064360674218  0.9704870399144384  0.03839327108704538  1.0000
  H   H9        1.0  0.09034945348771121  0.07604071241142658  0.22565987490148126  1.0000
  H   H10       1.0  0.8246827448302271  0.9032090676434166  0.31235415114905857  1.0000
  H   H11       1.0  0.9810511275027168  0.5924558087029085  0.25171381199445614  1.0000
  H   H12       1.0  0.9945523956246872  0.5036568604063802  0.07932079924525229  1.0000
  H   H13       1.0  0.4159823392367699  0.9830700841237031  0.04427403584026729  1.0000
  H   H14       1.0  0.4260321670205657  0.09683255459286498  0.21617500719001725  1.0000
  H   H15       1.0  0.8395957890840862  0.2887671010738728  0.9169547823201754  1.0000
  H   H16       1.0  0.4664255158387293  0.896188872910976  0.9129461281628365  1.0000
  H   H17       1.0  0.8252534186177202  0.2147532109000281  0.7555458431663523  1.0000
  H   H18       1.0  0.7996948355403931  0.07951035303483421  0.585448209047648  1.0000
  H   H19       1.0  0.3402107484611392  0.535177188031369  0.6027558989327915  1.0000
  H   H20       1.0  0.3435503895008551  0.6479797447386773  0.7748437645571682  1.0000
  H   H21       1.0  0.3151439841975048  0.1572937842479831  0.413009711064653  1.0000
  H   H22       1.0  0.3890193544087523  0.007857852434206301  0.3868226078186295  1.0000
  H   H23       1.0  0.22329805956221802  0.3770919164269415  0.3736850613778557  1.0000
  H   H24       1.0  0.06374757461413341  0.31230087022692027  0.4375373346837107  1.0000
  C   C1        1.0  0.932363262625124  0.44797991385098607  0.5701377176432414  1.0000
  C   C2        1.0  0.8310617202286397  0.5675548214901768  0.5920269806066542  1.0000
  C   C3        1.0  0.9917706615878146  0.7687716986340971  0.6480799304496045  1.0000
  C   C4        1.0  0.03556587710020409  0.8242246595319286  0.7537856205276936  1.0000
  C   C5        1.0  0.17269106897492753  0.0149180617551039  0.8018022577265211  1.0000
  C   C6        1.0  0.2753666398423462  0.1529055357834395  0.7444362323282617  1.0000
  C   C7        1.0  0.24115290662508934  0.0997017004561442  0.6398700101127373  1.0000
  C   C8        1.0  0.09944846640316037  0.9102567350874438  0.5926444279100733  1.0000
  C   C9        1.0  0.35794727358048567  0.7278953028139413  0.25721204459073016  1.0000
  C   C10       1.0  0.44700789092748033  0.5979556310857603  0.23423809666701345  1.0000
  C   C11       1.0  0.6039742138866515  0.7024874378994852  0.17719904748263815  1.0000
  C   C12       1.0  0.5689773252496694  0.6507852919634873  0.07196390357233887  1.0000
  C   C13       1.0  0.7195296672137631  0.744759399691638  0.022386216523351266  1.0000
  C   C14       1.0  0.9077592807543197  0.8973856518211676  0.07751406678130472  1.0000
  C   C15       1.0  0.9445256317732742  0.9558882786103025  0.18167990926507113  1.0000
  C   C16       1.0  0.7942083828486447  0.8581331384091015  0.23060045511810048  1.0000
  C   C17       1.0  0.8605625133950171  0.4577854329357152  0.20346434217977813  1.0000
  C   C18       1.0  0.8658117799972942  0.4065588510725745  0.10621884519328963  1.0000
  C   C19       1.0  0.7067076325201712  0.23311129340412862  0.04441836944438647  1.0000
  C   C20       1.0  0.5455394432170877  0.1200931904702216  0.0857539814630215  1.0000
  C   C21       1.0  0.5490838640955715  0.18193733489868438  0.18289463395648645  1.0000
  C   C22       1.0  0.7152998833283561  0.1795681646796154  0.9431410957498441  1.0000
  C   C23       1.0  0.585230988259184  0.005519619302930314  0.8837544149906973  1.0000
  C   C24       1.0  0.586470911398962  0.9423026958242531  0.7827142692190134  1.0000
  C   C25       1.0  0.7145769208874101  0.0630090352658783  0.7264367284843585  1.0000
  C   C26       1.0  0.7008732292588961  0.989046510890745  0.6297204239536071  1.0000
  C   C27       1.0  0.4457953241510708  0.6841510418997315  0.6399124634656201  1.0000
  C   C28       1.0  0.4500533356830232  0.7487731665403529  0.7367127106931334  1.0000
  N   N1        1.0  0.7047081694022026  0.3472946595711192  0.2416809067014966  1.0000
  N   N2        1.0  0.5681527268922079  0.8028495359948944  0.5867087694900375  1.0000
  Cl  Cl1       1.0  0.9182465112428987  0.6550272240191789  0.8301165169910688  1.0000
  Cl  Cl2       1.0  0.3341820514157305  0.4638541243599974  0.9976215763909408  1.0000
  O   O1        1.0  0.9101748029981779  0.39878263159531707  0.47334825045585655  1.0000
  O   O2        1.0  0.02747252938073077  0.4055034850837984  0.6423951275673758  1.0000
  O   O3        1.0  0.7134265809875301  0.5735177654420056  0.4972949902834286  1.0000
  O   O4        1.0  0.3857840469034458  0.7806101815987676  0.35463688352227507  1.0000
  O   O5        1.0  0.26743677285596595  0.7760679412647634  0.18594590701266608  1.0000
  O   O6        1.0  0.5280543668459714  0.5554407449580339  0.32875686296162593  1.0000
  O   O7        1.0  0.432824986665267  0.1455351273442176  0.4075024680903567  1.0000
  O   O8        1.0  0.156050058372756  0.2774011257102771  0.4135660221891584  1.0000
