data_image0
_chemical_formula_structural       Cu2H20C20N6O6
_chemical_formula_sum              "Cu2 H20 C20 N6 O6"
_cell_length_a       6.968690843315833
_cell_length_b       9.024784562162644
_cell_length_c       11.225580991077877
_cell_angle_alpha    93.00623098862351
_cell_angle_beta     96.12004936290899
_cell_angle_gamma    106.07871570546968

_space_group_name_H-M_alt    "P 1"
_space_group_IT_number       1

loop_
  _space_group_symop_operation_xyz
  'x, y, z'

loop_
  _atom_site_type_symbol
  _atom_site_label
  _atom_site_symmetry_multiplicity
  _atom_site_fract_x
  _atom_site_fract_y
  _atom_site_fract_z
  _atom_site_occupancy
  Cu  Cu1       1.0  0.0028641133680694124  0.20895684167206952  0.048913120534429304  1.0000
  Cu  Cu2       1.0  0.9971325404763293  0.7910455660346615  0.951086946090399  1.0000
  H   H1        1.0  0.5700094647985666  0.6523260730687995  0.6905710257258093  1.0000
  H   H2        1.0  0.42998850734998945  0.3476682301549232  0.3094286627749483  1.0000
  H   H3        1.0  0.36564785433150604  0.6392264876273261  0.7747257105538381  1.0000
  H   H4        1.0  0.6343561603763777  0.36077239835091757  0.22527640830522705  1.0000
  H   H5        1.0  0.5830855616403667  0.5938922152024446  0.8390646550868653  1.0000
  H   H6        1.0  0.4169157203683654  0.40610320031223074  0.16093709075554594  1.0000
  H   H7        1.0  0.3738145127572495  0.9491721948402089  0.7715244236396189  1.0000
  H   H8        1.0  0.6261876460337987  0.05082566243558521  0.22847217182383875  1.0000
  H   H9        1.0  0.991747539578121  0.1145388190743475  0.29792936300482614  1.0000
  H   H10       1.0  0.008245204834203537  0.8854646648114938  0.7020740786542845  1.0000
  H   H11       1.0  0.9689945690398646  0.22961733615350258  0.4988913534803104  1.0000
  H   H12       1.0  0.031006834601257242  0.7703861613686203  0.5011117523703064  1.0000
  H   H13       1.0  0.050830520112683214  0.6690169036647833  0.3421937813528402  1.0000
  H   H14       1.0  0.9491801283223396  0.33098431295946545  0.6578080042514358  1.0000
  H   H15       1.0  0.06507700626814744  0.5343657337508461  0.14993133867324102  1.0000
  H   H16       1.0  0.9349226830273736  0.4656331772284831  0.850069613708641  1.0000
  H   H17       1.0  0.3251370660870593  0.3542971056970786  0.9243629340043854  1.0000
  H   H18       1.0  0.674862473233148  0.6457052994841419  0.07563731721347722  1.0000
  H   H19       1.0  0.22611287937805014  0.4864989145129572  0.9683179011112061  1.0000
  H   H20       1.0  0.7738891182322476  0.5135023521134555  0.03168155153870341  1.0000
  C   C1        1.0  0.5302400114116851  0.6723226763734474  0.7811559477316551  1.0000
  C   C2        1.0  0.46976213897528407  0.32767511726389403  0.21884331649465597  1.0000
  C   C3        1.0  0.6121932507695292  0.8374346905294489  0.8301133479867887  1.0000
  C   C4        1.0  0.38780731250693634  0.16256664099817195  0.1698833436037432  1.0000
  C   C5        1.0  0.5206079968591412  0.9563894775227627  0.8183519402021632  1.0000
  C   C6        1.0  0.47938736422266  0.0436094372448323  0.18164873529015324  1.0000
  C   C7        1.0  0.6548676547601888  0.08523834473160723  0.8856867568528058  1.0000
  C   C8        1.0  0.3451262635837012  0.914760571298743  0.1143138263429933  1.0000
  C   C9        1.0  0.6457695281436884  0.2426535400927677  0.918247761515211  1.0000
  C   C10       1.0  0.3542272924841684  0.7573455006889706  0.08174766874791572  1.0000
  C   C11       1.0  0.002072826562582005  0.23708228495388536  0.3125905251069625  1.0000
  C   C12       1.0  0.9979291766504377  0.7629190240981673  0.6874071483677114  1.0000
  C   C13       1.0  0.9907813382599573  0.3033713811251389  0.424941775254645  1.0000
  C   C14       1.0  0.009225994712174806  0.6966286807825173  0.5750597321832204  1.0000
  C   C15       1.0  0.006726345972722959  0.46234056563191234  0.441004461505628  1.0000
  C   C16       1.0  0.9932842912568705  0.5376605661410707  0.5590008824491266  1.0000
  C   C17       1.0  0.03646822408142477  0.5456996151818033  0.33932041461500273  1.0000
  C   C18       1.0  0.9635395248709957  0.4543014979038774  0.6606856343343284  1.0000
  C   C19       1.0  0.04538757245562404  0.4709930350531692  0.2295454601758351  1.0000
  C   C20       1.0  0.9546144167506087  0.529008167934798  0.770456661236935  1.0000
  N   N1        1.0  0.8185244581068645  0.045634164363455895  0.9337230301455507  1.0000
  N   N2        1.0  0.18147176855181624  0.954367107313985  0.06627605331827623  1.0000
  N   N3        1.0  0.7942786344090181  0.8965737909751824  0.9004455298604059  1.0000
  N   N4        1.0  0.20572278884161221  0.10342985503665152  0.09955134887688642  1.0000
  N   N5        1.0  0.02661689315429077  0.3186899660741959  0.21561914241294744  1.0000
  N   N6        1.0  0.9733840889038278  0.6813124378442695  0.7843812011014393  1.0000
  O   O1        1.0  0.7920054850908896  0.3229238441229684  0.9990164033247737  1.0000
  O   O2        1.0  0.2079927698707921  0.6770751317575617  0.0009817879977305098  1.0000
  O   O3        1.0  0.5096954941900975  0.2941616523073378  0.8702270894105909  1.0000
  O   O4        1.0  0.49029932927902575  0.7058281292747852  0.12976768456205431  1.0000
  O   O5        1.0  0.19985302380184328  0.3740970596676761  0.94706388825783  1.0000
  O   O6        1.0  0.800144221210374  0.6259030959305321  0.05293341475390891  1.0000
