data_image0
_chemical_formula_structural       H28Pb2C34S2N4O12
_chemical_formula_sum              "H28 Pb2 C34 S2 N4 O12"
_cell_length_a       7.010073472983294
_cell_length_b       11.273805716001108
_cell_length_c       11.598051469099007
_cell_angle_alpha    98.81235225085726
_cell_angle_beta     97.40038483560883
_cell_angle_gamma    102.78789575995593

_space_group_name_H-M_alt    "P 1"
_space_group_IT_number       1

loop_
  _space_group_symop_operation_xyz
  'x, y, z'

loop_
  _atom_site_type_symbol
  _atom_site_label
  _atom_site_symmetry_multiplicity
  _atom_site_fract_x
  _atom_site_fract_y
  _atom_site_fract_z
  _atom_site_occupancy
  H   H1        1.0  0.7291268866111053  0.84464711185484  0.35531026735129245  1.0000
  H   H2        1.0  0.27087578010237934  0.1553539524647292  0.6446941025750945  1.0000
  H   H3        1.0  0.16447490431892225  0.6270990654104056  0.3704757538381287  1.0000
  H   H4        1.0  0.8355346402842089  0.37290846474554934  0.6295240668646187  1.0000
  H   H5        1.0  0.42775949410208375  0.8144027556147294  0.37346573174634295  1.0000
  H   H6        1.0  0.572243545524266  0.1856066175688937  0.6265364099159143  1.0000
  H   H7        1.0  0.34436969350542773  0.016402229180712893  0.3626192524859775  1.0000
  H   H8        1.0  0.6556297490166898  0.9836052832204703  0.6373823296437918  1.0000
  H   H9        1.0  0.3916601178573558  0.12498146627596898  0.2183469728815197  1.0000
  H   H10       1.0  0.608342893318273  0.8750205325266621  0.7816592834482632  1.0000
  H   H11       1.0  0.1607246520854346  0.041901041713273905  0.0273614596817282  1.0000
  H   H12       1.0  0.8392751064480989  0.9581000307899785  0.972646123518963  1.0000
  H   H13       1.0  0.28382858911838593  0.0876448609286555  0.838693188447408  1.0000
  H   H14       1.0  0.7161628801116181  0.9123608114015412  0.16131437861278639  1.0000
  H   H15       1.0  0.6253357795425033  0.21273217368221253  0.8522166535129188  1.0000
  H   H16       1.0  0.3746560895140973  0.7872707037608534  0.14778623452713896  1.0000
  H   H17       1.0  0.9077197840975799  0.3080478531333668  0.8698443841399097  1.0000
  H   H18       1.0  0.09226637206163693  0.6919438905282149  0.13015299465970287  1.0000
  H   H19       1.0  0.2566029238851968  0.42358318309251064  0.9025985941102731  1.0000
  H   H20       1.0  0.743384769256963  0.5764011146087213  0.09738749630804479  1.0000
  H   H21       1.0  0.45338825286793144  0.4803019699212215  0.11342136206803838  1.0000
  H   H22       1.0  0.5466073863452152  0.5196915759757417  0.886561526958168  1.0000
  H   H23       1.0  0.27982078088279383  0.4205241743803114  0.27642205443525814  1.0000
  H   H24       1.0  0.7201859529661191  0.5794833049077538  0.7235689076815744  1.0000
  H   H25       1.0  0.4867872039624715  0.3189394749977978  0.4848854275060361  1.0000
  H   H26       1.0  0.5132176750476773  0.6810597163899247  0.5151128186150018  1.0000
  H   H27       1.0  0.3456142699509214  0.22473460827723102  0.377963187881356  1.0000
  H   H28       1.0  0.6543884385164488  0.7752664307345184  0.6220360083906583  1.0000
  Pb  Pb1       1.0  0.8381691086106784  0.2984748970334792  0.3465917018472666  1.0000
  Pb  Pb2       1.0  0.1618339512778135  0.7015270722433657  0.6534085185524104  1.0000
  C   C1        1.0  0.9710427199157012  0.060621232370650105  0.3416216084623684  1.0000
  C   C2        1.0  0.02895818334797433  0.9393825760942819  0.6583778375368254  1.0000
  C   C3        1.0  0.029548132510690436  0.9419355153702611  0.3532643971640751  1.0000
  C   C4        1.0  0.9704559955591423  0.05806923626592922  0.6467371710671301  1.0000
  C   C5        1.0  0.8812856531667422  0.8368589702978754  0.35678058414588776  1.0000
  C   C6        1.0  0.1187148290859881  0.1631439500816541  0.6432264604829356  1.0000
  C   C7        1.0  0.9294533921143187  0.7246764422776905  0.36346021420751373  1.0000
  C   C8        1.0  0.07055070811959749  0.2753283262303796  0.6365448031266112  1.0000
  C   C9        1.0  0.12636121575268788  0.715359841315113  0.36681578433782386  1.0000
  C   C10       1.0  0.8736436360363414  0.2846467581973613  0.6331852453215205  1.0000
  C   C11       1.0  0.27448984289667777  0.8210712756732121  0.3666978651833189  1.0000
  C   C12       1.0  0.7255157117346088  0.1789371843694525  0.6333052127313508  1.0000
  C   C13       1.0  0.2270992648366601  0.9340175433797383  0.36022112020754077  1.0000
  C   C14       1.0  0.772899812346367  0.06598904719228221  0.6397811623460257  1.0000
  C   C15       1.0  0.4389747223733097  0.142477366439806  0.1355040029850088  1.0000
  C   C16       1.0  0.5610293569836601  0.8575274147221777  0.8645036011763095  1.0000
  C   C17       1.0  0.30992151834711024  0.09687483597388542  0.028341140827762998  1.0000
  C   C18       1.0  0.6900728378785034  0.9031271452000951  0.9716661325676198  1.0000
  C   C19       1.0  0.3773633649943947  0.12285590859132609  0.9249895182954262  1.0000
  C   C20       1.0  0.6226310193745378  0.8771497513372141  0.07501397321473748  1.0000
  C   C21       1.0  0.5706679566723382  0.19265555938102355  0.9325700568263713  1.0000
  C   C22       1.0  0.4293253455972915  0.8073473266241109  0.06743381140372406  1.0000
  C   C23       1.0  0.6937887418002263  0.2341894343974077  0.04330942945927771  1.0000
  C   C24       1.0  0.3062049327674714  0.7658143692189158  0.956692876071287  1.0000
  C   C25       1.0  0.90395470177139  0.3036684670749565  0.05642931139009016  1.0000
  C   C26       1.0  0.0960411569496528  0.69632978485496  0.9435706522203375  1.0000
  C   C27       1.0  0.991876624940396  0.33360233603789163  0.9593877212883226  1.0000
  C   C28       1.0  0.00811820008680536  0.6663894168163934  0.040606915894230156  1.0000
  C   C29       1.0  0.1903416471315253  0.3983810746842451  0.9781746351879761  1.0000
  C   C30       1.0  0.8096467422013094  0.6016087833915833  0.021814032979094095  1.0000
  C   C31       1.0  0.2975219205787312  0.4309698121870797  0.09295887110564391  1.0000
  C   C32       1.0  0.7024776529344124  0.5690228375669335  0.9070276589144797  1.0000
  C   C33       1.0  0.2009146722770794  0.3976218978997182  0.18528410897437203  1.0000
  C   C34       1.0  0.7990870100702309  0.6023800290712983  0.8147082330294282  1.0000
  S   S1        1.0  0.7414948625483718  0.5913615593538638  0.3720389376725066  1.0000
  S   S2        1.0  0.2585117871779731  0.4086385792969622  0.6279630373176914  1.0000
  N   N1        1.0  0.6252680328895296  0.20897289665120414  0.1429265581556223  1.0000
  N   N2        1.0  0.3747364393350451  0.7910290938416153  0.8570772292612786  1.0000
  N   N3        1.0  0.009571858209312683  0.3363235967214422  0.16715044606195303  1.0000
  N   N4        1.0  0.9904333864473286  0.6636802121218749  0.832846766852974  1.0000
  O   O1        1.0  0.10385427195433292  0.1553558768748928  0.3330219196279671  1.0000
  O   O2        1.0  0.8961426827839747  0.8446451405424895  0.6669759427110762  1.0000
  O   O3        1.0  0.7888174418899468  0.061218173127912195  0.3380821406618537  1.0000
  O   O4        1.0  0.2111777146036431  0.9387856095246931  0.6619151091286497  1.0000
  O   O5        1.0  0.8059997348998564  0.5539983324598197  0.4839781736359753  1.0000
  O   O6        1.0  0.19401231713442263  0.4460008975202712  0.516024111159517  1.0000
  O   O7        1.0  0.5541772779184058  0.6298991014907145  0.36749474003283916  1.0000
  O   O8        1.0  0.4458268428850474  0.3701019587370098  0.6325080232563991  1.0000
  O   O9        1.0  0.741595917529928  0.49770138835752686  0.2677030569848284  1.0000
  O   O10       1.0  0.25841362676580104  0.5023024461719957  0.7322970965002183  1.0000
  O   O11       1.0  0.4857947346702717  0.2727184614719675  0.4051342095771132  1.0000
  O   O12       1.0  0.5142072570368796  0.7272807254455316  0.5948646629910285  1.0000
