data_image0
_chemical_formula_structural       Cd2H28C34N2O12
_chemical_formula_sum              "Cd2 H28 C34 N2 O12"
_cell_length_a       7.70593065355103
_cell_length_b       8.723309814149966
_cell_length_c       12.159993904077588
_cell_angle_alpha    75.08605801793685
_cell_angle_beta     82.75022339823447
_cell_angle_gamma    92.51983127378108

_space_group_name_H-M_alt    "P 1"
_space_group_IT_number       1

loop_
  _space_group_symop_operation_xyz
  'x, y, z'

loop_
  _atom_site_type_symbol
  _atom_site_label
  _atom_site_symmetry_multiplicity
  _atom_site_fract_x
  _atom_site_fract_y
  _atom_site_fract_z
  _atom_site_occupancy
  Cd  Cd1       1.0  0.23026015163779331  0.3252655572338128  0.9530392822110514  1.0000
  Cd  Cd2       1.0  0.7697459302727269  0.6747329845004941  0.046962148343609976  1.0000
  H   H1        1.0  0.34494914210083755  0.2289120066523935  0.3497068266486564  1.0000
  H   H2        1.0  0.6550529872016925  0.7710890387470712  0.6502887959640092  1.0000
  H   H3        1.0  0.34614882790191365  0.18981824151483553  0.5597816247229304  1.0000
  H   H4        1.0  0.6538468085970379  0.8101843778655463  0.4402200737288524  1.0000
  H   H5        1.0  0.505342291797497  0.13905769099348217  0.7277061628062141  1.0000
  H   H6        1.0  0.4946626550389084  0.8609561301680201  0.2722938577659519  1.0000
  H   H7        1.0  0.8266809201088423  0.10317489444550891  0.7033141781999743  1.0000
  H   H8        1.0  0.17332272987449224  0.896842619313176  0.29668209671206824  1.0000
  H   H9        1.0  0.9883593746528094  0.12638852229159878  0.5091998863582248  1.0000
  H   H10       1.0  0.011641540577585398  0.8736206869033792  0.49079541804631777  1.0000
  H   H11       1.0  0.9911810095871588  0.18187803901222566  0.29673439360954745  1.0000
  H   H12       1.0  0.0088144354398523  0.8181067367777431  0.7032708653384956  1.0000
  H   H13       1.0  0.3895518714562344  0.40368280524020855  0.6929808773172398  1.0000
  H   H14       1.0  0.6104396939376856  0.5963116443578116  0.3070166508541021  1.0000
  H   H15       1.0  0.30516105955441475  0.4717225509392191  0.49729215902681295  1.0000
  H   H16       1.0  0.694825137183905  0.5282595971960402  0.5027093487624795  1.0000
  H   H17       1.0  0.7711888389364675  0.4819902736306217  0.6568942554615661  1.0000
  H   H18       1.0  0.2288082979337318  0.5180263877205462  0.34310929027470377  1.0000
  H   H19       1.0  0.8827602716441447  0.4231665206610201  0.8438809877132059  1.0000
  H   H20       1.0  0.11724083548079281  0.5768540028078419  0.1561208076705398  1.0000
  H   H21       1.0  0.5667490594437581  0.29404066354776853  0.9194620012632271  1.0000
  H   H22       1.0  0.43325194949370177  0.7059716128620366  0.08054023679698472  1.0000
  H   H23       1.0  0.5800580536595491  0.48102159196984223  0.8668792555461593  1.0000
  H   H24       1.0  0.4199390173789653  0.5189891396882587  0.13312520000209097  1.0000
  H   H25       1.0  0.34209132784034324  0.005534841107753183  0.9149524786208402  1.0000
  H   H26       1.0  0.6579174236889358  0.9944738997747892  0.08503893669480081  1.0000
  H   H27       1.0  0.14381807325823817  0.014539718203955889  0.9034700659149948  1.0000
  H   H28       1.0  0.8561919450085257  0.9854656026375253  0.09652093975918057  1.0000
  C   C1        1.0  0.47884667320005303  0.24163221539613025  0.1301799968888844  1.0000
  C   C2        1.0  0.5211609256083563  0.7583854391307481  0.8698175667387815  1.0000
  C   C3        1.0  0.5760303944837945  0.2344118978783314  0.2304405985321054  1.0000
  C   C4        1.0  0.4239691129623182  0.7655850415996281  0.7695616363266424  1.0000
  C   C5        1.0  0.4869018088512931  0.22209472559810453  0.3385246645021737  1.0000
  C   C6        1.0  0.513094997317765  0.7778975216432045  0.6614752229015651  1.0000
  C   C7        1.0  0.5754379995062564  0.192410767102615  0.4363891489196873  1.0000
  C   C8        1.0  0.4245521208445737  0.8075704448846678  0.5636121674269958  1.0000
  C   C9        1.0  0.48734746689792985  0.17948689432252957  0.548343346953736  1.0000
  C   C10       1.0  0.5126492854856863  0.8204993142032746  0.45165911238262174  1.0000
  C   C11       1.0  0.5761975668651829  0.14956093133027784  0.6423791305694451  1.0000
  C   C12       1.0  0.42380320129529286  0.8504326426178462  0.35762186358752496  1.0000
  C   C13       1.0  0.7578240125829866  0.12827719185177947  0.6283895379649919  1.0000
  C   C14       1.0  0.2421741694371704  0.8717184784240216  0.37161300332449093  1.0000
  C   C15       1.0  0.8475191925621317  0.13941472236882643  0.5206099779196052  1.0000
  C   C16       1.0  0.15247495561180813  0.8605737460183319  0.47939153536831464  1.0000
  C   C17       1.0  0.7599112330334351  0.17172512772982165  0.4222033629746207  1.0000
  C   C18       1.0  0.2400841314528463  0.8282577667839346  0.5777947803553615  1.0000
  C   C19       1.0  0.8493183356111302  0.1893247554731872  0.3098159036514332  1.0000
  C   C20       1.0  0.15067970269942785  0.8106591644389383  0.6901867951413792  1.0000
  C   C21       1.0  0.7612836377838335  0.22436369453222943  0.21550481559034299  1.0000
  C   C22       1.0  0.23871448666795916  0.7756285814614045  0.7844957784053718  1.0000
  C   C23       1.0  0.8648172140811924  0.27593431023755244  0.09721970322932799  1.0000
  C   C24       1.0  0.13518886782933492  0.7240642314967616  0.9027817273253333  1.0000
  C   C25       1.0  0.25413539957077097  0.4229549053969492  0.6798717607274938  1.0000
  C   C26       1.0  0.7458600476964464  0.5770324603151452  0.3201298100544888  1.0000
  C   C27       1.0  0.2044881314496223  0.4594511354303777  0.5708642226561054  1.0000
  C   C28       1.0  0.7955020607560145  0.5405359517387467  0.42913701493890943  1.0000
  C   C29       1.0  0.028587137310680102  0.48175019013067527  0.5574232357863877  1.0000
  C   C30       1.0  0.9714083050535224  0.5182385250536967  0.4425756598522455  1.0000
  C   C31       1.0  0.9105955668634635  0.46818375845274557  0.658019003963318  1.0000
  C   C32       1.0  0.08939874911254718  0.5318162422531925  0.3419856760625493  1.0000
  C   C33       1.0  0.9702310121527803  0.43304953828506126  0.764057320775855  1.0000
  C   C34       1.0  0.029765968961577006  0.566955481724868  0.2359447203431131  1.0000
  N   N1        1.0  0.1391998892485233  0.4094112858450599  0.7751122659464187  1.0000
  N   N2        1.0  0.8607995749156673  0.5905847402504063  0.22488599557313907  1.0000
  O   O1        1.0  0.3560753956729955  0.33708854256303766  0.11545200579932668  1.0000
  O   O2        1.0  0.6439269244039778  0.6629225221492518  0.8845519518755793  1.0000
  O   O3        1.0  0.5197544800865189  0.15238669551446543  0.065074917576041  1.0000
  O   O4        1.0  0.48025318301087344  0.8476421230609431  0.9349135288472041  1.0000
  O   O5        1.0  0.8273828266120732  0.4020683510552485  0.0291120912343175  1.0000
  O   O6        1.0  0.1726258907438094  0.5979289532226487  0.9708925965873333  1.0000
  O   O7        1.0  0.9896030087464781  0.1909555400990328  0.07443241539250069  1.0000
  O   O8        1.0  0.010405643897826196  0.8090371294468566  0.9255713381581074  1.0000
  O   O9        1.0  0.2524272899578861  0.08285854113170639  0.8948735420713162  1.0000
  O   O10       1.0  0.7475788287888393  0.9171474978128485  0.10512097928674541  1.0000
  O   O11       1.0  0.5303513992411908  0.37819087807289964  0.8571848454819174  1.0000
  O   O12       1.0  0.46965745201827513  0.6218208755132436  0.1428143345497119  1.0000
