data_image0
_chemical_formula_structural       K2Ba2H12C16N2O16
_chemical_formula_sum              "K2 Ba2 H12 C16 N2 O16"
_cell_length_a       6.739238479064709
_cell_length_b       9.709604252088093
_cell_length_c       10.362007111290476
_cell_angle_alpha    117.2175242369549
_cell_angle_beta     108.03213187844497
_cell_angle_gamma    91.94617920283312

_space_group_name_H-M_alt    "P 1"
_space_group_IT_number       1

loop_
  _space_group_symop_operation_xyz
  'x, y, z'

loop_
  _atom_site_type_symbol
  _atom_site_label
  _atom_site_symmetry_multiplicity
  _atom_site_fract_x
  _atom_site_fract_y
  _atom_site_fract_z
  _atom_site_occupancy
  K   K1        1.0  0.3025564343909508  0.0527720133124916  0.10542263289693922  1.0000
  K   K2        1.0  0.6974454608083746  0.9472263706836654  0.8945783811335273  1.0000
  Ba  Ba1       1.0  0.013522751186840782  0.7635453394388634  0.5271021028602547  1.0000
  Ba  Ba2       1.0  0.9864756912517193  0.23645186015125563  0.4728967443531999  1.0000
  H   H1        1.0  0.4279243608669034  0.7681465765597649  0.11743862105781477  1.0000
  H   H2        1.0  0.1898327344139119  0.35016275506411887  0.11761736569454938  1.0000
  H   H3        1.0  0.5720804117224815  0.23185654721223156  0.8825611452791975  1.0000
  H   H4        1.0  0.8101645639654861  0.6498415501870766  0.8823804420470935  1.0000
  H   H5        1.0  0.41585224257283926  0.0572551600169575  0.6378058146545342  1.0000
  H   H6        1.0  0.7217367204731956  0.580313214927827  0.6377484990013897  1.0000
  H   H7        1.0  0.5841440727270636  0.9427455875116377  0.36219702379546675  1.0000
  H   H8        1.0  0.2782595937129955  0.41968753344718823  0.3622533745237604  1.0000
  H   H9        1.0  0.48968447803913046  0.899036215852206  0.562446859985606  1.0000
  H   H10       1.0  0.5727520881900575  0.6632047155238894  0.5622365180186363  1.0000
  H   H11       1.0  0.5103118361470678  0.1009645325228163  0.43755501353954446  1.0000
  H   H12       1.0  0.42724578556005344  0.3367960343575048  0.4377647042334728  1.0000
  C   C1        1.0  0.25854316912942465  0.6433479424355182  0.8003719042642031  1.0000
  C   C2        1.0  0.042202442161645606  0.1575711294997362  0.800610450753517  1.0000
  C   C3        1.0  0.741462833845766  0.35665399806388354  0.19962760113607905  1.0000
  C   C4        1.0  0.9577988865766471  0.8424308030948635  0.19939486816530638  1.0000
  C   C5        1.0  0.25371010715495146  0.561835869030453  0.8952252615390532  1.0000
  C   C6        1.0  0.1416075283064444  0.33406544490098605  0.8953730570782525  1.0000
  C   C7        1.0  0.746290550976333  0.43816370331681737  0.10477022387901505  1.0000
  C   C8        1.0  0.8583925667049142  0.6659376735054677  0.10462962800274055  1.0000
  C   C9        1.0  0.34364177953305847  0.6458020820630495  0.05807047561443569  1.0000
  C   C10       1.0  0.21450039004422186  0.412964787595456  0.05817093217033425  1.0000
  C   C11       1.0  0.6563554325197031  0.3541963007996641  0.9419286325357419  1.0000
  C   C12       1.0  0.7854990443835063  0.5870359629458902  0.9418306037335852  1.0000
  C   C13       1.0  0.32103631141520583  0.571317403100899  0.14200355895613367  1.0000
  C   C14       1.0  0.6789605736868579  0.4286797932899943  0.8579978693800641  1.0000
  C   C15       1.0  0.40907182267037  0.659155063090509  0.31779186227255  1.0000
  C   C16       1.0  0.5909263780304315  0.3408468732626986  0.6822070397935391  1.0000
  N   N1        1.0  0.15780225925594488  0.408067724703649  0.8156289303538102  1.0000
  N   N2        1.0  0.842196513474434  0.5919306588190167  0.1843704914481775  1.0000
  O   O1        1.0  0.17537978475998267  0.559746988664912  0.6527619175090037  1.0000
  O   O2        1.0  0.9782625962491736  0.09335592678684179  0.6529868963178701  1.0000
  O   O3        1.0  0.8246282567998122  0.4402454832003571  0.34723296721356434  1.0000
  O   O4        1.0  0.021742090013582096  0.9066412745966729  0.347014170427684  1.0000
  O   O5        1.0  0.3409403076032618  0.7899359374363185  0.8749150740254522  1.0000
  O   O6        1.0  0.033979169553276706  0.08572867716335252  0.8752603131812081  1.0000
  O   O7        1.0  0.6590621518296942  0.21005889965423563  0.12507970526694123  1.0000
  O   O8        1.0  0.9660205929388539  0.9142732590033872  0.12473986746154239  1.0000
  O   O9        1.0  0.3308883814456678  0.6081790492708234  0.3890317188680257  1.0000
  O   O10       1.0  0.5586994356835788  0.781306735039166  0.38915558819247303  1.0000
  O   O11       1.0  0.6691136000803012  0.39182525711381533  0.6109679947539064  1.0000
  O   O12       1.0  0.44129999763044475  0.21869401634860708  0.6108449827865954  1.0000
  O   O13       1.0  0.42577253906353724  0.9570927730703077  0.6410917538440799  1.0000
  O   O14       1.0  0.7152591688050408  0.6837485591520718  0.6410163736240123  1.0000
  O   O15       1.0  0.5742237751226539  0.042907975304714796  0.35891011968107017  1.0000
  O   O16       1.0  0.284740263395264  0.3162521930821143  0.3589832324301979  1.0000
