data_image0
_chemical_formula_structural       Zn4P4H40C24N12O20
_chemical_formula_sum              "Zn4 P4 H40 C24 N12 O20"
_cell_length_a       8.417673059009287
_cell_length_b       8.518603739837836
_cell_length_c       16.635040233127977
_cell_angle_alpha    98.02970319614539
_cell_angle_beta     89.9998376997955
_cell_angle_gamma    119.608854526612

_space_group_name_H-M_alt    "P 1"
_space_group_IT_number       1

loop_
  _space_group_symop_operation_xyz
  'x, y, z'

loop_
  _atom_site_type_symbol
  _atom_site_label
  _atom_site_symmetry_multiplicity
  _atom_site_fract_x
  _atom_site_fract_y
  _atom_site_fract_z
  _atom_site_occupancy
  Zn  Zn1       1.0  0.8754450959110683  0.7504019214708106  0.9330006815160561  1.0000
  Zn  Zn2       1.0  0.1250383069525682  0.24958770756381196  0.5669987341424021  1.0000
  Zn  Zn3       1.0  0.12455832221547776  0.24960141024289573  0.06699865212386412  1.0000
  Zn  Zn4       1.0  0.8749562307724759  0.7504073671779067  0.4330017685149628  1.0000
  P   P1        1.0  0.7936361559142496  0.8832506746766241  0.10988988427984482  1.0000
  P   P2        1.0  0.910384031789583  0.11675765161715647  0.3901112096213312  1.0000
  P   P3        1.0  0.2063677579667171  0.11675127259694308  0.890109944151128  1.0000
  P   P4        1.0  0.08961425805356524  0.883240175448087  0.6098889033629578  1.0000
  H   H1        1.0  0.782620215546615  0.7552136864560808  0.15842597057395125  1.0000
  H   H2        1.0  0.027406647411147768  0.24479380240364884  0.3415756863960838  1.0000
  H   H3        1.0  0.2173843657202852  0.24478959559511534  0.8415751628028263  1.0000
  H   H4        1.0  0.9725907785785141  0.7551999210043832  0.6584241112253937  1.0000
  H   H5        1.0  0.4455120349183161  0.1402858874859589  0.6868410573537533  1.0000
  H   H6        1.0  0.3052207135992546  0.8597133987240683  0.813161680472142  1.0000
  H   H7        1.0  0.5544916742164148  0.8597132743540995  0.3131603605727947  1.0000
  H   H8        1.0  0.6947813200833224  0.14028716411077363  0.18683864275165973  1.0000
  H   H9        1.0  0.6711140388499999  0.289451573148078  0.7225746151138993  1.0000
  H   H10       1.0  0.3816598237978254  0.7105461328517533  0.7774289916639037  1.0000
  H   H11       1.0  0.3288879865538874  0.7105489731328233  0.27742630802247703  1.0000
  H   H12       1.0  0.6183445775588936  0.2894544134277339  0.22257193147070356  1.0000
  H   H13       1.0  0.49586788997783776  0.20574843718759436  0.7865685927548116  1.0000
  H   H14       1.0  0.2901178869175565  0.7942481088871316  0.7134333085673179  1.0000
  H   H15       1.0  0.504133451482751  0.7942507412078041  0.21343222526092384  1.0000
  H   H16       1.0  0.7098853347414292  0.20575245394699238  0.2865670146555886  1.0000
  H   H17       1.0  0.3527266500858842  0.3536424208230072  0.7252768674478605  1.0000
  H   H18       1.0  0.9990792295314037  0.646344297090124  0.774720875557094  1.0000
  H   H19       1.0  0.6472701085178371  0.6463499678073958  0.2747216252278123  1.0000
  H   H20       1.0  0.0009241803164598631  0.3536590180696422  0.22527905799540812  1.0000
  H   H21       1.0  0.7270616696963829  0.582705035279389  0.6620770841631087  1.0000
  H   H22       1.0  0.14434158592020907  0.4172859057994671  0.837927332394408  1.0000
  H   H23       1.0  0.2729374565814808  0.41728733679566693  0.3379220084233624  1.0000
  H   H24       1.0  0.8556580469734884  0.5827146073749816  0.16207479056891574  1.0000
  H   H25       1.0  0.5249385029851723  0.593038737998782  0.6476493669596126  1.0000
  H   H26       1.0  0.9318900683514073  0.40696144747264634  0.852354747973813  1.0000
  H   H27       1.0  0.47506148714618485  0.40695773773347804  0.35235004098967704  1.0000
  H   H28       1.0  0.06811231687286318  0.5930445703516725  0.14764659564691132  1.0000
  H   H29       1.0  0.2648207503148541  0.0818787089414386  0.41901147244455234  1.0000
  H   H30       1.0  0.1829544742076691  0.918134516066118  0.08098907602710884  1.0000
  H   H31       1.0  0.7351720871219811  0.9181177171332563  0.580989735247812  1.0000
  H   H32       1.0  0.817048226860841  0.08186738154635259  0.9190125521424906  1.0000
  H   H33       1.0  0.6004618932217055  0.1382855555577933  0.4225681337856316  1.0000
  H   H34       1.0  0.4621825544259294  0.8617177128611857  0.07743181918392852  1.0000
  H   H35       1.0  0.3995314730842948  0.8617095522924955  0.5774311690474578  1.0000
  H   H36       1.0  0.5378187953133491  0.13828148208814636  0.9225683989192321  1.0000
  H   H37       1.0  0.7912176958328131  0.3615852104959598  0.5449724358360727  1.0000
  H   H38       1.0  0.42962425749059446  0.6384082755688424  0.9550313298731086  1.0000
  H   H39       1.0  0.208777558950267  0.6384112983469947  0.455025772291613  1.0000
  H   H40       1.0  0.5703742039840594  0.3615922707141763  0.04496959326593242  1.0000
  C   C1        1.0  0.5931573337402939  0.5563368449024467  0.8032530033985597  1.0000
  C   C2        1.0  0.036825252725179634  0.44366116162284175  0.6967491196448992  1.0000
  C   C3        1.0  0.4068399894300541  0.44366380070487554  0.19674432026588565  1.0000
  C   C4        1.0  0.9631769608675851  0.5563421369837014  0.303251413821073  1.0000
  C   C5        1.0  0.5016251447696406  0.40855988277409955  0.7277705320828718  1.0000
  C   C6        1.0  0.09306435452162266  0.5914367768064748  0.7722315122182553  1.0000
  C   C7        1.0  0.49837246113020944  0.5914365764056483  0.2722294757807831  1.0000
  C   C8        1.0  0.9069364829058558  0.40856376947512973  0.2277694109190166  1.0000
  C   C9        1.0  0.5773084737306675  0.4990873296830499  0.6517375096507438  1.0000
  C   C10       1.0  0.0782113411507551  0.5009092606959127  0.8482656890096296  1.0000
  C   C11       1.0  0.4226933965990797  0.5009105304879425  0.348261403505724  1.0000
  C   C12       1.0  0.9217908641633271  0.49909402135669706  0.15173544436892436  1.0000
  C   C13       1.0  0.5342730691059145  0.3710545209653874  0.5738435875723769  1.0000
  C   C14       1.0  0.1632115250337022  0.6289434455075166  0.9261584850186115  1.0000
  C   C15       1.0  0.46572405759687996  0.6289433557623665  0.4261547256750547  1.0000
  C   C16       1.0  0.8367876121055673  0.37105845210706423  0.07384314315365263  1.0000
  C   C17       1.0  0.3762320643133421  0.17420461090544848  0.4647369080298206  1.0000
  C   C18       1.0  0.20203367679267353  0.82580303202392  0.035264322250931505  1.0000
  C   C19       1.0  0.6237624899690671  0.8257904969441368  0.5352623948023736  1.0000
  C   C20       1.0  0.7979698964080058  0.17420298579968826  0.9647370213689117  1.0000
  C   C21       1.0  0.6491848399222562  0.32241851070158123  0.5325775048941426  1.0000
  C   C22       1.0  0.3267638175679011  0.6775793236522604  0.9674231597416141  1.0000
  C   C23       1.0  0.35080991082771357  0.6775793660275794  0.46742080835507255  1.0000
  C   C24       1.0  0.6732332594627836  0.32241845375188655  0.032578752981308405  1.0000
  N   N1        1.0  0.5341167136154397  0.25343252198832994  0.7312309838149177  1.0000
  N   N2        1.0  0.2806812268179968  0.7465667262085489  0.768771706127261  1.0000
  N   N3        1.0  0.46588649148618094  0.7465680077379346  0.26877053923315236  1.0000
  N   N4        1.0  0.7193208068645801  0.2534338366262859  0.23122861709654077  1.0000
  N   N5        1.0  0.36366919529016434  0.27763721045877787  0.5302154177008094  1.0000
  N   N6        1.0  0.08603326281055955  0.7223704947911997  0.9697869760234286  1.0000
  N   N7        1.0  0.6363265386899711  0.7223578808361707  0.4697844850430856  1.0000
  N   N8        1.0  0.9139658660500345  0.2776313862694478  0.030215252061424308  1.0000
  N   N9        1.0  0.5473329213981017  0.19945409375158357  0.4648471881615422  1.0000
  N   N10       1.0  0.34787962636385555  0.8005451372476882  0.035153774411938316  1.0000
  N   N11       1.0  0.45266418874732034  0.8005437498682964  0.535152324911053  1.0000
  N   N12       1.0  0.6521210063173869  0.1994526236004076  0.9648487382209014  1.0000
  O   O1        1.0  0.7397374325398617  0.7841013180095756  0.021329850972534804  1.0000
  O   O2        1.0  0.9556325343456961  0.21589875643955733  0.4786724184048056  1.0000
  O   O3        1.0  0.2602656009302464  0.21589649249891346  0.9786708619207832  1.0000
  O   O4        1.0  0.04436675528498997  0.7840963182993403  0.5213280842490067  1.0000
  O   O5        1.0  0.9930776933013944  0.03936626296569299  0.12640571813337695  1.0000
  O   O6        1.0  0.9537059863909717  0.960640567952147  0.3735944892873634  1.0000
  O   O7        1.0  0.006926228858261931  0.9606357008618074  0.8735935103850141  1.0000
  O   O8        1.0  0.0462892518347431  0.03935590778293369  0.6264049186654788  1.0000
  O   O9        1.0  0.6492722140274692  0.9344980907216679  0.14032493260778273  1.0000
  O   O10       1.0  0.7147739254328799  0.0655077677400016  0.3596738055047696  1.0000
  O   O11       1.0  0.35073051187708876  0.06550385655260267  0.8596748958240784  1.0000
  O   O12       1.0  0.2852255689440496  0.9344900924324049  0.6403251076534746  1.0000
  O   O13       1.0  0.5549713412320116  0.6817164903449325  0.8152522338306557  1.0000
  O   O14       1.0  0.8732608818631887  0.3182825759634083  0.6847433985791016  1.0000
  O   O15       1.0  0.44502385212517487  0.31828702346697924  0.18474050077708887  1.0000
  O   O16       1.0  0.12674201567288185  0.6817220905286379  0.3152572400075116  1.0000
  O   O17       1.0  0.7102320160807523  0.5422539806264338  0.8472426840702599  1.0000
  O   O18       1.0  0.16799426984649554  0.4577450478418327  0.6527665575025241  1.0000
  O   O19       1.0  0.28977217135865624  0.4577603934977005  0.15275389106287215  1.0000
  O   O20       1.0  0.8320072680816536  0.5422568994331414  0.3472332709302251  1.0000
