data_image0
_chemical_formula_structural       Zn2H18C56N4O12F10
_chemical_formula_sum              "Zn2 H18 C56 N4 O12 F10"
_cell_length_a       12.645527163202818
_cell_length_b       13.339549546757521
_cell_length_c       23.644404212782174
_cell_angle_alpha    86.81160271786625
_cell_angle_beta     77.07926309323985
_cell_angle_gamma    80.74418229844635

_space_group_name_H-M_alt    "P 1"
_space_group_IT_number       1

loop_
  _space_group_symop_operation_xyz
  'x, y, z'

loop_
  _atom_site_type_symbol
  _atom_site_label
  _atom_site_symmetry_multiplicity
  _atom_site_fract_x
  _atom_site_fract_y
  _atom_site_fract_z
  _atom_site_occupancy
  Zn  Zn1       1.0  0.6132201705945022  0.5189292667640261  0.4926737454771911  1.0000
  Zn  Zn2       1.0  0.39253449571185683  0.48742503575701346  0.510214203969241  1.0000
  H   H1        1.0  0.6837971650145533  0.5629532308645011  0.19169413202583035  1.0000
  H   H2        1.0  0.39407325508736335  0.4314500534423972  0.3423505494516945  1.0000
  H   H3        1.0  0.6912289404230801  0.5618738934646219  0.2968725578468608  1.0000
  H   H4        1.0  0.6743363757145034  0.9025475039481562  0.4811435744983328  1.0000
  H   H5        1.0  0.7147465229075535  0.6882624520078339  0.43409105545364224  1.0000
  H   H6        1.0  0.10578507817591286  0.6816106882857087  0.3961874546195077  1.0000
  H   H7        1.0  0.9053546430696428  0.7340743725887365  0.4029597603540509  1.0000
  H   H8        1.0  0.29373729363143036  0.3258744180057462  0.5703501855364195  1.0000
  H   H9        1.0  0.6449393899167291  0.5072411152038754  0.77013214199048  1.0000
  H   H10       1.0  0.2997620393004041  0.4884242742885476  0.8101676987967182  1.0000
  H   H11       1.0  0.5507689414994631  0.8267546047819538  0.49313169896667836  1.0000
  H   H12       1.0  0.7673130178678917  0.19425287784062564  0.4938548852437919  1.0000
  H   H13       1.0  0.40154980706188326  0.26818947051032893  0.4572894175296299  1.0000
  H   H14       1.0  0.8173707943236012  0.4457858023970403  0.5346356115541582  1.0000
  H   H15       1.0  0.6464328261630143  0.507564536664134  0.6637768345387445  1.0000
  H   H16       1.0  0.30192353016814627  0.48995085773476904  0.7035845644949816  1.0000
  H   H17       1.0  0.3855634678357022  0.43187058723367505  0.23752159964080022  1.0000
  H   H18       1.0  0.5228824796896775  0.24623949049972543  0.06282437735990243  1.0000
  C   C1        1.0  0.5727735442704258  0.30944524071246354  0.4963552234123228  1.0000
  C   C2        1.0  0.4712320000516428  0.5947264565039634  0.8794982085784541  1.0000
  C   C3        1.0  0.5702938865844446  0.5030993680384128  0.7551350962492266  1.0000
  C   C4        1.0  0.4776382722812897  0.5004734005660012  0.6136791211292874  1.0000
  C   C5        1.0  0.571138253065662  0.503382608999253  0.6962676873063033  1.0000
  C   C6        1.0  0.47438846281869473  0.4988157507801105  0.6775738573236796  1.0000
  C   C7        1.0  0.3765923737157166  0.4933906617889294  0.7186559121325475  1.0000
  C   C8        1.0  0.37527366328939865  0.49287252120054587  0.7777864878411692  1.0000
  C   C9        1.0  0.47220305403291724  0.498077704062844  0.795465416408341  1.0000
  C   C10       1.0  0.45216409919797945  0.4604477433475226  0.25075140604447205  1.0000
  C   C11       1.0  0.4569969789652789  0.4598507734142601  0.3089046643689315  1.0000
  C   C12       1.0  0.5139332058274988  0.3173721855776108  0.038142373370867205  1.0000
  C   C13       1.0  0.5428870562542869  0.49669341999360467  0.3256371838759264  1.0000
  C   C14       1.0  0.6249220231328606  0.5333723804124304  0.2832796042595902  1.0000
  C   C15       1.0  0.6208994540125375  0.5337172149830138  0.22486651030156682  1.0000
  C   C16       1.0  0.4217736716568652  0.6949847095700294  0.49650086202526483  1.0000
  C   C17       1.0  0.5341707686148496  0.49759571729368457  0.20906566232665824  1.0000
  C   C18       1.0  0.27254291725645874  0.9605096604419359  0.46694463974446887  1.0000
  C   C19       1.0  0.3930143250990953  0.8070856194795439  0.48577461361408336  1.0000
  C   C20       1.0  0.70553831680207  0.1498297805039712  0.48810686719124874  1.0000
  C   C21       1.0  0.7288960961291479  0.04418320803593192  0.48498148350631004  1.0000
  C   C22       1.0  0.6512082071505176  0.9847286287857387  0.48132040956061684  1.0000
  C   C23       1.0  0.5010663359757644  0.31768591253732137  0.9809063308956781  1.0000
  C   C24       1.0  0.5446477258609619  0.03162926707647531  0.47743916457555013  1.0000
  C   C25       1.0  0.520481539702466  0.13979833392520652  0.4762112903010023  1.0000
  C   C26       1.0  0.45854203227964524  0.9723770327319061  0.4756414830987411  1.0000
  C   C27       1.0  0.3539456728796395  0.021658981685988003  0.4667757795764018  1.0000
  C   C28       1.0  0.5437387884176134  0.49884260778434  0.3888120372832589  1.0000
  C   C29       1.0  0.34030458670790864  0.12954876648637995  0.4588592559094523  1.0000
  C   C30       1.0  0.4176723132424273  0.18641145422343905  0.46392630393980033  1.0000
  C   C31       1.0  0.4738089894435262  0.8669195731441023  0.4847618646289291  1.0000
  C   C32       1.0  0.29102282045348465  0.8560283419371973  0.4762212392261845  1.0000
  C   C33       1.0  0.6008388578461917  0.1975749291296935  0.48521517058014046  1.0000
  C   C34       1.0  0.49076875670426284  0.4067227250323384  0.9472201162218996  1.0000
  C   C35       1.0  0.8889060999913811  0.6698074830283645  0.4323394711455962  1.0000
  C   C36       1.0  0.22256742455681433  0.36393670953197693  0.5544456191527658  1.0000
  C   C37       1.0  0.11923267488516132  0.3358018337336048  0.5753039678093473  1.0000
  C   C38       1.0  0.02911699245226632  0.38783431740985463  0.556264001773947  1.0000
  C   C39       1.0  0.041193042460285816  0.4668530257546524  0.5141916284941956  1.0000
  C   C40       1.0  0.5140632879237259  0.5945329349620324  0.1204753599450683  1.0000
  C   C41       1.0  0.15143945602697068  0.48693019658729514  0.49344761348766053  1.0000
  C   C42       1.0  0.9522138197629674  0.5268485920110636  0.4920724376509399  1.0000
  C   C43       1.0  0.9760140007279292  0.6086057137467903  0.45194855648239957  1.0000
  C   C44       1.0  0.08629112082712001  0.6237058177564734  0.429545997706299  1.0000
  C   C45       1.0  0.49233436179287793  0.500154590549407  0.9732555455518156  1.0000
  C   C46       1.0  0.1692776367159112  0.5620191874874436  0.44760915362436293  1.0000
  C   C47       1.0  0.8424170366848927  0.5084838495071226  0.5061975001477991  1.0000
  C   C48       1.0  0.7845843487522544  0.6457270274404795  0.449193161947136  1.0000
  C   C49       1.0  0.5307454261502897  0.4043307850522382  0.12399326808876758  1.0000
  C   C50       1.0  0.5156435240029823  0.40804419192462393  0.06340296610827072  1.0000
  C   C51       1.0  0.5042118597704288  0.5010668244901951  0.03188729643022732  1.0000
  C   C52       1.0  0.505330441268157  0.5935318414527302  0.0588695636851142  1.0000
  C   C53       1.0  0.48248272511985846  0.5931795469504166  0.940753939229083  1.0000
  C   C54       1.0  0.48498754309412123  0.6824132309619346  0.9677943458079529  1.0000
  C   C55       1.0  0.4960448704511863  0.6828566621102043  0.026107061952480096  1.0000
  C   C56       1.0  0.4810554525365518  0.4042557783764734  0.8859630063563845  1.0000
  N   N1        1.0  0.527699762908469  0.49849416454549805  0.1488405776202057  1.0000
  N   N2        1.0  0.47314757051848494  0.4991993894899239  0.856490591727848  1.0000
  N   N3        1.0  0.7629136732342872  0.5646764480736763  0.48469614480748663  1.0000
  N   N4        1.0  0.2380654517273655  0.4382412138116933  0.514696981499924  1.0000
  O   O1        1.0  0.6497152153292236  0.3630086231427825  0.4824698749457284  1.0000
  O   O2        1.0  0.6203409109464034  0.5352901915330719  0.40355575343215844  1.0000
  O   O3        1.0  0.46549740213900037  0.4637765861505728  0.4240604245888094  1.0000
  O   O4        1.0  0.5091319586408716  0.6726893137005806  0.1464469667260317  1.0000
  O   O5        1.0  0.5447428979265041  0.3240128840289317  0.15122074764734353  1.0000
  O   O6        1.0  0.48092048759472306  0.3264126451438473  0.860798033201938  1.0000
  O   O7        1.0  0.46164277409702964  0.672462496145137  0.8497067812172079  1.0000
  O   O8        1.0  0.4733709580660559  0.3414626736975563  0.520739431027117  1.0000
  O   O9        1.0  0.571948839157109  0.5010151665052761  0.5802364880871451  1.0000
  O   O10       1.0  0.3877559112102347  0.5016244121249614  0.5975356141806146  1.0000
  O   O11       1.0  0.5214673093767389  0.6638176931633382  0.4981950025463463  1.0000
  O   O12       1.0  0.3465742386108701  0.6399106223200094  0.502738501986812  1.0000
  F   F1        1.0  0.207484953719792  0.8045637515445847  0.4755355436278138  1.0000
  F   F2        1.0  0.49727107866444  0.7737402707634332  0.04696635240961201  1.0000
  F   F3        1.0  0.24461505930284494  0.17854330760297196  0.4460534423466244  1.0000
  F   F4        1.0  0.1722095583317653  0.0025949475468252012  0.4585077568978378  1.0000
  F   F5        1.0  0.8324118637773453  0.9976551070226667  0.4871165562673952  1.0000
  F   F6        1.0  0.4996465999960478  0.22693209396598496  0.9593111224747165  1.0000
  F   F7        1.0  0.9304858141767127  0.36060669847661597  0.5797946523321472  1.0000
  F   F8        1.0  0.10609062897313487  0.26004687223647954  0.61498798129405  1.0000
  F   F9        1.0  0.2726423056947525  0.5690696531892954  0.4204172175681933  1.0000
  F   F10       1.0  0.477403699161286  0.7730684545769861  0.9406800406312004  1.0000
