data_image0
_chemical_formula_structural       Cu4H12C8N16
_chemical_formula_sum              "Cu4 H12 C8 N16"
_cell_length_a       3.593870232727203
_cell_length_b       10.263863257030065
_cell_length_c       10.429313429449786
_cell_angle_alpha    89.99975726204892
_cell_angle_beta     100.4259362180523
_cell_angle_gamma    90.0001537175594

_space_group_name_H-M_alt    "P 1"
_space_group_IT_number       1

loop_
  _space_group_symop_operation_xyz
  'x, y, z'

loop_
  _atom_site_type_symbol
  _atom_site_label
  _atom_site_symmetry_multiplicity
  _atom_site_fract_x
  _atom_site_fract_y
  _atom_site_fract_z
  _atom_site_occupancy
  Cu  Cu1       1.0  0.14003843937838664  0.38672885089500403  0.39586075636552914  1.0000
  Cu  Cu2       1.0  0.8599468984124456  0.8867257176910285  0.10413771065117318  1.0000
  Cu  Cu3       1.0  0.8599515978022083  0.613273046443922  0.6041359692650516  1.0000
  Cu  Cu4       1.0  0.14004893983990027  0.11327325676962371  0.8958612448198692  1.0000
  H   H1        1.0  0.523648266674705  0.1513768165455716  0.5241939639278355  1.0000
  H   H2        1.0  0.4763498285279296  0.651373736507388  0.9758048773341627  1.0000
  H   H3        1.0  0.47636156864575696  0.8486270293835857  0.4758038249258049  1.0000
  H   H4        1.0  0.5236435425795278  0.34861939219029386  0.024198741397931697  1.0000
  H   H5        1.0  0.5669025431060248  0.08077542624563701  0.6722442911418937  1.0000
  H   H6        1.0  0.4330949603388774  0.580773908155237  0.8277528964250392  1.0000
  H   H7        1.0  0.4330989517682937  0.9192274453848411  0.3277549681007201  1.0000
  H   H8        1.0  0.5669093628186417  0.4192221434320374  0.1722465147202783  1.0000
  H   H9        1.0  0.9628408952827527  0.42057025143840576  0.8622392645172995  1.0000
  H   H10       1.0  0.0371704353069404  0.9205672482874976  0.6377620349009163  1.0000
  H   H11       1.0  0.037152042444518016  0.5794335944834329  0.13775857602693253  1.0000
  H   H12       1.0  0.9628340323250482  0.07942977758779081  0.3622393022982563  1.0000
  C   C1        1.0  0.2587344465563675  0.24413488284784535  0.650332637340206  1.0000
  C   C2        1.0  0.7412644530040352  0.7441276896340696  0.8496687351743546  1.0000
  C   C3        1.0  0.7412616806479944  0.755867014480849  0.34967017023665636  1.0000
  C   C4        1.0  0.2587398701473163  0.2558664133691764  0.15033067597472177  1.0000
  C   C5        1.0  0.05050633433031489  0.3773864960105088  0.7774216189296296  1.0000
  C   C6        1.0  0.9495016776604784  0.8773839138822624  0.7225768061074758  1.0000
  C   C7        1.0  0.9494863866929747  0.6226183242093486  0.22257333252913003  1.0000
  C   C8        1.0  0.0505001783799415  0.12261506057016193  0.2774272682819827  1.0000
  N   N1        1.0  0.16569910915910668  0.3527471148998416  0.5807988264046955  1.0000
  N   N2        1.0  0.8343058461929471  0.8527455535298073  0.9191985787660072  1.0000
  N   N3        1.0  0.8342965846372934  0.647256731024882  0.4191982030012155  1.0000
  N   N4        1.0  0.16570717860459885  0.1472563438062124  0.08080417712027098  1.0000
  N   N5        1.0  0.0322589590654943  0.43990509602279104  0.6646508584473025  1.0000
  N   N6        1.0  0.9677465484696482  0.9399030280214262  0.8353462104892343  1.0000
  N   N7        1.0  0.9677337619701447  0.5601036213651086  0.33534409300393253  1.0000
  N   N8        1.0  0.0322665485697655  0.060100817896611106  0.1646575084211506  1.0000
  N   N9        1.0  0.18841229117165167  0.2539593525853335  0.7740259637978254  1.0000
  N   N10       1.0  0.8115864539321007  0.75395468981705  0.7259724817277514  1.0000
  N   N11       1.0  0.8115808632379995  0.7460366989943878  0.22597476584503798  1.0000
  N   N12       1.0  0.18840655598148004  0.24603356743057253  0.274026321874409  1.0000
  N   N13       1.0  0.3944508047161008  0.1325250221964183  0.601484252523278  1.0000
  N   N14       1.0  0.6055441982741101  0.6325214042250665  0.8985125835203005  1.0000
  N   N15       1.0  0.6055479340860045  0.8674768751391612  0.39851581785953255  1.0000
  N   N16       1.0  0.3944543237931484  0.3674717244883966  0.10148459779583158  1.0000
