data_image0
_chemical_formula_structural       Zn8P8H32C40N8O24F8
_chemical_formula_sum              "Zn8 P8 H32 C40 N8 O24 F8"
_cell_length_a       8.244777168945824
_cell_length_b       9.811990491000124
_cell_length_c       17.802885322613836
_cell_angle_alpha    89.9999848372291
_cell_angle_beta     101.51788849262829
_cell_angle_gamma    90.00001350491182

_space_group_name_H-M_alt    "P 1"
_space_group_IT_number       1

loop_
  _space_group_symop_operation_xyz
  'x, y, z'

loop_
  _atom_site_type_symbol
  _atom_site_label
  _atom_site_symmetry_multiplicity
  _atom_site_fract_x
  _atom_site_fract_y
  _atom_site_fract_z
  _atom_site_occupancy
  Zn  Zn1       1.0  0.2607192078514871  0.424432752995024  0.04600600961369138  1.0000
  Zn  Zn2       1.0  0.23928383879574971  0.9244319899581442  0.9539945088615837  1.0000
  Zn  Zn3       1.0  0.7392821149898124  0.5755680641685005  0.9539941921211009  1.0000
  Zn  Zn4       1.0  0.7607224649187144  0.07556780804428341  0.04600724959186658  1.0000
  Zn  Zn5       1.0  0.7541342087813375  0.5659126345607107  0.5442157439781994  1.0000
  Zn  Zn6       1.0  0.7458654179664634  0.0659142095626706  0.4557852682640231  1.0000
  Zn  Zn7       1.0  0.24586462362319844  0.4340871634415678  0.45578367939734216  1.0000
  Zn  Zn8       1.0  0.2541321916999877  0.9340866076005767  0.544214610508881  1.0000
  P   P1        1.0  0.34107227913091254  0.6201359535176749  0.9185124231472486  1.0000
  P   P2        1.0  0.1589294585304017  0.1201366790498994  0.08148802376596358  1.0000
  P   P3        1.0  0.6589278059853142  0.37986384448456084  0.08148767093364738  1.0000
  P   P4        1.0  0.8410731170224677  0.8798631189523861  0.9185128486742257  1.0000
  P   P5        1.0  0.6478453955423689  0.8655286825243991  0.5789350844383421  1.0000
  P   P6        1.0  0.8521542863835662  0.3655292763656207  0.42106532921575723  1.0000
  P   P7        1.0  0.3521534518490341  0.13447213463894772  0.4210649019885295  1.0000
  P   P8        1.0  0.14784332328287766  0.6344715407976267  0.5789345495571536  1.0000
  H   H1        1.0  0.3314205240757103  0.21307480941973717  0.9454654441429824  1.0000
  H   H2        1.0  0.1685775071888287  0.7130765193890838  0.0545341057336302  1.0000
  H   H3        1.0  0.6685795460538982  0.7869260077438373  0.05453408688646279  1.0000
  H   H4        1.0  0.8314213252159418  0.28692531693559425  0.9454653176417976  1.0000
  H   H5        1.0  0.45008238619872276  0.3625541964941661  0.859098838013459  1.0000
  H   H6        1.0  0.04991445733301699  0.8625548211432844  0.14090114953121705  1.0000
  H   H7        1.0  0.5499151785075043  0.6374466206694935  0.1408993516052988  1.0000
  H   H8        1.0  0.9500844200317431  0.13744497685858195  0.8590999629984779  1.0000
  H   H9        1.0  0.4901050688699868  0.004905091104284099  0.7198600147666879  1.0000
  H   H10       1.0  0.0098941813428013  0.5049036002194145  0.2801407935573934  1.0000
  H   H11       1.0  0.5098975066830036  0.995095726059198  0.2801408576734445  1.0000
  H   H12       1.0  0.9901046660483601  0.4950951786215256  0.7198591928695917  1.0000
  H   H13       1.0  0.378911285153471  0.8704735676939422  0.8147916929026093  1.0000
  H   H14       1.0  0.12108925842096599  0.3704742341480697  0.18520805361326606  1.0000
  H   H15       1.0  0.6210962412989645  0.12952419198632015  0.1852096101535494  1.0000
  H   H16       1.0  0.8789108266951402  0.6295245446929697  0.8147920404676865  1.0000
  H   H17       1.0  0.7327144522903736  0.2710234284006106  0.5713153291488594  1.0000
  H   H18       1.0  0.7672876829539276  0.7710239518815954  0.42868531102222107  1.0000
  H   H19       1.0  0.2672831274025924  0.728977388762914  0.4286834235212851  1.0000
  H   H20       1.0  0.23271117942397265  0.2289748269592096  0.5713152384561511  1.0000
  H   H21       1.0  0.6356846617964961  0.11950979629109065  0.6632417594533847  1.0000
  H   H22       1.0  0.8643149775026159  0.6195093653304368  0.3367592464319173  1.0000
  H   H23       1.0  0.3643116951583777  0.8804920400334028  0.33675744861411516  1.0000
  H   H24       1.0  0.13568264715045328  0.380490432671472  0.6632411953924374  1.0000
  H   H25       1.0  0.4599087676303668  0.4794081867787412  0.7641996441051828  1.0000
  H   H26       1.0  0.04009057871636661  0.9794077430398076  0.2358005448876739  1.0000
  H   H27       1.0  0.5400912875123821  0.5205916112237716  0.23579932387293914  1.0000
  H   H28       1.0  0.9599095213864856  0.020591035801089702  0.7642001122446586  1.0000
  H   H29       1.0  0.5613759399455559  0.61504430831544  0.6669579871437178  1.0000
  H   H30       1.0  0.9386236683342162  0.1150429245524123  0.3330418931685201  1.0000
  H   H31       1.0  0.43862289245933533  0.3849585471704343  0.3330414362316461  1.0000
  H   H32       1.0  0.0613764317687497  0.8849568734496814  0.6669587639637555  1.0000
  C   C1        1.0  0.3703913192537343  0.1715277002617555  0.895262588458557  1.0000
  C   C2        1.0  0.12960670228117976  0.6715293776152294  0.10473696634587529  1.0000
  C   C3        1.0  0.6296075131508018  0.82847209774053  0.10473683491699147  1.0000
  C   C4        1.0  0.87039460557326  0.32847042038724084  0.895262672337594  1.0000
  C   C5        1.0  0.43511287305452123  0.25451495795262247  0.8455782597915869  1.0000
  C   C6        1.0  0.06488643561290527  0.7545155787747362  0.15442251892668674  1.0000
  C   C7        1.0  0.5648884497866645  0.7454848400497057  0.15442194194326214  1.0000
  C   C8        1.0  0.9351111740533041  0.24548320006611143  0.8455773598463379  1.0000
  C   C9        1.0  0.4792555157354385  0.19802083494616338  0.7801215765283303  1.0000
  C   C10       1.0  0.020742526990083797  0.6980193762181486  0.21987853818536954  1.0000
  C   C11       1.0  0.5207458220925999  0.801979982217226  0.21987918825784183  1.0000
  C   C12       1.0  0.9792563054143314  0.3019794026229334  0.7801208851902358  1.0000
  C   C13       1.0  0.4602502997671465  0.0566682731511179  0.7695171117823348  1.0000
  C   C14       1.0  0.03975018530603339  0.5566678319969255  0.23048323500474768  1.0000
  C   C15       1.0  0.539752275785723  0.9433315248511605  0.23048376065786153  1.0000
  C   C16       1.0  0.9602511525217706  0.44333094684406393  0.7695175297815453  1.0000
  C   C17       1.0  0.39592924160346843  0.9800812970611192  0.8221348235842355  1.0000
  C   C18       1.0  0.10407258035093038  0.4800819638635829  0.17786558063664157  1.0000
  C   C19       1.0  0.6040758093991839  0.019917481780154803  0.17786626416393855  1.0000
  C   C20       1.0  0.895926267040231  0.5199168149773569  0.8221344057903437  1.0000
  C   C21       1.0  0.6701535360130108  0.3124686208483213  0.6146757941771382  1.0000
  C   C22       1.0  0.829846118500292  0.8124681589645419  0.385324062718979  1.0000
  C   C23       1.0  0.32984404368007597  0.6875332154763997  0.38532295849294224  1.0000
  C   C24       1.0  0.1701552193276257  0.18753163903764403  0.6146767020672569  1.0000
  C   C25       1.0  0.6157877941639284  0.2285009304063195  0.6671078703755738  1.0000
  C   C26       1.0  0.8842130933972638  0.728500505246572  0.3328926671851064  1.0000
  C   C27       1.0  0.3842110532274673  0.7714998867570201  0.3328921160512905  1.0000
  C   C28       1.0  0.11578700670558818  0.27149827359432527  0.6671079899472261  1.0000
  C   C29       1.0  0.5392502631564183  0.28499097586632877  0.7235334408240418  1.0000
  C   C30       1.0  0.9607481471970301  0.7849895745764145  0.27646631167723257  1.0000
  C   C31       1.0  0.4607473315234074  0.715010860458257  0.27646587489741836  1.0000
  C   C32       1.0  0.039250700194131086  0.2150092042645326  0.7235336747497596  1.0000
  C   C33       1.0  0.5191845271913278  0.427151731477153  0.7229571649682497  1.0000
  C   C34       1.0  0.9808151541788205  0.927151352967215  0.27704267832555013  1.0000
  C   C35       1.0  0.48081303751489196  0.5728490856865137  0.2770410246505151  1.0000
  C   C36       1.0  0.019183693212461595  0.0728484450349285  0.7229573081013851  1.0000
  C   C37       1.0  0.576111373180531  0.5048159106572571  0.668484003159115  1.0000
  C   C38       1.0  0.9238882092857421  0.004815543947856301  0.3315158902270169  1.0000
  C   C39       1.0  0.42388869694919146  0.4951859256675208  0.33151552787027316  1.0000
  C   C40       1.0  0.07611187583048458  0.9951842540543794  0.6684842038538787  1.0000
  N   N1        1.0  0.3494957320970967  0.036388964369713506  0.8836449028787638  1.0000
  N   N2        1.0  0.15050351050219035  0.5363896208371983  0.1163553386595808  1.0000
  N   N3        1.0  0.6505068284690337  0.963610833632707  0.11635540651004557  1.0000
  N   N4        1.0  0.8494965746139227  0.46360915800383407  0.883644755421372  1.0000
  N   N5        1.0  0.6519208207674294  0.4490250088605663  0.6154633373303965  1.0000
  N   N6        1.0  0.8480776280001123  0.949024550918523  0.38453639571510206  1.0000
  N   N7        1.0  0.34807801163722724  0.5509758083029156  0.3845360860450952  1.0000
  N   N8        1.0  0.15192121939116277  0.05097524708361329  0.6154635907118262  1.0000
  O   O1        1.0  0.2473777522109231  0.5002744276966239  0.9439067865213245  1.0000
  O   O2        1.0  0.25262395738086235  0.00027518412836260005  0.056093674608398196  1.0000
  O   O3        1.0  0.7526210801937339  0.4997263894668579  0.05609263685416009  1.0000
  O   O4        1.0  0.7473773954336805  0.9997235947124924  0.9439076532292744  1.0000
  O   O5        1.0  0.5073802570102188  0.5815902786826328  0.8996141129311466  1.0000
  O   O6        1.0  0.9926218188854676  0.081592078910397  0.10038598665673247  1.0000
  O   O7        1.0  0.4926210808175852  0.41840850015835696  0.10038665185514617  1.0000
  O   O8        1.0  0.0073807566676436  0.9184097574142885  0.899614885783336  1.0000
  O   O9        1.0  0.3458661748419872  0.7463988033240057  0.9687625903057507  1.0000
  O   O10       1.0  0.15413684509976378  0.24640057213761676  0.031238512336983597  1.0000
  O   O11       1.0  0.654135133012332  0.25359997551726116  0.031237048377775505  1.0000
  O   O12       1.0  0.8458657454399726  0.753600245025723  0.9687629231545358  1.0000
  O   O13       1.0  0.7503066238847111  0.48130903020698684  0.44518373498161157  1.0000
  O   O14       1.0  0.7496992737792779  0.9813054107330929  0.5548172032100849  1.0000
  O   O15       1.0  0.2496910007683653  0.5186907677949223  0.5548167068427431  1.0000
  O   O16       1.0  0.25029954363851903  0.018694387269327702  0.44518165711408386  1.0000
  O   O17       1.0  0.9844462785625719  0.5890047980035363  0.598112070733954  1.0000
  O   O18       1.0  0.5155521008810878  0.08900431672193321  0.40188826806414096  1.0000
  O   O19       1.0  0.015552553842205398  0.4109970383211419  0.4018873526414665  1.0000
  O   O20       1.0  0.48444671653718524  0.9109995579252865  0.5981105922597862  1.0000
  O   O21       1.0  0.6348471976676321  0.7389437770835556  0.5282713027110617  1.0000
  O   O22       1.0  0.8651512168893092  0.23894434819527532  0.4717290183030371  1.0000
  O   O23       1.0  0.3651516497237636  0.261057040079784  0.47172868371580273  1.0000
  O   O24       1.0  0.1348476155153477  0.7610564689682064  0.5282704050724545  1.0000
  F   F1        1.0  0.23282859267484207  0.6613263824375012  0.8366423133061714  1.0000
  F   F2        1.0  0.26717439235740403  0.1613260690610332  0.16335823637555788  1.0000
  F   F3        1.0  0.7671715224149906  0.33867443472565384  0.16335890687742696  1.0000
  F   F4        1.0  0.7328306286720049  0.8386747481029103  0.8366417252697359  1.0000
  F   F5        1.0  0.7537438836353446  0.8200272015382525  0.6606585138674816  1.0000
  F   F6        1.0  0.7462545648968301  0.3200288346714117  0.3393423605808009  1.0000
  F   F7        1.0  0.24625620148088956  0.1799725964639833  0.3393415802134071  1.0000
  F   F8        1.0  0.2537442824944449  0.6799709633307317  0.6606576258461274  1.0000
