data_image0
_chemical_formula_structural       H44Pb2C24O8
_chemical_formula_sum              "H44 Pb2 C24 O8"
_cell_length_a       4.690533786772431
_cell_length_b       7.227323292425331
_cell_length_c       20.838824401339657
_cell_angle_alpha    88.51890877874358
_cell_angle_beta     83.90042439562853
_cell_angle_gamma    88.41301997544221

_space_group_name_H-M_alt    "P 1"
_space_group_IT_number       1

loop_
  _space_group_symop_operation_xyz
  'x, y, z'

loop_
  _atom_site_type_symbol
  _atom_site_label
  _atom_site_symmetry_multiplicity
  _atom_site_fract_x
  _atom_site_fract_y
  _atom_site_fract_z
  _atom_site_occupancy
  H   H1        1.0  0.44365951719555596  0.0776507225761733  0.1404627060866304  1.0000
  H   H2        1.0  0.5563312597482833  0.9223575677030312  0.8595348491017989  1.0000
  H   H3        1.0  0.3523028907707939  0.3181765132620528  0.1365404195758515  1.0000
  H   H4        1.0  0.6476986112652909  0.6818317425402044  0.8634564033864864  1.0000
  H   H5        1.0  0.886787665461405  0.16421195723012263  0.1950041237187747  1.0000
  H   H6        1.0  0.11320765250980001  0.8357880466245721  0.8049958112612218  1.0000
  H   H7        1.0  0.7503957195908412  0.39475177753809015  0.19793391107587155  1.0000
  H   H8        1.0  0.24959539273552167  0.6052454812876392  0.8020671117090076  1.0000
  H   H9        1.0  0.46107401228151446  0.0508242858724088  0.26213488589664286  1.0000
  H   H10       1.0  0.5389192174383837  0.9491743199642002  0.7378636733946067  1.0000
  H   H11       1.0  0.29543395959191077  0.27223716103039663  0.2628114963487249  1.0000
  H   H12       1.0  0.7045571745911232  0.727760059539925  0.737186647049363  1.0000
  H   H13       1.0  0.85971950821191  0.17496158088412272  0.31956340540146755  1.0000
  H   H14       1.0  0.1402692524872222  0.8250425742352976  0.6804352006651655  1.0000
  H   H15       1.0  0.6918390318810949  0.395443374709629  0.32032374037986244  1.0000
  H   H16       1.0  0.3081434312790989  0.6045566437386257  0.6796750577006847  1.0000
  H   H17       1.0  0.4326074041508078  0.04370272145217771  0.3871560185973309  1.0000
  H   H18       1.0  0.5673835910587073  0.9562986590258405  0.6128425640816104  1.0000
  H   H19       1.0  0.255817255852655  0.2632450597891918  0.38714764504570814  1.0000
  H   H20       1.0  0.7441759323997772  0.7367549241821153  0.612850420808755  1.0000
  H   H21       1.0  0.5712896589458155  0.23072193364524912  0.4266569506734329  1.0000
  H   H22       1.0  0.4286991017533168  0.7692822214741711  0.5733416553932004  1.0000
  H   H23       1.0  0.26367632980350914  0.5420367116573885  0.2180861660790399  1.0000
  H   H24       1.0  0.7363236681685877  0.4579508458651206  0.7819157094116777  1.0000
  H   H25       1.0  0.4286926548707796  0.7555338710021359  0.2146230558163253  1.0000
  H   H26       1.0  0.5713311900232725  0.2444453367621762  0.7853797854794353  1.0000
  H   H27       1.0  0.8215621130680473  0.6759979157271587  0.2809120007097476  1.0000
  H   H28       1.0  0.1784504079753262  0.3240006522793664  0.7190870641861624  1.0000
  H   H29       1.0  0.9757116834974721  0.895016935828437  0.277133231198306  1.0000
  H   H30       1.0  0.0243116492158535  0.10497883505584582  0.722865608447279  1.0000
  H   H31       1.0  0.3777743611004567  0.7691103801562776  0.3375036898960388  1.0000
  H   H32       1.0  0.6222382770597575  0.2308840661979517  0.6624978151058158  1.0000
  H   H33       1.0  0.22701280314684175  0.548686417566664  0.3412769516064031  1.0000
  H   H34       1.0  0.7729889855187295  0.45131219766860653  0.6587238053111977  1.0000
  H   H35       1.0  0.7923627972297284  0.6662641320931612  0.40730385418512344  1.0000
  H   H36       1.0  0.20763691047009303  0.33373307237221894  0.5926945672481311  1.0000
  H   H37       1.0  0.9164051105630192  0.8942106187187521  0.3994082449521913  1.0000
  H   H38       1.0  0.08359032677090991  0.1057865651075502  0.6005878779233811  1.0000
  H   H39       1.0  0.3358670008707207  0.8054089057799487  0.46025052307258824  1.0000
  H   H40       1.0  0.6641171860160356  0.19460359314707892  0.5397500222826537  1.0000
  H   H41       1.0  0.2225290243557865  0.5731074347886249  0.46726081210596965  1.0000
  H   H42       1.0  0.7774680478811219  0.4269036905378414  0.532742803278893  1.0000
  H   H43       1.0  0.008684418875652992  0.7513497817621158  0.5067820502684982  1.0000
  H   H44       1.0  0.9912975931820752  0.24866408179212132  0.4932166124222306  1.0000
  Pb  Pb1       1.0  0.7773266131460943  0.750890288405003  0.04187507286212621  1.0000
  Pb  Pb2       1.0  0.2226563097990208  0.2490945641856896  0.9581286731252092  1.0000
  C   C1        1.0  0.7290137255038474  0.24117881606422034  0.0766972507411694  1.0000
  C   C2        1.0  0.2709985932418705  0.7588253282400929  0.9233046393856057  1.0000
  C   C3        1.0  0.5316875559768234  0.21702235622827706  0.1385012844660025  1.0000
  C   C4        1.0  0.46831000379032867  0.7829748602332172  0.8614976673307029  1.0000
  C   C5        1.0  0.6874948588380788  0.24910529823239358  0.19822253941712384  1.0000
  C   C6        1.0  0.31249817951250236  0.7508988647743069  0.8017774054115848  1.0000
  C   C7        1.0  0.506243606433145  0.19983868628122545  0.2612068683771938  1.0000
  C   C8        1.0  0.49374542492746804  0.8001571617746138  0.738791818923332  1.0000
  C   C9        1.0  0.6483445701827363  0.24619715216938695  0.3212895936057549  1.0000
  C   C10       1.0  0.3516463348062827  0.7538069973298251  0.6787089619952198  1.0000
  C   C11       1.0  0.46808679484256993  0.19346948168032443  0.38406003328749694  1.0000
  C   C12       1.0  0.531895668317624  0.8065305367679303  0.6159387647930501  1.0000
  C   C13       1.0  0.090934287113555  0.7364861186114809  0.15543470480299962  1.0000
  C   C14       1.0  0.9090867928754917  0.2635124587937057  0.8445665577192757  1.0000
  C   C15       1.0  0.21683104094122999  0.6922993763939971  0.2179003242622883  1.0000
  C   C16       1.0  0.7831796333700823  0.3076895375380603  0.7821012853611509  1.0000
  C   C17       1.0  0.02814670802232649  0.7456150827443934  0.2790483736993252  1.0000
  C   C18       1.0  0.9718679536681591  0.2543834860178151  0.7209511206287262  1.0000
  C   C19       1.0  0.1716755612815746  0.697958683425732  0.3399992550140852  1.0000
  C   C20       1.0  0.8283350264520235  0.3020329931516131  0.6600018476335949  1.0000
  C   C21       1.0  0.9887195166464975  0.7480489175309302  0.40255125192257424  1.0000
  C   C22       1.0  0.011280093547277702  0.2519510687074487  0.597448102228313  1.0000
  C   C23       1.0  0.1469393744855765  0.7177750007194986  0.4624918089594774  1.0000
  C   C24       1.0  0.8530469945157647  0.2822361208285217  0.5375096592646855  1.0000
  O   O1        1.0  0.7663182477302399  0.10733787896768382  0.0368619105210541  1.0000
  O   O2        1.0  0.23371760216570436  0.8926676071526175  0.9631408506378919  1.0000
  O   O3        1.0  0.8572609420786039  0.3927828205301934  0.06500405136201691  1.0000
  O   O4        1.0  0.1427446891039779  0.6072283141949414  0.935001761649204  1.0000
  O   O5        1.0  0.2402182353539146  0.7050087257410239  0.10135654474201772  1.0000
  O   O6        1.0  0.759798608451156  0.2949884656421845  0.8986438724549543  1.0000
  O   O7        1.0  0.8335408211498748  0.799403908858814  0.15708908578483974  1.0000
  O   O8        1.0  0.1664843633351936  0.20060020172424234  0.8429125015479855  1.0000
