data_image0
_chemical_formula_structural       Al2H24C42S6N6O30
_chemical_formula_sum              "Al2 H24 C42 S6 N6 O30"
_cell_length_a       4.29834259617962
_cell_length_b       27.60635825936274
_cell_length_c       27.60637383955332
_cell_angle_alpha    120.00007007560811
_cell_angle_beta     89.99910253495261
_cell_angle_gamma    90.00091264829688

_space_group_name_H-M_alt    "P 1"
_space_group_IT_number       1

loop_
  _space_group_symop_operation_xyz
  'x, y, z'

loop_
  _atom_site_type_symbol
  _atom_site_label
  _atom_site_symmetry_multiplicity
  _atom_site_fract_x
  _atom_site_fract_y
  _atom_site_fract_z
  _atom_site_occupancy
  Al  Al1       1.0  0.9653307367655087  0.49999907795700693  0.5000010688224775  1.0000
  Al  Al2       1.0  0.9654156494336307  0.16666464648834284  0.8333329484886605  1.0000
  H   H1        1.0  0.5231457925738496  0.1795934095930037  0.6949475539038659  1.0000
  H   H2        1.0  0.5835161927784541  0.23194539344076048  0.6431201483925051  1.0000
  H   H3        1.0  0.5263827218277584  0.38777519324856535  0.7986036537118508  1.0000
  H   H4        1.0  0.5263926986528914  0.2788978410697568  0.5347398616127279  1.0000
  H   H5        1.0  0.5835428124196866  0.4347263437323292  0.6902210454138142  1.0000
  H   H6        1.0  0.5231503864264367  0.4870790069000393  0.6383936811521947  1.0000
  H   H7        1.0  0.5231287853611448  0.015353606251920901  0.8204062416370377  1.0000
  H   H8        1.0  0.5835446599709115  0.9111734833608337  0.7680562921707048  1.0000
  H   H9        1.0  0.5264327569032333  0.910826902266791  0.6122243246773915  1.0000
  H   H10       1.0  0.5263868086421652  0.755838555622276  0.7211086140010394  1.0000
  H   H11       1.0  0.5835235929931742  0.7554894225336356  0.5652755798362818  1.0000
  H   H12       1.0  0.5231301699824656  0.6513122899665973  0.512928473208106  1.0000
  H   H13       1.0  0.5231307167208071  0.30505326970685354  0.9846422833280996  1.0000
  H   H14       1.0  0.5835294059610873  0.3568828348720956  0.08882225109708483  1.0000
  H   H15       1.0  0.5264180340253617  0.2013983298308374  0.08917054511844914  1.0000
  H   H16       1.0  0.5264051489213983  0.46526734075477794  0.2441633986269948  1.0000
  H   H17       1.0  0.5835610762961992  0.30978417126625146  0.24451325867301674  1.0000
  H   H18       1.0  0.5231352181819204  0.3616117079231885  0.3486890032790981  1.0000
  H   H19       1.0  0.9689827791332919  0.33072973636188163  0.8951435931810323  1.0000
  H   H20       1.0  0.9689035680057143  0.33592277575429114  0.4381871472585459  1.0000
  H   H21       1.0  0.9689990897117153  0.0644084286990393  0.6692597695505924  1.0000
  H   H22       1.0  0.9689570522403201  0.6022523068401356  0.6640699921869242  1.0000
  H   H23       1.0  0.9689459404576299  0.10485174272299969  0.9355922700466479  1.0000
  H   H24       1.0  0.9689566920799283  0.5618102435737172  0.39774710799704854  1.0000
  C   C1        1.0  0.4680649809523985  0.4710457084874378  0.41740542603641007  1.0000
  C   C2        1.0  0.4680604580825758  0.44635946030725654  0.5289528134521787  1.0000
  C   C3        1.0  0.4680871248189504  0.5826002372365622  0.5536447158066692  1.0000
  C   C4        1.0  0.468144450038949  0.22030900643444815  0.8043800517876248  1.0000
  C   C5        1.0  0.4681503540226685  0.08407350996949962  0.7796930115689236  1.0000
  C   C6        1.0  0.4681050298461571  0.19561839638229372  0.9159260053018059  1.0000
  C   C7        1.0  0.5008741731210336  0.25418821689680726  0.7759641161647011  1.0000
  C   C8        1.0  0.5306243006307908  0.22522177475980962  0.7174144373966058  1.0000
  C   C9        1.0  0.5650079140146077  0.25405587888099757  0.6885535616935029  1.0000
  C   C10       1.0  0.5671172320235699  0.312919858762747  0.7181120508252334  1.0000
  C   C11       1.0  0.5370879565425354  0.3422592691975127  0.7764553900250348  1.0000
  C   C12       1.0  0.5041746617631233  0.31291856619804287  0.8051099846785162  1.0000
  C   C13       1.0  0.5370515123384153  0.32440812533545244  0.5568857965885101  1.0000
  C   C14       1.0  0.567098881538982  0.35375381516850274  0.615231551989538  1.0000
  C   C15       1.0  0.5649716829935727  0.4126148525906855  0.6447850142603142  1.0000
  C   C16       1.0  0.5305659909664372  0.4414395479766497  0.6159219535241148  1.0000
  C   C17       1.0  0.5007745639026453  0.41248112219652466  0.5573816437868189  1.0000
  C   C18       1.0  0.5040649882168536  0.3537537213453846  0.5282299291554793  1.0000
  C   C19       1.0  0.5008521689514749  0.021768828280862393  0.7458074440947938  1.0000
  C   C20       1.0  0.5306071291365271  0.9921864331561495  0.7747739650099276  1.0000
  C   C21       1.0  0.5650026029392449  0.9344978534088922  0.7459432634045554  1.0000
  C   C22       1.0  0.56711649496075  0.9051902620690485  0.687083433188242  1.0000
  C   C23       1.0  0.5371148592819495  0.9341948601412184  0.6577398146742084  1.0000
  C   C24       1.0  0.504196689242974  0.9921913362205572  0.6870812725016362  1.0000
  C   C25       1.0  0.5370571223994035  0.7324654883013866  0.6755888160126559  1.0000
  C   C26       1.0  0.567094907478996  0.7614754581424206  0.6462521436817068  1.0000
  C   C27       1.0  0.5649792624900769  0.7321695923897026  0.5873898632726336  1.0000
  C   C28       1.0  0.5305784518507934  0.6744766642056491  0.5585540897540611  1.0000
  C   C29       1.0  0.5007965683149607  0.644892153380482  0.5875249391511728  1.0000
  C   C30       1.0  0.504110370419241  0.6744771353557226  0.6462551712931556  1.0000
  C   C31       1.0  0.5008462153621096  0.22404082783266693  0.978227653459683  1.0000
  C   C32       1.0  0.5305999616443273  0.28258541254085395  0.007810406151435112  1.0000
  C   C33       1.0  0.5649862207115034  0.31144789177727716  0.06549977895954834  1.0000
  C   C34       1.0  0.5671142956134291  0.2818921469633864  0.09480844570236255  1.0000
  C   C35       1.0  0.5370942182525411  0.22354615476110956  0.06580563450344808  1.0000
  C   C36       1.0  0.504175992968129  0.19489124755926207  0.0078072640128965635  1.0000
  C   C37       1.0  0.5370604424272685  0.4431191564489083  0.2675308427192248  1.0000
  C   C38       1.0  0.5671193361773846  0.38477286736590327  0.23852470798727396  1.0000
  C   C39       1.0  0.5650085680301515  0.3552183177827075  0.26783290383472286  1.0000
  C   C40       1.0  0.5305915629064585  0.3840762094121004  0.32552323966684327  1.0000
  C   C41       1.0  0.5007955426642212  0.442625658410428  0.3551064699199171  1.0000
  C   C42       1.0  0.5040951340044941  0.47177278365342806  0.32552469530939016  1.0000
  S   S1        1.0  0.4173047271922671  0.3537931807057362  0.8781352852699412  1.0000
  S   S2        1.0  0.4172330863544574  0.3128675188276516  0.455204619413422  1.0000
  S   S3        1.0  0.41737860173530816  0.024343174885189067  0.646203256408846  1.0000
  S   S4        1.0  0.4172778629586773  0.642326140375573  0.6871302059735666  1.0000
  S   S5        1.0  0.41734149397881026  0.12185800633587006  0.9756554813731667  1.0000
  S   S6        1.0  0.417238196732832  0.5447960239079636  0.3576664605817399  1.0000
  N   N1        1.0  0.5775963475718271  0.3468342927721722  0.6931419738203957  1.0000
  N   N2        1.0  0.577676719534729  0.31983769969960474  0.6401982398357688  1.0000
  N   N3        1.0  0.5776285379273318  0.8463057844480275  0.6531681887892444  1.0000
  N   N4        1.0  0.5776142267774276  0.8203594940888053  0.6801656570215895  1.0000
  N   N5        1.0  0.5776538951823439  0.3068631095794956  0.15369212465058268  1.0000
  N   N6        1.0  0.5776157519374436  0.3598043199411904  0.17964006347196457  1.0000
  O   O1        1.0  0.6934258617438331  0.5542617575828929  0.5568085300414651  1.0000
  O   O2        1.0  0.693358986553278  0.5025417910151048  0.4457398187337061  1.0000
  O   O3        1.0  0.6933603411879047  0.4431926654355536  0.4974601979930213  1.0000
  O   O4        1.0  0.2251754610992052  0.5644369285930111  0.5237321047162807  1.0000
  O   O5        1.0  0.22516079724525886  0.4762648594282978  0.5407059681522383  1.0000
  O   O6        1.0  0.22512797242959692  0.45929184510545434  0.4355614178813452  1.0000
  O   O7        1.0  0.6934265709851672  0.16411852371293634  0.8875925194181846  1.0000
  O   O8        1.0  0.693467092791856  0.22347032306297615  0.8358781600439967  1.0000
  O   O9        1.0  0.693438795905884  0.11240035337628741  0.776528532122299  1.0000
  O   O10       1.0  0.2252198975842816  0.20736736375404535  0.8977734448220857  1.0000
  O   O11       1.0  0.2252305712676019  0.10222408049782679  0.8095966109341218  1.0000
  O   O12       1.0  0.2252173171319782  0.19039545117761478  0.792627068336074  1.0000
  O   O13       1.0  0.6907715437076761  0.3603117103951875  0.9123501501535785  1.0000
  O   O14       1.0  0.2690101427392904  0.40427306671188035  0.8875271788108136  1.0000
  O   O15       1.0  0.19755012523094  0.3145409384104383  0.8871487835380093  1.0000
  O   O16       1.0  0.6906677661389793  0.3063400662727673  0.4209928992887626  1.0000
  O   O17       1.0  0.26888077186690396  0.26239629804675957  0.44582940755479666  1.0000
  O   O18       1.0  0.1974787480894733  0.352114657776589  0.4461817208660719  1.0000
  O   O19       1.0  0.690822949884854  0.052051445838174115  0.63969884107933  1.0000
  O   O20       1.0  0.2691404389417115  0.9832588208188682  0.5957209117689783  1.0000
  O   O21       1.0  0.1975850823514236  0.07260061803727066  0.6854568786233769  1.0000
  O   O22       1.0  0.6907419911140309  0.6146339448468723  0.6936518892314466  1.0000
  O   O23       1.0  0.2689528227835964  0.6834153367352797  0.7376069329773997  1.0000
  O   O24       1.0  0.19752289080508229  0.5940540556039693  0.6478810685664199  1.0000
  O   O25       1.0  0.6907581472719642  0.08764726407756038  0.9479492851452846  1.0000
  O   O26       1.0  0.2691249201549653  0.112461983131972  0.016746820067787382  1.0000
  O   O27       1.0  0.1975471038608276  0.11285701408964867  0.9274036916957655  1.0000
  O   O28       1.0  0.6907253679704938  0.5790112170546422  0.38535445864976475  1.0000
  O   O29       1.0  0.2688928570885309  0.554178743112935  0.31658017463480087  1.0000
  O   O30       1.0  0.1975073609077427  0.5538190914708493  0.40594397584759173  1.0000
