data_image0
_chemical_formula_structural       Zn4H86C91N20O9
_chemical_formula_sum              "Zn4 H86 C91 N20 O9"
_cell_length_a       20.222880745234885
_cell_length_b       18.91973434623103
_cell_length_c       21.907588234533545
_cell_angle_alpha    101.64683344531453
_cell_angle_beta     109.86458109444996
_cell_angle_gamma    114.70775208756251

_space_group_name_H-M_alt    "P 1"
_space_group_IT_number       1

loop_
  _space_group_symop_operation_xyz
  'x, y, z'

loop_
  _atom_site_type_symbol
  _atom_site_label
  _atom_site_symmetry_multiplicity
  _atom_site_fract_x
  _atom_site_fract_y
  _atom_site_fract_z
  _atom_site_occupancy
  Zn  Zn1       1.0  0.8799064909383887  0.8968984923672847  0.5034324942658371  1.0000
  Zn  Zn2       1.0  0.1425178156936511  0.1230715377929812  0.5055008363292757  1.0000
  Zn  Zn3       1.0  0.0944173746516981  0.0056289479981473075  0.5996832647756491  1.0000
  Zn  Zn4       1.0  0.9316999993291403  0.0029320160394591057  0.3987101840890902  1.0000
  H   H1        1.0  0.2570068995337352  0.07257789912069514  0.4746944106955624  1.0000
  H   H2        1.0  0.38657407797598614  0.9749405738498425  0.6262066059205297  1.0000
  H   H3        1.0  0.41488893209309907  0.1734090190168018  0.5505689527771906  1.0000
  H   H4        1.0  0.5440790053946643  0.1915603874901706  0.5534308817052606  1.0000
  H   H5        1.0  0.1326596495629317  0.5314328463267088  0.6196894399854004  1.0000
  H   H6        1.0  0.1416041825218954  0.4042140924633769  0.6130667555886192  1.0000
  H   H7        1.0  0.8756486145360113  0.2481176721748923  0.514167365383578  1.0000
  H   H8        1.0  0.8673032099141267  0.37580178777791673  0.5241286846077315  1.0000
  H   H9        1.0  0.09889731795610152  0.14429819188744372  0.7073929687618589  1.0000
  H   H10       1.0  0.8898638344833998  0.5792702184001043  0.4250061170627575  1.0000
  H   H11       1.0  0.0932241992002716  0.7509691415136927  0.6356106159196885  1.0000
  H   H12       1.0  0.11625914187981581  0.854352360059103  0.5561536346975657  1.0000
  H   H13       1.0  0.09491952192431798  0.6288268496661474  0.6580473683038052  1.0000
  H   H14       1.0  0.2045413374652156  0.244072384010387  0.8322170855441158  1.0000
  H   H15       1.0  0.287099061328064  0.3592003536213397  0.9534462214153977  1.0000
  H   H16       1.0  0.5091826714708887  0.48516754899404896  0.12900376616153864  1.0000
  H   H17       1.0  0.6460912309077429  0.5983764222259893  0.23356454139940297  1.0000
  H   H18       1.0  0.2711928906940456  0.4313980339050545  0.7444486144990635  1.0000
  H   H19       1.0  0.4692323645441974  0.6756189751782671  0.07648065497974706  1.0000
  H   H20       1.0  0.35282621558215516  0.5465706897730911  0.8667085929644928  1.0000
  H   H21       1.0  0.7128262380798771  0.014892767943720655  0.3985902702020923  1.0000
  H   H22       1.0  0.6031640006466715  0.7893668102035818  0.18353132471282405  1.0000
  H   H23       1.0  0.9338575047630613  0.8999777067875813  0.27727593687251345  1.0000
  H   H24       1.0  0.9183808181251577  0.8639566437359393  0.1715531644008479  1.0000
  H   H25       1.0  0.8965760398001165  0.8266305112368642  0.048688947711504144  1.0000
  H   H26       1.0  0.9752887464233239  0.9692734639374975  0.9421679487029876  1.0000
  H   H27       1.0  0.9486991338152605  8.170145304099987e-05  0.8335732521549987  1.0000
  H   H28       1.0  0.1814525575914061  0.017900119408430698  0.2491489916553533  1.0000
  H   H29       1.0  0.2769361926002318  0.3180659271655061  0.6607078214208855  1.0000
  H   H30       1.0  0.8295803623503203  0.9936880666361959  0.5946882111470302  1.0000
  H   H31       1.0  0.8893948310692892  0.12360122048262677  0.4961639782486317  1.0000
  H   H32       1.0  0.1168202854152511  0.006959182724273198  0.7562234870243217  1.0000
  H   H33       1.0  0.7360201655460727  0.7139828577455488  0.35547678240067887  1.0000
  H   H34       1.0  0.28645392914013  0.019371076606084635  0.6620513657926922  1.0000
  H   H35       1.0  0.8292842823413125  0.9601396256577673  0.7092925004519303  1.0000
  H   H36       1.0  0.8148665799229704  0.8644793176400114  0.7196349072519582  1.0000
  H   H37       1.0  0.694938308330876  0.874193362217234  0.594840426514665  1.0000
  H   H38       1.0  0.6805461148867663  0.7801668725602938  0.606535927701792  1.0000
  H   H39       1.0  0.6768243295852727  0.8343863854753836  0.7206088133151384  1.0000
  H   H40       1.0  0.5990572306773387  0.8291596339121554  0.6472543741185959  1.0000
  H   H41       1.0  0.6905871457698465  0.9284907230322615  0.7082020296057365  1.0000
  H   H42       1.0  0.2693662771598468  0.19627228410843864  0.4662728110774951  1.0000
  H   H43       1.0  0.2123025248294752  0.22400751285277212  0.4032401519343837  1.0000
  H   H44       1.0  0.30371250218606605  0.2277102889782015  0.4056370210026402  1.0000
  H   H45       1.0  0.5775684514285117  0.12057015129445153  0.486640884760611  1.0000
  H   H46       1.0  0.7751563560503527  0.7535503219925843  0.4676523734244569  1.0000
  H   H47       1.0  0.8042584885505021  0.7309051902010141  0.5444652633131  1.0000
  H   H48       1.0  0.6779149507113971  0.5996756756248162  0.3910156897979606  1.0000
  H   H49       1.0  0.7036386686297504  0.5749738744192997  0.46590431802086135  1.0000
  H   H50       1.0  0.6484182721915132  0.655488219114929  0.5170424099720919  1.0000
  H   H51       1.0  0.5710285067001236  0.5754474474766624  0.4310845176326197  1.0000
  H   H52       1.0  0.6247876818980629  0.6833236284059083  0.4431750344533326  1.0000
  H   H53       1.0  0.7006892451936932  0.7861621070804644  0.1411722346557908  1.0000
  H   H54       1.0  0.809370348450365  0.8526740081462452  0.17036220671273863  1.0000
  H   H55       1.0  0.7411652837443227  0.8894663939946668  0.13904774884750273  1.0000
  H   H56       1.0  0.670966936719843  0.09239370817564935  0.4534200589818909  1.0000
  H   H57       1.0  0.10345160231616289  0.3598913891526081  0.4764469248409071  1.0000
  H   H58       1.0  0.11930435801242818  0.2834535048586417  0.4312079333356849  1.0000
  H   H59       1.0  0.2567891523229946  0.4584339229122847  0.5517702794835629  1.0000
  H   H60       1.0  0.27294555365205037  0.3834432531136399  0.5069787990720512  1.0000
  H   H61       1.0  0.20096722545566345  0.39278785859719534  0.3909893140111578  1.0000
  H   H62       1.0  0.28798113736883124  0.4936116810322774  0.45560912018785876  1.0000
  H   H63       1.0  0.18656359115294657  0.46911547602705644  0.4369417301325883  1.0000
  H   H64       1.0  0.8631289405526275  0.3338763600292226  0.37356851837702737  1.0000
  H   H65       1.0  0.9660417102720587  0.4049506569705058  0.4435613496170561  1.0000
  H   H66       1.0  0.8867626875420171  0.4317005038828159  0.3104262209325128  1.0000
  H   H67       1.0  0.7464361851758952  0.03038307190121966  0.6336829975392818  1.0000
  H   H68       1.0  0.9887742547905133  0.5032521291455225  0.38098326752099615  1.0000
  H   H69       1.0  0.023117143559993298  0.3890263916545962  0.3581609893634479  1.0000
  H   H70       1.0  0.9898551919816756  0.4101935918350253  0.28169073388099974  1.0000
  H   H71       1.0  0.9211600717825875  0.31790308353730984  0.28681224988142884  1.0000
  H   H72       1.0  0.9773337201390574  0.716519075893224  0.8870195915360669  1.0000
  H   H73       1.0  0.08232309316436931  0.7747793284617401  0.9568123153676851  1.0000
  H   H74       1.0  0.05016301924838729  0.6912770271737613  0.8765305998911047  1.0000
  H   H75       1.0  0.2681569614144763  0.9978187447910615  0.21355127842887361  1.0000
  H   H76       1.0  0.2625956112490684  0.08833384672752943  0.20600562448549206  1.0000
  H   H77       1.0  0.292739357415897  0.037857885393727045  0.15157266916968132  1.0000
  H   H78       1.0  0.6547725374997809  0.061350644502354536  0.6682275578232151  1.0000
  H   H79       1.0  0.9737022089197893  0.7590315141817643  0.6409101314824356  1.0000
  H   H80       1.0  0.9089169101245247  0.7810250939953461  0.6688263615980008  1.0000
  H   H81       1.0  0.9628096579852539  0.6567353403208288  0.6984062978774973  1.0000
  H   H82       1.0  0.9020169764076511  0.6808954265784095  0.730368583492208  1.0000
  H   H83       1.0  0.7904189540664461  0.6240471022045854  0.6047328869062201  1.0000
  H   H84       1.0  0.8118601882805052  0.5452472236395282  0.6190993646462887  1.0000
  H   H85       1.0  0.8516256582027137  0.6014310555605391  0.5717281754472056  1.0000
  H   H86       1.0  0.5153869753597391  0.9926754636634744  0.6287379060362357  1.0000
  C   C1        1.0  0.9179535401038734  0.9238349405795889  0.6619770564917788  1.0000
  C   C2        1.0  0.9158399522148102  0.7531620069492888  0.49741515209709775  1.0000
  C   C3        1.0  0.7725359875997101  0.8495806762761192  0.2810054392689168  1.0000
  C   C4        1.0  0.07862294787508259  0.2400521725144102  0.5225353981103283  1.0000
  C   C5        1.0  0.2667801290516039  0.031317510010012484  0.6145507078014704  1.0000
  C   C6        1.0  0.7167807976650024  0.7679354755169994  0.2731650445973414  1.0000
  C   C7        1.0  0.3079581798215472  0.05442874269501632  0.5748338066267494  1.0000
  C   C8        1.0  0.9867782890175363  0.7470772511007554  0.5184311081751221  1.0000
  C   C9        1.0  0.0604110170818757  0.9823094396085565  0.2895004707657662  1.0000
  C   C10       1.0  0.6156176070013188  0.10225771871005668  0.5200428102700556  1.0000
  C   C11       1.0  0.6679280614139032  0.08541301985670213  0.5007877603034175  1.0000
  C   C12       1.0  0.013413263030962201  0.24078874653946514  0.5328438889628515  1.0000
  C   C13       1.0  0.7133392328133041  0.05504847858151874  0.5388966908609946  1.0000
  C   C14       1.0  0.7096269396446431  0.05042353012529342  0.6011543938830571  1.0000
  C   C15       1.0  0.6573233815875952  0.06737394466781418  0.6204549746557292  1.0000
  C   C16       1.0  0.13798156191607802  0.17598166794580553  0.6858988150274926  1.0000
  C   C17       1.0  0.6062489011748652  0.09012571599375721  0.5785838734699597  1.0000
  C   C18       1.0  0.494513453591189  0.033796356666393156  0.6127603376170968  1.0000
  C   C19       1.0  0.42146912126391806  0.02340330715398408  0.6110152991167084  1.0000
  C   C20       1.0  0.3891301347122962  0.07044840700780243  0.5853951539058356  1.0000
  C   C21       1.0  0.4362645205538129  0.1326358075201099  0.5667103643072409  1.0000
  C   C22       1.0  0.5092015135365529  0.14299832628849882  0.5685180665912952  1.0000
  C   C23       1.0  0.20004063273800907  0.2617216117569754  0.7120528875079161  1.0000
  C   C24       1.0  0.5384731704173689  0.091510823307445  0.5890734974724766  1.0000
  C   C25       1.0  0.0760561523190262  0.46935312336054097  0.5972501481455907  1.0000
  C   C26       1.0  0.0811985710799235  0.3976025898682565  0.5927770973564038  1.0000
  C   C27       1.0  0.009031841490958899  0.3157711400017149  0.557148081542458  1.0000
  C   C28       1.0  0.7472433828848395  0.003551141193945347  0.4417246474520624  1.0000
  C   C29       1.0  0.9325143801045072  0.3102127852896429  0.5378176848911806  1.0000
  C   C30       1.0  0.9276312419293262  0.38220405616062453  0.5434054247715352  1.0000
  C   C31       1.0  0.9989137649599086  0.4622667494591966  0.5676059468785867  1.0000
  C   C32       1.0  0.9374893517862332  0.5226493383988355  0.4885954771268502  1.0000
  C   C33       1.0  0.9354851043009305  0.5915996559516401  0.47657858149667487  1.0000
  C   C34       1.0  0.7559603371500215  0.02288183038877636  0.5111671420818097  1.0000
  C   C35       1.0  0.9915195137845884  0.6747947632250232  0.5286024954971965  1.0000
  C   C36       1.0  0.050299241073041394  0.6871262990209388  0.5936734876133586  1.0000
  C   C37       1.0  0.05088309667285531  0.6181661031728823  0.6062447142625089  1.0000
  C   C38       1.0  0.9943345940650586  0.5342757167182769  0.555038684788052  1.0000
  C   C39       1.0  0.6355707238066658  0.7019124860066555  0.2143109764153764  1.0000
  C   C40       1.0  0.2288260156425395  0.26441754755359875  0.6618057619822154  1.0000
  C   C41       1.0  0.5833905273126945  0.722606416573548  0.17041283640464405  1.0000
  C   C42       1.0  0.5084287846209747  0.6598193562487255  0.11160824560315775  1.0000
  C   C43       1.0  0.48265814950421776  0.5737481940486049  0.09564099377477223  1.0000
  C   C44       1.0  0.5308365945671555  0.552285997152687  0.14208714794332888  1.0000
  C   C45       1.0  0.7574072719856132  0.7656242718396911  0.3386303120377292  1.0000
  C   C46       1.0  0.6067335477456339  0.6154992674745187  0.20009862141216675  1.0000
  C   C47       1.0  0.2822226017701794  0.3740937869414154  0.9071878596157177  1.0000
  C   C48       1.0  0.23652649835357656  0.31048810873245714  0.8395616009050145  1.0000
  C   C49       1.0  0.3272799617776414  0.45953775210296033  0.9170695808638599  1.0000
  C   C50       1.0  0.2352430389396645  0.32960152402742443  0.7801719963284485  1.0000
  C   C51       1.0  0.27466295620284603  0.4154937084414811  0.7901722956359124  1.0000
  C   C52       1.0  0.8060965009221732  0.9933086313338252  0.5421207080854062  1.0000
  C   C53       1.0  0.31938189813342177  0.4797254534036384  0.8577135093769995  1.0000
  C   C54       1.0  0.985324570444689  0.9201972227054612  0.7879077199714432  1.0000
  C   C55       1.0  0.014281661560225705  0.8649619568094877  0.7977307921339474  1.0000
  C   C56       1.0  0.252275304846826  0.06027161554224141  0.5198377063733375  1.0000
  C   C57       1.0  0.03339122429334649  0.8507682668380665  0.8605810844002164  1.0000
  C   C58       1.0  0.018928574090317295  0.8893597199775056  0.9129280610484258  1.0000
  C   C59       1.0  0.9844347113340106  0.9393984373727022  0.900327966927037  1.0000
  C   C60       1.0  0.9693341688980724  0.955903305574573  0.8397675004716235  1.0000
  C   C61       1.0  0.9589663558858774  0.8662158477064991  0.09359698168298541  1.0000
  C   C62       1.0  0.9715901776174576  0.888173594692461  0.16226998358929026  1.0000
  C   C63       1.0  0.024742716441828298  0.8963283331135444  0.07750819300907351  1.0000
  C   C64       1.0  0.9514565208618038  0.15419891641963093  0.5020945084460919  1.0000
  C   C65       1.0  0.051972355179096  0.9471262539594107  0.2196451014482293  1.0000
  C   C66       1.0  0.1191070671750722  0.9741705107056478  0.20520903509665808  1.0000
  C   C67       1.0  0.0506982902098514  0.8296165037594179  0.5375509300551542  1.0000
  C   C68       1.0  0.10700229853976138  0.9474054212212761  0.13560229437316448  1.0000
  C   C69       1.0  0.052978017145882496  0.9826228851013139  0.7188946784303312  1.0000
  C   C70       1.0  0.9824340342420328  0.9437333016542269  0.7273639189411014  1.0000
  C   C71       1.0  0.7999660542589808  0.8911271584197847  0.6802999499194656  1.0000
  C   C72       1.0  0.70711560942663  0.8483492868526527  0.6352852280288845  1.0000
  C   C73       1.0  0.6662387499019999  0.8607529820125492  0.6803796121324696  1.0000
  C   C74       1.0  0.24913218322021893  0.19414998278860202  0.4120959163965169  1.0000
  C   C75       1.0  0.7807770239416526  0.7052465950158079  0.4866772979463648  1.0000
  C   C76       1.0  0.6968824365283978  0.6230894564972261  0.44807945970266877  1.0000
  C   C77       1.0  0.6317120153592413  0.6350501260641153  0.46054327290477914  1.0000
  C   C78       1.0  0.9962082252705712  0.9555326732856244  0.3073781446823389  1.0000
  C   C79       1.0  0.7538692688324035  0.8518794522855444  0.16804059822170117  1.0000
  C   C80       1.0  0.14627955756110111  0.3369668025460655  0.4816208582062842  1.0000
  C   C81       1.0  0.2311838076744834  0.4077584207255214  0.5002488878478887  1.0000
  C   C82       1.0  0.22649880563643174  0.44275093650110636  0.44282800076351964  1.0000
  C   C83       1.0  0.9135736746292479  0.4011020566412781  0.4019525487733944  1.0000
  C   C84       1.0  0.9395197968545688  0.4355011688088767  0.35157432308045616  1.0000
  C   C85       1.0  0.9700684322169479  0.3855526233691792  0.3176741612192515  1.0000
  C   C86       1.0  0.0423945613412826  0.7427167412683104  0.8991727610623528  1.0000
  C   C87       1.0  0.2529497014669103  0.02723762840249576  0.1766493679837779  1.0000
  C   C88       1.0  0.9544222193490128  0.761395278829191  0.6821077062078659  1.0000
  C   C89       1.0  0.1255153756584662  0.0577917048892189  0.35033251524399134  1.0000
  C   C90       1.0  0.9165119029754294  0.6751753994968936  0.6861250459337215  1.0000
  C   C91       1.0  0.8383837113797769  0.6077764029253673  0.6165831156727678  1.0000
  N   N1        1.0  0.9481801626551699  0.9497909866053076  0.6190731925380035  1.0000
  N   N2        1.0  0.3877090893132973  0.5278463633897702  0.9829879242198916  1.0000
  N   N3        1.0  0.0470188072804518  0.8856694195496573  0.9800563507506015  1.0000
  N   N4        1.0  0.0577391456618415  0.1605956418760144  0.48943090119510674  1.0000
  N   N5        1.0  0.9989402519571229  0.882151653314594  0.006204006695242079  1.0000
  N   N6        1.0  0.1311253362864306  0.13122949003327017  0.6253751886320559  1.0000
  N   N7        1.0  0.7874031956980473  0.9652201631469097  0.43142342969918  1.0000
  N   N8        1.0  0.1883581814944009  0.18614579939087153  0.611160737028456  1.0000
  N   N9        1.0  0.8237426831061613  0.9589916705252505  0.4937706833952903  1.0000
  N   N10       1.0  0.9787885363658829  0.10695302493424204  0.47653470025661454  1.0000
  N   N11       1.0  0.032225839500483695  0.985533449369143  0.6548498406075396  1.0000
  N   N12       1.0  0.18395508280161008  0.0435000543040047  0.5268986781170497  1.0000
  N   N13       1.0  0.829552538017154  0.8391107297522427  0.3824023205877226  1.0000
  N   N14       1.0  0.020648152452793105  0.8809949267008719  0.5297437454992107  1.0000
  N   N15       1.0  0.0193925598285318  0.010435280223667602  0.3709862509638029  1.0000
  N   N16       1.0  0.1010204004975321  0.0750331944708762  0.39837943376894464  1.0000
  N   N17       1.0  0.9370473610322705  0.833270723257016  0.5058640364189628  1.0000
  N   N18       1.0  0.8394670733121643  0.8895429993658939  0.3455153113801758  1.0000
  N   N19       1.0  0.19370816315506542  0.026226773303903893  0.585893811646706  1.0000
  N   N20       1.0  0.414520017174425  0.5055509050740099  0.03237658022299429  1.0000
  O   O1        1.0  0.8339371760134142  0.8782472037939472  0.6335960278291992  1.0000
  O   O2        1.0  0.2024659618863254  0.10857380994390549  0.35975637617404743  1.0000
  O   O3        1.0  0.8373211120168521  0.6875289577612663  0.4711142404392847  1.0000
  O   O4        1.0  0.7684879125722688  0.892777181738964  0.238464052486485  1.0000
  O   O5        1.0  0.15349032870322793  0.3056519903313273  0.5375920875911292  1.0000
  O   O6        1.0  0.8805032357059801  0.44319709953982306  0.433428991632958  1.0000
  O   O7        1.0  0.0647129040611603  0.7996657477546449  0.8651381650155443  1.0000
  O   O8        1.0  0.1702267149930137  0.971491460548357  0.11966466569728597  1.0000
  O   O9        1.0  0.028495218078497003  0.8264677082943025  0.7473450691485154  1.0000
