data_image0
_chemical_formula_structural       H18Pb2C18N2O10
_chemical_formula_sum              "H18 Pb2 C18 N2 O10"
_cell_length_a       7.315704037598913
_cell_length_b       8.888262121615766
_cell_length_c       9.287942092602563
_cell_angle_alpha    76.97447936773263
_cell_angle_beta     66.28408066817437
_cell_angle_gamma    78.24547901648836

_space_group_name_H-M_alt    "P 1"
_space_group_IT_number       1

loop_
  _space_group_symop_operation_xyz
  'x, y, z'

loop_
  _atom_site_type_symbol
  _atom_site_label
  _atom_site_symmetry_multiplicity
  _atom_site_fract_x
  _atom_site_fract_y
  _atom_site_fract_z
  _atom_site_occupancy
  H   H1        1.0  0.9115480709723728  0.6563152600248401  0.7133047392196018  1.0000
  H   H2        1.0  0.08846502522274592  0.34367751075712505  0.28669686473497796  1.0000
  H   H3        1.0  0.6943473321761715  0.6633738681698347  0.8557923982957547  1.0000
  H   H4        1.0  0.30566018982810306  0.3366246491455912  0.14420982711581593  1.0000
  H   H5        1.0  0.08423794181667428  0.5887547345621443  0.09783612412105208  1.0000
  H   H6        1.0  0.9157716079933281  0.41125665777516224  0.9021627969206919  1.0000
  H   H7        1.0  0.5871155154824308  0.10472336615659832  0.2423187694807467  1.0000
  H   H8        1.0  0.4128699146920455  0.8952736098286637  0.7576919973549251  1.0000
  H   H9        1.0  0.49395702858954854  0.927601766784477  0.3595044573360653  1.0000
  H   H10       1.0  0.5060319300888594  0.0723918639176091  0.64049831846026  1.0000
  H   H11       1.0  0.42832568221458434  0.020043880446174  0.19146090285402556  1.0000
  H   H12       1.0  0.5716632298174461  0.9799579074505687  0.8085412869513321  1.0000
  H   H13       1.0  0.9111597099910753  0.9277875696092935  0.633150731522001  1.0000
  H   H14       1.0  0.08883540868178838  0.07220500815238043  0.3668491910609007  1.0000
  H   H15       1.0  0.14582331410558416  0.9629354618084562  0.6207424825194751  1.0000
  H   H16       1.0  0.8541736411216975  0.03706301159766671  0.37925347959672007  1.0000
  H   H17       1.0  0.9277837807387784  0.10118491153004781  0.6904647099159577  1.0000
  H   H18       1.0  0.07221328239730704  0.8988124958189304  0.3095238990416219  1.0000
  Pb  Pb1       1.0  0.6704725912647972  0.4523274891150919  0.6354290165111108  1.0000
  Pb  Pb2       1.0  0.3295274225025437  0.547670962909386  0.36457134438929745  1.0000
  C   C1        1.0  0.7830495236830899  0.6870913788119072  0.3459684565875349  1.0000
  C   C2        1.0  0.21694827149409693  0.31291059640003743  0.6540275902658977  1.0000
  C   C3        1.0  0.8340982663104984  0.766681042218984  0.1775392155649129  1.0000
  C   C4        1.0  0.16590925569377651  0.23331747509644174  0.8224630098466508  1.0000
  C   C5        1.0  0.726553750275187  0.9045486834866808  0.12709770628544706  1.0000
  C   C6        1.0  0.2734347347073154  0.09545541813447038  0.8729052225616202  1.0000
  C   C7        1.0  0.9361270907699148  0.8965648596802397  0.8603504795731779  1.0000
  C   C8        1.0  0.06386904285553639  0.10343821323468921  0.13964910943804654  1.0000
  C   C9        1.0  0.04472685882048923  0.7537854484275358  0.9013234406812106  1.0000
  C   C10       1.0  0.9552748023494287  0.24622003514858204  0.09867494088204853  1.0000
  C   C11       1.0  0.997424335509045  0.6948796141352248  0.06218772716768242  1.0000
  C   C12       1.0  0.0025733376101940066  0.30513155638850264  0.9378172356650085  1.0000
  C   C13       1.0  0.5489095288458613  0.992702892239564  0.23852038877340218  1.0000
  C   C14       1.0  0.4510829929331522  0.007295480523957602  0.7614791820216595  1.0000
  C   C15       1.0  0.9839347698310661  0.9771631599386627  0.6916005283135578  1.0000
  C   C16       1.0  0.0160583215029462  0.02283992038790931  0.3083957363192625  1.0000
  C   C17       1.0  0.19951504294326852  0.6599407961957482  0.7797891740070428  1.0000
  C   C18       1.0  0.8004875660853371  0.3400671231290389  0.22020193913484595  1.0000
  N   N1        1.0  0.7840328392704309  0.9686287202341007  0.9719106713383496  1.0000
  N   N2        1.0  0.21596349975548174  0.0313732028036284  0.02808801094911932  1.0000
  O   O1        1.0  0.9220320249541417  0.6367726030204681  0.39933452204506636  1.0000
  O   O2        1.0  0.07796737051236143  0.36322118335098713  0.6006659218001573  1.0000
  O   O3        1.0  0.5992847265029583  0.66257907577846  0.43156220500718934  1.0000
  O   O4        1.0  0.4007137965164276  0.3374112367271991  0.5684360052891722  1.0000
  O   O5        1.0  0.1590117366421139  0.6533921014388755  0.6601437511938928  1.0000
  O   O6        1.0  0.8409971336046455  0.3466075341079177  0.33986319194224995  1.0000
  O   O7        1.0  0.3538217446279574  0.5896583041369822  0.8092431067797607  1.0000
  O   O8        1.0  0.6461903879267367  0.41035542245310813  0.19075772887047296  1.0000
  O   O9        1.0  0.763838706986476  0.6508251492523699  0.7445548928637964  1.0000
  O   O10       1.0  0.23616952661138405  0.34916171932678  0.2554484215848944  1.0000
