data_image0
_chemical_formula_structural       AlH12C24S3N3O15
_chemical_formula_sum              "Al1 H12 C24 S3 N3 O15"
_cell_length_a       4.275788076945159
_cell_length_b       15.67322303636946
_cell_length_c       15.65438740372128
_cell_angle_alpha    60.195129210106856
_cell_angle_beta     84.51536811149413
_cell_angle_gamma    84.80985115042459

_space_group_name_H-M_alt    "P 1"
_space_group_IT_number       1

loop_
  _space_group_symop_operation_xyz
  'x, y, z'

loop_
  _atom_site_type_symbol
  _atom_site_label
  _atom_site_symmetry_multiplicity
  _atom_site_fract_x
  _atom_site_fract_y
  _atom_site_fract_z
  _atom_site_occupancy
  Al  Al1       1.0  0.9020318343304153  0.4996041847550929  0.5023209467951162  1.0000
  H   H1        1.0  0.47103024189939907  0.7499152197084483  0.5074309910853217  1.0000
  H   H2        1.0  0.543506165133607  0.8469359772194098  0.5904739257831081  1.0000
  H   H3        1.0  0.3683885766864278  0.5911615172652847  0.8735304935883121  1.0000
  H   H4        1.0  0.5175727566563353  0.03906096083783692  0.5855596956752012  1.0000
  H   H5        1.0  0.5099219906608923  0.23941145041993656  0.7517439763938896  1.0000
  H   H6        1.0  0.5771421796462448  0.056447394473771305  0.8493104248435588  1.0000
  H   H7        1.0  0.6864555151030983  0.8590066775571189  0.04245241641996948  1.0000
  H   H8        1.0  0.2843285036734642  0.5240161465801878  0.24052842841600605  1.0000
  H   H9        1.0  0.33414210384912485  0.6034795534066506  0.05667565809983441  1.0000
  H   H10       1.0  0.8157547090634623  0.4114544303525279  0.7925186266205345  1.0000
  H   H11       1.0  0.9578509106406301  0.30585552333865  0.4069303706630762  1.0000
  H   H12       1.0  0.24502943088374707  0.8014162396644906  0.29643494978773793  1.0000
  C   C1        1.0  0.4270393720715335  0.5884105337813352  0.35565078101556213  1.0000
  C   C2        1.0  0.35894278338304275  0.5586451218401008  0.5909191194819529  1.0000
  C   C3        1.0  0.43189312122090234  0.35261047545327534  0.5591843497096889  1.0000
  C   C4        1.0  0.5576328410522535  0.9276586506279969  0.7811903954522706  1.0000
  C   C5        1.0  0.4988606985509065  0.7818062443997319  0.7875095269570169  1.0000
  C   C6        1.0  0.5241300066587159  0.7871721705518269  0.9290620692922857  1.0000
  C   C7        1.0  0.4488473660904404  0.7153731975499369  0.5876727394542841  1.0000
  C   C8        1.0  0.49133097957303556  0.7694458823655453  0.6338814512277084  1.0000
  C   C9        1.0  0.4648902811622976  0.7249083240609123  0.7371529639038883  1.0000
  C   C10       1.0  0.3954995108892163  0.6254865006320003  0.7935497089751565  1.0000
  C   C11       1.0  0.3543714956457862  0.5717026698634696  0.7469874131206142  1.0000
  C   C12       1.0  0.38035501072558014  0.6157333001247454  0.6436409416315171  1.0000
  C   C13       1.0  0.5256295540992184  0.0830017956466378  0.6214471274920754  1.0000
  C   C14       1.0  0.4899449595146875  0.18510209722357732  0.5671014715524977  1.0000
  C   C15       1.0  0.48104663775393425  0.24251190890960567  0.6134970143675886  1.0000
  C   C16       1.0  0.517453697333302  0.19527167029744424  0.7153185533381433  1.0000
  C   C17       1.0  0.5559352847564938  0.09321362107321113  0.7698591382376493  1.0000
  C   C18       1.0  0.5559949556319737  0.0362341567204396  0.7234232345555115  1.0000
  C   C19       1.0  0.6065141619019203  0.7844329262348496  0.08595678336815368  1.0000
  C   C20       1.0  0.5950142715933919  0.738072086275601  0.18856336487927194  1.0000
  C   C21       1.0  0.47324234595875225  0.6434434682142651  0.24549372465262556  1.0000
  C   C22       1.0  0.37950627263945336  0.5966259281412436  0.19622935155287283  1.0000
  C   C23       1.0  0.40506280546448187  0.6409762286791292  0.0940094460409355  1.0000
  C   C24       1.0  0.5141369868485697  0.7362329076197016  0.038013965632352036  1.0000
  S   S1        1.0  0.2483706029021633  0.4474357040409416  0.826142430414791  1.0000
  S   S2        1.0  0.4199723076159644  0.23502686073727116  0.4397423241270886  1.0000
  S   S3        1.0  0.7330965194089316  0.8128910167654411  0.23392697704687754  1.0000
  N   N1        1.0  0.5352984130120148  0.8789815493604893  0.7315820410611451  1.0000
  N   N2        1.0  0.48316920458916696  0.7329188726772531  0.8867401657979241  1.0000
  N   N3        1.0  0.5652525101781478  0.8845691987437547  0.8797889774514829  1.0000
  O   O1        1.0  0.1702505871772644  0.3866894486798814  0.5782610890149726  1.0000
  O   O2        1.0  0.1866105908792335  0.5363520315145323  0.3898310348755983  1.0000
  O   O3        1.0  0.12171500999893675  0.5769647306753143  0.540601254915849  1.0000
  O   O4        1.0  0.6605521764779568  0.40063038486024993  0.5021050347561555  1.0000
  O   O5        1.0  0.5932672016576177  0.49882371456674696  0.6001064351781339  1.0000
  O   O6        1.0  0.6289820377824569  0.5962279375655656  0.4055259564819382  1.0000
  O   O7        1.0  0.5284697955542015  0.38087215403240293  0.8438103249437248  1.0000
  O   O8        1.0  0.07463619920248021  0.4418095577148832  0.911680350355667  1.0000
  O   O9        1.0  0.047467236669305586  0.42935880254011494  0.7603119808083109  1.0000
  O   O10       1.0  0.6992214062283395  0.2815880830682077  0.3775400281640274  1.0000
  O   O11       1.0  0.29838061717252623  0.1592180384407698  0.42828304329812295  1.0000
  O   O12       1.0  0.1773990955954119  0.3210336212919315  0.42113858008356436  1.0000
  O   O13       1.0  0.9853495931295841  0.7555876165570227  0.30061598240906323  1.0000
  O   O14       1.0  0.8215439144100924  0.9047691594802174  0.15020126137679304  1.0000
  O   O15       1.0  0.46601215536868795  0.8270270314992558  0.29911146156039337  1.0000
