data_image0
_chemical_formula_structural       Mn2H34C14Br4N2O8
_chemical_formula_sum              "Mn2 H34 C14 Br4 N2 O8"
_cell_length_a       8.286618448124637
_cell_length_b       8.162211258359669
_cell_length_c       9.338585335605593
_cell_angle_alpha    91.03588465919918
_cell_angle_beta     89.9996928155313
_cell_angle_gamma    89.99944971020801

_space_group_name_H-M_alt    "P 1"
_space_group_IT_number       1

loop_
  _space_group_symop_operation_xyz
  'x, y, z'

loop_
  _atom_site_type_symbol
  _atom_site_label
  _atom_site_symmetry_multiplicity
  _atom_site_fract_x
  _atom_site_fract_y
  _atom_site_fract_z
  _atom_site_occupancy
  Mn  Mn1       1.0  0.17768787248175502  0.0018145979912133992  0.3347263180355924  1.0000
  Mn  Mn2       1.0  0.6776845994540893  0.9981855281412845  0.6652793114395479  1.0000
  H   H1        1.0  0.9955466313462795  0.08894286153179816  0.8594479140457665  1.0000
  H   H2        1.0  0.49554715844607244  0.9110505185352833  0.1405549838753899  1.0000
  H   H3        1.0  0.0087822150535004  0.42666631372475183  0.7294835401822154  1.0000
  H   H4        1.0  0.5087950492418614  0.5733220951256043  0.2705118867931304  1.0000
  H   H5        1.0  0.8909248173790587  0.35756808589278677  0.8737911366607988  1.0000
  H   H6        1.0  0.3909352529256934  0.6424239073450408  0.12620793565297103  1.0000
  H   H7        1.0  0.1537231255486446  0.5531030868538733  0.9281882509559195  1.0000
  H   H8        1.0  0.653741988011177  0.4469024066112651  0.0717972763759391  1.0000
  H   H9        1.0  0.12320270652760715  0.3816758982728173  0.039421414029988  1.0000
  H   H10       1.0  0.6232157926894928  0.6183371075861996  0.9605762211798776  1.0000
  H   H11       1.0  0.39567568171643336  0.32705378144711256  0.9477286624486962  1.0000
  H   H12       1.0  0.8956876618142573  0.672955282940073  0.052274019757966486  1.0000
  H   H13       1.0  0.3384849129733709  0.38874153458475985  0.7717488246368516  1.0000
  H   H14       1.0  0.8384952228137551  0.6112558806891853  0.2282495566861726  1.0000
  H   H15       1.0  0.24528623113516806  0.08997671220651429  0.9250622076831193  1.0000
  H   H16       1.0  0.7452885560591939  0.9100264096312286  0.0749453192648915  1.0000
  H   H17       1.0  0.30589521856251173  0.10716876492850248  0.7546792721650062  1.0000
  H   H18       1.0  0.8058954791365665  0.8928300932679887  0.2453278649533743  1.0000
  H   H19       1.0  0.9845833000379968  0.7838501521582301  0.5085279429571301  1.0000
  H   H20       1.0  0.48458115859646256  0.21614827235045192  0.49147191787893957  1.0000
  H   H21       1.0  0.14955546760299399  0.5912366241906425  0.2958842183463446  1.0000
  H   H22       1.0  0.64954314510706  0.40877002436612025  0.7041109949705486  1.0000
  H   H23       1.0  0.031467371487963205  0.5232951383723471  0.4446903103312891  1.0000
  H   H24       1.0  0.5314564961025569  0.4767090040739673  0.5553032549771402  1.0000
  H   H25       1.0  0.2279595691602054  0.6094287255850329  0.47283148941033193  1.0000
  H   H26       1.0  0.7279496905607418  0.39056982315696603  0.5271620852071095  1.0000
  H   H27       1.0  0.8959740601197907  0.1090484409189472  0.42142338716590894  1.0000
  H   H28       1.0  0.39596973736836116  0.8909496052920287  0.5785779519753047  1.0000
  H   H29       1.0  0.9433424848456012  0.34692339413078327  0.2793173231396366  1.0000
  H   H30       1.0  0.4433468357529264  0.6530802699293828  0.7206882148169669  1.0000
  H   H31       1.0  0.7463869058076682  0.2565595581505561  0.2525039346255582  1.0000
  H   H32       1.0  0.246389020511586  0.7434435899384723  0.7475003751517804  1.0000
  H   H33       1.0  0.9044036821297327  0.21587257610307378  0.12732532333242116  1.0000
  H   H34       1.0  0.4044022407760722  0.7841364160166434  0.8726762452027685  1.0000
  C   C1        1.0  0.0375761333263966  0.12735145264408484  0.6372014133446695  1.0000
  C   C2        1.0  0.5375662285865132  0.8726341157190305  0.3628034463725456  1.0000
  C   C3        1.0  0.062778716443205  0.17582420239062904  0.7931767146678155  1.0000
  C   C4        1.0  0.5627810747581848  0.8241709361897944  0.20682719084641826  1.0000
  C   C5        1.0  0.012363946965002997  0.3542511673024861  0.8274978471045313  1.0000
  C   C6        1.0  0.5123742600207919  0.6457421080124701  0.1724976826472329  1.0000
  C   C7        1.0  0.1442229093465812  0.41904232812462533  0.9284002678975654  1.0000
  C   C8        1.0  0.6442344507909257  0.5809619337441772  0.07159384089811027  1.0000
  C   C9        1.0  0.295701435226988  0.3352466120540426  0.8717039616391489  1.0000
  C   C10       1.0  0.7957106241949533  0.6647561439247909  0.1282926104033848  1.0000
  C   C11       1.0  0.11750816380966  0.6161068080843889  0.4079924042442044  1.0000
  C   C12       1.0  0.617497960130578  0.3838952500572716  0.5920028469524252  1.0000
  C   C13       1.0  0.8773608416740261  0.23790772834841786  0.24082770698481676  1.0000
  C   C14       1.0  0.37736270702126967  0.76209536259838  0.7591770563143356  1.0000
  Br  Br1       1.0  0.1536057947758707  0.8923196477655466  0.07454789831896139  1.0000
  Br  Br2       1.0  0.6536095184090627  0.10768441237726017  0.9254557993304573  1.0000
  Br  Br3       1.0  0.35347986842171514  0.25614368954663996  0.2814876424918396  1.0000
  Br  Br4       1.0  0.8534678593320494  0.7438450402682191  0.7185072422405057  1.0000
  N   N1        1.0  0.23834120960678012  0.1647501523011101  0.835244562377852  1.0000
  N   N2        1.0  0.7383461275404956  0.8352469103908573  0.16476284829527535  1.0000
  O   O1        1.0  0.15830973815543814  0.09163635140411229  0.5610200600530177  1.0000
  O   O2        1.0  0.658295412465975  0.9083639750113051  0.4389845946239035  1.0000
  O   O3        1.0  0.8908676223359393  0.1301591012871555  0.5927294461945392  1.0000
  O   O4        1.0  0.3908621174501405  0.8698157507377076  0.407268134224374  1.0000
  O   O5        1.0  0.045043552359402404  0.7761999327265128  0.4164756003840395  1.0000
  O   O6        1.0  0.54503614499275  0.22380276659367837  0.5835253617580776  1.0000
  O   O7        1.0  0.9265671371203156  0.09500411276091818  0.3170132054568455  1.0000
  O   O8        1.0  0.426564466117668  0.9049973372688385  0.6829859317088989  1.0000
