data_image0
_chemical_formula_structural       Zn2H22C22N2O10
_chemical_formula_sum              "Zn2 H22 C22 N2 O10"
_cell_length_a       5.937471384126624
_cell_length_b       8.533319715051626
_cell_length_c       11.687513597181217
_cell_angle_alpha    104.32548357660016
_cell_angle_beta     89.99959442143424
_cell_angle_gamma    90.00123599893647

_space_group_name_H-M_alt    "P 1"
_space_group_IT_number       1

loop_
  _space_group_symop_operation_xyz
  'x, y, z'

loop_
  _atom_site_type_symbol
  _atom_site_label
  _atom_site_symmetry_multiplicity
  _atom_site_fract_x
  _atom_site_fract_y
  _atom_site_fract_z
  _atom_site_occupancy
  Zn  Zn1       1.0  0.2223253378222836  0.007133960535988103  0.17082315558691621  1.0000
  Zn  Zn2       1.0  0.7223346506967516  0.9928668808823534  0.8291749057167765  1.0000
  H   H1        1.0  0.0437824918702745  0.418393876516312  0.8136800827282827  1.0000
  H   H2        1.0  0.5437978810276931  0.5816096251042068  0.18631949334251627  1.0000
  H   H3        1.0  0.8314177396847028  0.697673265759562  0.7685150539231885  1.0000
  H   H4        1.0  0.3314361424970542  0.3023292843723198  0.2314879537987268  1.0000
  H   H5        1.0  0.7184818621462555  0.6447693233286885  0.37675439631586033  1.0000
  H   H6        1.0  0.21847451024415682  0.3552354886758381  0.6232537168777343  1.0000
  H   H7        1.0  0.7508216251617057  0.5595976491777604  0.5641138014234742  1.0000
  H   H8        1.0  0.2508255855838328  0.4404128706268581  0.43589279503485306  1.0000
  H   H9        1.0  0.1558442902261632  0.836675242750431  0.6959064089263266  1.0000
  H   H10       1.0  0.6558634784019333  0.16331618840892762  0.3040821706351481  1.0000
  H   H11       1.0  0.1191118485143932  0.9140479205265779  0.5050136210795915  1.0000
  H   H12       1.0  0.6191185128129392  0.08592805009820383  0.49497143674828004  1.0000
  H   H13       1.0  0.5152581933538728  0.5274345047891914  0.7522625381128664  1.0000
  H   H14       1.0  0.0153029572978554  0.47257192234864936  0.24774597514931435  1.0000
  H   H15       1.0  0.3468921441419822  0.6960852821078801  0.8203648122336278  1.0000
  H   H16       1.0  0.8469176776565206  0.3039399217938765  0.17963597472653706  1.0000
  H   H17       1.0  0.5908477694376657  0.7421638037333836  0.9912220731428933  1.0000
  H   H18       1.0  0.09085516209279378  0.25783716824752634  0.008784957626133402  1.0000
  H   H19       1.0  0.8891019034024694  0.5466168307163245  0.018085020694456933  1.0000
  H   H20       1.0  0.38912263983166895  0.4533766626287631  0.981912427016461  1.0000
  H   H21       1.0  0.7141066146972719  0.4626086633231879  0.8950014205519711  1.0000
  H   H22       1.0  0.21412213660001814  0.5373899093268691  0.10499880708049865  1.0000
  C   C1        1.0  0.40155135938366027  0.8434561192226582  0.3192848372771735  1.0000
  C   C2        1.0  0.9015440407541321  0.1565407906302525  0.6807097914536302  1.0000
  C   C3        1.0  0.41720659225230616  0.7855668946455553  0.42967842423241376  1.0000
  C   C4        1.0  0.9172001168327812  0.21443605254944487  0.5703206735731429  1.0000
  C   C5        1.0  0.5935853650078685  0.68411561420006  0.4462602154898151  1.0000
  C   C6        1.0  0.0935845405163107  0.3158900022766176  0.553742451582295  1.0000
  C   C7        1.0  0.6119510720375132  0.6380423780007902  0.5521248622159051  1.0000
  C   C8        1.0  0.11195837890770832  0.361961914345045  0.44787850869600737  1.0000
  C   C9        1.0  0.4565232638518921  0.6941460390298317  0.6436398220330021  1.0000
  C   C10       1.0  0.9565314031452344  0.3058567149427062  0.35636280695541  1.0000
  C   C11       1.0  0.2776214247369353  0.7920700000389329  0.6254542237478304  1.0000
  C   C12       1.0  0.7776277281536608  0.20792557301044207  0.37454316963466994  1.0000
  C   C13       1.0  0.2570476692783998  0.8370083206335365  0.5192356960653939  1.0000
  C   C14       1.0  0.757054337612722  0.1629764168755372  0.48075642387841105  1.0000
  C   C15       1.0  0.49201256426837153  0.6583205866374868  0.7621392089463088  1.0000
  C   C16       1.0  0.992035287073641  0.3416855745288673  0.23786581642994525  1.0000
  C   C17       1.0  0.9100612549103816  0.856403295218044  0.0002373604025791926  1.0000
  C   C18       1.0  0.4100700167621484  0.1435948995720366  0.9997617885274013  1.0000
  C   C19       1.0  0.7455739643286776  0.7239433485190503  0.9378981094023974  1.0000
  C   C20       1.0  0.24558730084328326  0.27605745364581946  0.06210430718012823  1.0000
  C   C21       1.0  0.8422416091729944  0.5560165536182992  0.9289484747729092  1.0000
  C   C22       1.0  0.342259535175323  0.44398343677717383  0.07105243982869072  1.0000
  N   N1        1.0  0.6946500073975346  0.7475925107232869  0.8189953340536535  1.0000
  N   N2        1.0  0.19466655641516445  0.2524099835997617  0.18100974699819267  1.0000
  O   O1        1.0  0.507464361267047  0.7752867835061109  0.22688903223134832  1.0000
  O   O2        1.0  0.007462187615829002  0.2247108991042097  0.7731077489601648  1.0000
  O   O3        1.0  0.2746217103097095  0.9687444421465448  0.325776709146048  1.0000
  O   O4        1.0  0.7746248871775309  0.03124628927853481  0.6742190236971768  1.0000
  O   O5        1.0  0.9473075751064286  0.9771043070964255  0.9568977719169071  1.0000
  O   O6        1.0  0.44730321339107354  0.0228897702366169  0.04309484285487741  1.0000
  O   O7        1.0  0.0018150463593187003  0.8391988115413229  0.09462683826802025  1.0000
  O   O8        1.0  0.5018289219480679  0.16080257102901643  0.9053713855735809  1.0000
  O   O9        1.0  0.0303396475339568  0.537387241274807  0.8510022349689169  1.0000
  O   O10       1.0  0.5303538589105159  0.46261642223895905  0.14899903167575707  1.0000
