data_image0
_chemical_formula_structural       K2As2H46C20N6
_chemical_formula_sum              "K2 As2 H46 C20 N6"
_cell_length_a       5.846505046212208
_cell_length_b       10.443960930530201
_cell_length_c       11.356667609556657
_cell_angle_alpha    94.4125220546866
_cell_angle_beta     101.36281730717451
_cell_angle_gamma    97.24220822230637

_space_group_name_H-M_alt    "P 1"
_space_group_IT_number       1

loop_
  _space_group_symop_operation_xyz
  'x, y, z'

loop_
  _atom_site_type_symbol
  _atom_site_label
  _atom_site_symmetry_multiplicity
  _atom_site_fract_x
  _atom_site_fract_y
  _atom_site_fract_z
  _atom_site_occupancy
  K   K1        1.0  0.7490867415570507  0.05249016135895349  0.9106551533009436  1.0000
  K   K2        1.0  0.25095272289211573  0.9475148456647418  0.0893636746339084  1.0000
  As  As1       1.0  0.19683194718469818  0.1323581025383334  0.7620682332256337  1.0000
  As  As2       1.0  0.8031686285380885  0.8676398129442192  0.2379333531639247  1.0000
  H   H1        1.0  0.3006456810086248  0.8012299743321164  0.7862625138398657  1.0000
  H   H2        1.0  0.6993523794258891  0.198778429611167  0.21373314369621707  1.0000
  H   H3        1.0  0.9680433684086084  0.7899433501042594  0.9014638482850045  1.0000
  H   H4        1.0  0.03196948398560549  0.21003595753866475  0.09853453596653589  1.0000
  H   H5        1.0  0.7874495069016588  0.836361111925129  0.7714677419504739  1.0000
  H   H6        1.0  0.2125405811257224  0.1636294180926186  0.22854308116495758  1.0000
  H   H7        1.0  0.03448539901118147  0.5946154842306796  0.7799173518112568  1.0000
  H   H8        1.0  0.9655448773327816  0.40538451936621556  0.2200651335491983  1.0000
  H   H9        1.0  0.7310946396160104  0.5960275355501707  0.7740407989424085  1.0000
  H   H10       1.0  0.2689326615362119  0.40395434608051056  0.22595026870171608  1.0000
  H   H11       1.0  0.8151557534462767  0.5364906434752328  0.5682349267370697  1.0000
  H   H12       1.0  0.18486299769724468  0.46351148687963223  0.43175096278117303  1.0000
  H   H13       1.0  0.6783354050788049  0.6775368247327265  0.5737639872270819  1.0000
  H   H14       1.0  0.3216574747162468  0.3224530042977278  0.4262259260594377  1.0000
  H   H15       1.0  0.009077894136140697  0.715462606158539  0.4683213550936003  1.0000
  H   H16       1.0  0.9908980333023932  0.2845611818758016  0.5316658471683979  1.0000
  H   H17       1.0  0.20709798012962471  0.6695606226322611  0.591344868981956  1.0000
  H   H18       1.0  0.7929033364241747  0.3304549331756093  0.4086329235389954  1.0000
  H   H19       1.0  0.24437437532938583  0.9095978206889299  0.5946147318014283  1.0000
  H   H20       1.0  0.755597915281328  0.09041773062778449  0.4053867258483095  1.0000
  H   H21       1.0  0.9436920401765859  0.9060793327629565  0.5981629600200051  1.0000
  H   H22       1.0  0.05628149516972059  0.09392761901826668  0.4018426295149808  1.0000
  H   H23       1.0  0.9915648564280345  0.3586391086894309  0.8015956591705375  1.0000
  H   H24       1.0  0.008435264889229197  0.6413696047289861  0.1984098996402679  1.0000
  H   H25       1.0  0.2734826111011301  0.44783881077680837  0.8691614327075782  1.0000
  H   H26       1.0  0.7265256395718962  0.5521611923747898  0.13084626565730417  1.0000
  H   H27       1.0  0.06323651219190653  0.4089831355127345  0.9593881095608482  1.0000
  H   H28       1.0  0.9367727408813309  0.5910206905537193  0.040618096382957  1.0000
  H   H29       1.0  0.47308349101240305  0.17120283808871048  0.02541057717034079  1.0000
  H   H30       1.0  0.5268903861833536  0.8287865190635129  0.9745907197053185  1.0000
  H   H31       1.0  0.4034097065392571  0.3220903631618128  0.07873743449427908  1.0000
  H   H32       1.0  0.5965831026547191  0.6779046667415969  0.9212632808096045  1.0000
  H   H33       1.0  0.5851169963713829  0.31769970404277353  0.9707071699785601  1.0000
  H   H34       1.0  0.4148751990664152  0.6822866177100764  0.029293971297768503  1.0000
  H   H35       1.0  0.5515868571005598  0.3941783541786279  0.7922689989956738  1.0000
  H   H36       1.0  0.44842095329426007  0.60581311298818  0.2077444356518825  1.0000
  H   H37       1.0  0.3712924526479781  0.34903322018926275  0.6451150328335373  1.0000
  H   H38       1.0  0.628706084521795  0.650956308942078  0.3548965493912277  1.0000
  H   H39       1.0  0.6818640041972868  0.3578244279669888  0.6672663473357261  1.0000
  H   H40       1.0  0.31814073497907464  0.6421688768985804  0.3327433545342161  1.0000
  H   H41       1.0  0.5622428546763416  0.013725760085051797  0.6493421539758657  1.0000
  H   H42       1.0  0.4377655003503449  0.9862697827151052  0.3506477313786077  1.0000
  H   H43       1.0  0.7290698193598075  0.150701595887476  0.6090642925991573  1.0000
  H   H44       1.0  0.270936031676932  0.8493090105020328  0.3909410171190615  1.0000
  H   H45       1.0  0.4195422882818248  0.11430267385086518  0.5471342690159489  1.0000
  H   H46       1.0  0.5804664236468966  0.8857118640685685  0.4528732541939888  1.0000
  C   C1        1.0  0.15690686834228978  0.8619095251049771  0.7656991047785128  1.0000
  C   C2        1.0  0.8430832792547635  0.138088456044521  0.23430237242684632  1.0000
  C   C3        1.0  0.9417625232776387  0.7868475305900515  0.802482617587529  1.0000
  C   C4        1.0  0.058244058252583414  0.21314059593474616  0.1975173330227307  1.0000
  C   C5        1.0  0.8852549618660033  0.645933216927851  0.7456870782923134  1.0000
  C   C6        1.0  0.1147481357283198  0.3540623156643363  0.25430142489251045  1.0000
  C   C7        1.0  0.8425031075067861  0.6381894338861044  0.60797936294518  1.0000
  C   C8        1.0  0.15749706343405018  0.3618080798763188  0.3920098327205324  1.0000
  C   C9        1.0  0.047147946444653026  0.7162373363147978  0.567325920441256  1.0000
  C   C10       1.0  0.9528351337665129  0.2837806291481256  0.432662578878876  1.0000
  C   C11       1.0  0.09849895660069308  0.8564770963529966  0.6267941097969327  1.0000
  C   C12       1.0  0.9014913582825057  0.14353442079418247  0.37320623778118994  1.0000
  C   C13       1.0  0.13373576545507856  0.3714202532407995  0.8822666721057502  1.0000
  C   C14       1.0  0.8662682880117883  0.6285836200062747  0.11773992177180757  1.0000
  C   C15       1.0  0.4297543083725016  0.26523096940010754  0.9979698104937639  1.0000
  C   C16       1.0  0.5702328000149919  0.7347621962264981  0.0020320389544111004  1.0000
  C   C17       1.0  0.5302519100122537  0.3294319915156406  0.7087472983908754  1.0000
  C   C18       1.0  0.469760333732282  0.670556546937256  0.2912664251128874  1.0000
  C   C19       1.0  0.5577114095930681  0.11519409582217581  0.6300600342183671  1.0000
  C   C20       1.0  0.4422947144357181  0.8848115105544494  0.3699406688444071  1.0000
  N   N1        1.0  0.23607549111112994  0.9884362204708879  0.8382388837799796  1.0000
  N   N2        1.0  0.7638911097245183  0.011564814564316404  0.161762251906751  1.0000
  N   N3        1.0  0.21594429911892382  0.24784622213635998  0.9047684406312015  1.0000
  N   N4        1.0  0.7840411211588644  0.7521536889568948  0.0952317932456666  1.0000
  N   N5        1.0  0.5219646525609037  0.19437613044541283  0.7348782963968077  1.0000
  N   N6        1.0  0.47804584524793364  0.805619096085543  0.2651320414322456  1.0000
