data_image0
_chemical_formula_structural       Cd2H16C12S4Br4N8O4
_chemical_formula_sum              "Cd2 H16 C12 S4 Br4 N8 O4"
_cell_length_a       7.771001799366145
_cell_length_b       7.875230729395436
_cell_length_c       10.894136954357377
_cell_angle_alpha    92.90438695087535
_cell_angle_beta     90.00067371436312
_cell_angle_gamma    90.00073542194629

_space_group_name_H-M_alt    "P 1"
_space_group_IT_number       1

loop_
  _space_group_symop_operation_xyz
  'x, y, z'

loop_
  _atom_site_type_symbol
  _atom_site_label
  _atom_site_symmetry_multiplicity
  _atom_site_fract_x
  _atom_site_fract_y
  _atom_site_fract_z
  _atom_site_occupancy
  Cd  Cd1       1.0  0.9999968149230226  0.9999912719839159  3.003797473907891e-06  1.0000
  Cd  Cd2       1.0  0.5000080586756752  0.499988650451222  2.9963958070856144e-07  1.0000
  H   H1        1.0  0.3667820204637451  0.08737002955770382  0.868071982267999  1.0000
  H   H2        1.0  0.8667720239960631  0.4126538166396542  0.13193744452626532  1.0000
  H   H3        1.0  0.6332388806264858  0.9126283269654039  0.1319365370581309  1.0000
  H   H4        1.0  0.1332282878144539  0.5873623683098189  0.8680681286976651  1.0000
  H   H5        1.0  0.618190140160209  0.8905463367462474  0.7834622111747008  1.0000
  H   H6        1.0  0.11817022803420227  0.6094683084452583  0.21654237263954462  1.0000
  H   H7        1.0  0.381823039685166  0.10942922760693821  0.2165334470881888  1.0000
  H   H8        1.0  0.8818172154670876  0.39055806929990666  0.783460861629756  1.0000
  H   H9        1.0  0.6121596894828158  0.08279623300700929  0.7023043934980394  1.0000
  H   H10       1.0  0.11215627949650299  0.4172240405889838  0.297696112136741  1.0000
  H   H11       1.0  0.3878547773242999  0.9171907166370373  0.29769907175457894  1.0000
  H   H12       1.0  0.8878453190367279  0.582793545096152  0.7022929952009704  1.0000
  H   H13       1.0  0.2182549778766827  0.8090476286196163  0.5555357875065569  1.0000
  H   H14       1.0  0.71825590372206  0.6909595334064066  0.4444703333273453  1.0000
  H   H15       1.0  0.7817311787608858  0.1909710990630629  0.4444698891604375  1.0000
  H   H16       1.0  0.28173926060184573  0.3090465663771553  0.5555238140555476  1.0000
  C   C1        1.0  0.5373679329372579  0.9704989362443114  0.7261040417707889  1.0000
  C   C2        1.0  0.03737234665193509  0.5295221301591582  0.2739074010697991  1.0000
  C   C3        1.0  0.46263237867419343  0.029494420670850695  0.2738932586635343  1.0000
  C   C4        1.0  0.9626331124651697  0.47049281214543015  0.7260944498345197  1.0000
  C   C5        1.0  0.24009471216670164  0.9577344614559139  0.7237802262583274  1.0000
  C   C6        1.0  0.7400926487617383  0.5422846120966726  0.27620638636177125  1.0000
  C   C7        1.0  0.7599004522701591  0.0422830379770787  0.2762198928136783  1.0000
  C   C8        1.0  0.2599038024001318  0.4577176447097245  0.7237912763473204  1.0000
  C   C9        1.0  0.47578112500522  0.8715700691002368  0.6116998795505212  1.0000
  C   C10       1.0  0.9757624517077444  0.6284484430116988  0.38830173669352774  1.0000
  C   C11       1.0  0.5242204734379214  0.12843865258551546  0.3882842772577178  1.0000
  C   C12       1.0  0.024233999599253795  0.3715638989239877  0.611707351831356  1.0000
  S   S1        1.0  0.029434970264432498  0.9762352219165181  0.7569475751011653  1.0000
  S   S2        1.0  0.5294334816706439  0.5237679820191657  0.24305664177634875  1.0000
  S   S3        1.0  0.9705524732566885  0.023778333901127307  0.24306890631302022  1.0000
  S   S4        1.0  0.4705719773790946  0.4762342317481299  0.7569465268598493  1.0000
  Br  Br1       1.0  0.23073792054802308  0.26984658882891216  0.03672946857437861  1.0000
  Br  Br2       1.0  0.7307096364081289  0.23011439407289908  0.9632632922757268  1.0000
  Br  Br3       1.0  0.7692881275434686  0.7301162901817052  0.9632620016005831  1.0000
  Br  Br4       1.0  0.26927394602336113  0.7698434636225572  0.036719711841591604  1.0000
  N   N1        1.0  0.3765545121277966  0.017652299180554092  0.7863967490023498  1.0000
  N   N2        1.0  0.8765581430467506  0.4823564578952143  0.21360848205632985  1.0000
  N   N3        1.0  0.6234522337679846  0.9823473430265324  0.21360998671629264  1.0000
  N   N4        1.0  0.12344602911792175  0.5176432489483319  0.7863899948252993  1.0000
  N   N5        1.0  0.29898414592028644  0.8711239897659624  0.6183194439659588  1.0000
  N   N6        1.0  0.7989731014826802  0.6288716569604915  0.38168052761173504  1.0000
  N   N7        1.0  0.701011018411549  0.12887698124659863  0.38168000227489074  1.0000
  N   N8        1.0  0.20101820237946547  0.3711382354948896  0.6183165279624206  1.0000
  O   O1        1.0  0.5619028474202138  0.8047880539474406  0.5277753022659297  1.0000
  O   O2        1.0  0.0619070384010243  0.6952079978691188  0.4722270872941721  1.0000
  O   O3        1.0  0.4380820221344379  0.19520021719004182  0.4722217910676889  1.0000
  O   O4        1.0  0.938082978532627  0.3047776730001601  0.5277772437294389  1.0000
