data_image0
_chemical_formula_structural       Cd2H32C12N12O16
_chemical_formula_sum              "Cd2 H32 C12 N12 O16"
_cell_length_a       7.460340796004929
_cell_length_b       7.460341576621042
_cell_length_c       12.921367903782233
_cell_angle_alpha    100.65484352478543
_cell_angle_beta     100.65482862410185
_cell_angle_gamma    108.51196566345244

_space_group_name_H-M_alt    "P 1"
_space_group_IT_number       1

loop_
  _space_group_symop_operation_xyz
  'x, y, z'

loop_
  _atom_site_type_symbol
  _atom_site_label
  _atom_site_symmetry_multiplicity
  _atom_site_fract_x
  _atom_site_fract_y
  _atom_site_fract_z
  _atom_site_occupancy
  Cd  Cd1       1.0  0.9999984578119765  0.49999886329396065  0.5000003707810095  1.0000
  Cd  Cd2       1.0  0.4999954140144923  0.9999991405130121  0.999999104292307  1.0000
  H   H1        1.0  0.19880980999786863  0.32313261546953953  0.3552147575216082  1.0000
  H   H2        1.0  0.6768732133063294  0.8011929084078703  0.14478407741686541  1.0000
  H   H3        1.0  0.8011945075008385  0.6768729420616926  0.644784760386635  1.0000
  H   H4        1.0  0.3231341911902916  0.19880978227468663  0.8552123688295835  1.0000
  H   H5        1.0  0.4144238170482808  0.4502299218425066  0.5566391446143156  1.0000
  H   H6        1.0  0.5497678573403206  0.5855798758721136  0.9433623249396346  1.0000
  H   H7        1.0  0.5855797193788063  0.5497697440998905  0.4433627386906593  1.0000
  H   H8        1.0  0.4502312869915102  0.41442271125554714  0.056637849486925504  1.0000
  H   H9        1.0  0.4642763267900206  0.7091003214196122  0.5892395664398791  1.0000
  H   H10       1.0  0.2908946145275166  0.5357222017464167  0.9107587204094472  1.0000
  H   H11       1.0  0.5357202149446678  0.2908949742567302  0.4107572032070763  1.0000
  H   H12       1.0  0.7091029498354262  0.46427599210012  0.08924080021026275  1.0000
  H   H13       1.0  0.09123577510229099  0.339709904043886  0.7320843314092186  1.0000
  H   H14       1.0  0.6602882796923238  0.9087656772034478  0.7679154051647075  1.0000
  H   H15       1.0  0.908767244896616  0.6602883076994318  0.2679165622596287  1.0000
  H   H16       1.0  0.33970761527928767  0.09123544166276791  0.23208347895140946  1.0000
  H   H17       1.0  0.20090451287703812  0.24027146955113923  0.6345399544995161  1.0000
  H   H18       1.0  0.7597240952914247  0.7990982778239797  0.865461174194671  1.0000
  H   H19       1.0  0.799096916924867  0.7597223386830902  0.365461057062994  1.0000
  H   H20       1.0  0.24027283253655443  0.20090574944039474  0.1345396891936943  1.0000
  H   H21       1.0  0.15452867419396193  0.6873516300839525  0.7798148672111864  1.0000
  H   H22       1.0  0.31264341091283393  0.84546600460704  0.720181483368357  1.0000
  H   H23       1.0  0.8454673306563122  0.31264219093738194  0.2201824562006607  1.0000
  H   H24       1.0  0.6873517643558316  0.15452928403811944  0.2798151359414334  1.0000
  H   H25       1.0  0.548944383431973  0.30645600515637034  0.6836088143140273  1.0000
  H   H26       1.0  0.6935457449162143  0.45105988227047794  0.8163946796870931  1.0000
  H   H27       1.0  0.45106020630771576  0.6935465896401141  0.31639350486218376  1.0000
  H   H28       1.0  0.3064566487758427  0.5489441731186419  0.18360678504990346  1.0000
  H   H29       1.0  0.1161432778206901  0.16592683765865965  0.4220936807336385  1.0000
  H   H30       1.0  0.8340779749704196  0.8838604519011144  0.07790514811495093  1.0000
  H   H31       1.0  0.883859673211994  0.8340787128413895  0.5779056868374467  1.0000
  H   H32       1.0  0.1659272232504492  0.11614368914611363  0.9220912153927968  1.0000
  C   C1        1.0  0.4374714375742387  0.5795266530720938  0.6212054975065584  1.0000
  C   C2        1.0  0.4204717672356537  0.562530965077663  0.878795134982262  1.0000
  C   C3        1.0  0.5625288597207428  0.4204715548368157  0.3787943237874671  1.0000
  C   C4        1.0  0.5795268402117699  0.43747014739499696  0.12120559320919003  1.0000
  C   C5        1.0  0.22214791751250829  0.3658195529726954  0.701300175440032  1.0000
  C   C6        1.0  0.6341762927539135  0.7778537023191421  0.7987000896824625  1.0000
  C   C7        1.0  0.7778523593262461  0.6341786344802857  0.2987011892550129  1.0000
  C   C8        1.0  0.3658182255235616  0.22214739928792682  0.2012994157970027  1.0000
  C   C9        1.0  0.2864252984197719  0.7135677243906927  0.7499999051163967  1.0000
  C   C10       1.0  0.7135660292355935  0.2864245599702286  0.2500006078509003  1.0000
  C   C11       1.0  0.5686187382909225  0.4313852344499765  0.7500018565357108  1.0000
  C   C12       1.0  0.43138365540113455  0.5686188209391362  0.24999960820129266  1.0000
  N   N1        1.0  0.2555067134777858  0.5433873349304008  0.6589623346409255  1.0000
  N   N2        1.0  0.4566040994143563  0.7444906596537919  0.8410369935635698  1.0000
  N   N3        1.0  0.7444901004978776  0.45660499801119403  0.3410372362739835  1.0000
  N   N4        1.0  0.5433885359689158  0.2555089807230146  0.15896137194261684  1.0000
  N   N5        1.0  0.6073773115687474  0.6093428203885978  0.7095576922670475  1.0000
  N   N6        1.0  0.39065743849102574  0.39262112367048735  0.7904426967558393  1.0000
  N   N7        1.0  0.39261941298447317  0.39065683085379993  0.290441895951119  1.0000
  N   N8        1.0  0.6093447519262654  0.6073785556966484  0.20955749281095848  1.0000
  N   N9        1.0  0.7421372084024969  0.11376396444634203  0.5700260703461808  1.0000
  N   N10       1.0  0.886238628849064  0.2578620997680332  0.9299769445297983  1.0000
  N   N11       1.0  0.2578632717110169  0.8862385990286231  0.4299765695190629  1.0000
  N   N12       1.0  0.1137627013022922  0.7421390165390351  0.0700248560364756  1.0000
  O   O1        1.0  0.09576926905961611  0.2755260317347776  0.3947843240033251  1.0000
  O   O2        1.0  0.7244760438425573  0.9042305176102305  0.10521300942672708  1.0000
  O   O3        1.0  0.9042304326128485  0.7244780505038192  0.6052137532573167  1.0000
  O   O4        1.0  0.2755229585831814  0.09576775486323189  0.8947812596265832  1.0000
  O   O5        1.0  0.762931245949325  0.2904515749176682  0.5666766161892909  1.0000
  O   O6        1.0  0.7095504111617571  0.23706405240482556  0.9333235831379199  1.0000
  O   O7        1.0  0.23706327232815028  0.7095495266894004  0.4333228892901744  1.0000
  O   O8        1.0  0.2904507259429466  0.7629326981082232  0.06667617055764911  1.0000
  O   O9        1.0  0.8407414862540534  0.030023242825969004  0.5241114073581059  1.0000
  O   O10       1.0  0.9699860588516173  0.1592710039548706  0.975895318914361  1.0000
  O   O11       1.0  0.1592700981780411  0.9699837222365703  0.47589602547612486  1.0000
  O   O12       1.0  0.030023543035717606  0.840741807950238  0.024111762950347795  1.0000
  O   O13       1.0  0.6252928097247902  0.0302381754296803  0.6195739047550005  1.0000
  O   O14       1.0  0.9697593993185832  0.37470587300802555  0.8804246251424743  1.0000
  O   O15       1.0  0.37470476486625875  0.9697600286448209  0.380424844164196  1.0000
  O   O16       1.0  0.0302387121568728  0.6252938057214834  0.11957357001183058  1.0000
