data_image0
_chemical_formula_structural       Mn4P4H48C28N4O20
_chemical_formula_sum              "Mn4 P4 H48 C28 N4 O20"
_cell_length_a       9.02421593700809
_cell_length_b       10.239402232403878
_cell_length_c       11.106715979592645
_cell_angle_alpha    107.44107938591543
_cell_angle_beta     89.99997754008021
_cell_angle_gamma    90.00015160480541

_space_group_name_H-M_alt    "P 1"
_space_group_IT_number       1

loop_
  _space_group_symop_operation_xyz
  'x, y, z'

loop_
  _atom_site_type_symbol
  _atom_site_label
  _atom_site_symmetry_multiplicity
  _atom_site_fract_x
  _atom_site_fract_y
  _atom_site_fract_z
  _atom_site_occupancy
  Mn  Mn1       1.0  0.8993244862511104  0.6420482159447758  0.1557972850663347  1.0000
  Mn  Mn2       1.0  0.6006750751746992  0.14204741571988674  0.1557975637140885  1.0000
  Mn  Mn3       1.0  0.10067500855333832  0.35795200584662  0.8442012234038003  1.0000
  Mn  Mn4       1.0  0.39932331150001926  0.8579528063901375  0.8442018452003663  1.0000
  P   P1        1.0  0.6888533132361871  0.8159897430774021  0.004189582584608288  1.0000
  P   P2        1.0  0.8111457353925006  0.3159894576625887  0.0041890359420975  1.0000
  P   P3        1.0  0.3111461815678283  0.18401047935395806  0.9958107267745646  1.0000
  P   P4        1.0  0.18885265128200499  0.6840107647674143  0.9958112734168836  1.0000
  H   H1        1.0  0.7430374010087137  0.8565106028272993  0.7595528472748397  1.0000
  H   H2        1.0  0.7569614056963232  0.3565112084785652  0.7595525638665633  1.0000
  H   H3        1.0  0.25696209379530194  0.14348961960406104  0.24044746208433307  1.0000
  H   H4        1.0  0.24303698097817517  0.6434890139514378  0.2404477454924105  1.0000
  H   H5        1.0  0.9519917810179879  0.8485569037626418  0.9649127486757719  1.0000
  H   H6        1.0  0.5480080110759928  0.34855699831678066  0.9649132910994639  1.0000
  H   H7        1.0  0.04800771378771169  0.15144434203131135  0.035086942821031586  1.0000
  H   H8        1.0  0.4519914837280227  0.6514432241145796  0.03508701825970919  1.0000
  H   H9        1.0  0.8398570479433972  0.9929066195748388  0.9654844031691991  1.0000
  H   H10       1.0  0.6601431773610074  0.4929059648980143  0.9654847030515086  1.0000
  H   H11       1.0  0.16014244686208912  0.0070946265390929965  0.0345161887721233  1.0000
  H   H12       1.0  0.33985631744175043  0.5070932335307886  0.03451442328099566  1.0000
  H   H13       1.0  0.9855911486575692  0.6657389185365046  0.7687295596593484  1.0000
  H   H14       1.0  0.5144070807357012  0.1657389308538839  0.7687300900852065  1.0000
  H   H15       1.0  0.0144083461466664  0.3342613035748698  0.23126984925530542  1.0000
  H   H16       1.0  0.485595738450975  0.8342571968512544  0.23126908894595033  1.0000
  H   H17       1.0  0.7922590683474908  0.6333794496599552  0.7695567915938355  1.0000
  H   H18       1.0  0.7077390634717772  0.13337993515975907  0.7695573910540503  1.0000
  H   H19       1.0  0.20774042645674481  0.36662077245142644  0.23044261732081847  1.0000
  H   H20       1.0  0.29226597197875753  0.8666192629558435  0.23044083483492261  1.0000
  H   H21       1.0  0.8923396990346364  0.541250782142491  0.5528093584586529  1.0000
  H   H22       1.0  0.6076593685845638  0.0412510226949152  0.5528099221825825  1.0000
  H   H23       1.0  0.10766090389910231  0.45874943997024065  0.4471900504561929  1.0000
  H   H24       1.0  0.3923412343479242  0.958748175415259  0.44718830370560164  1.0000
  H   H25       1.0  0.7618964288483311  0.6724364310342849  0.5598329349758513  1.0000
  H   H26       1.0  0.7381019212154455  0.1724369908472808  0.5598335452778967  1.0000
  H   H27       1.0  0.23810195782638746  0.32756379107573946  0.4401664739386035  1.0000
  H   H28       1.0  0.2618986817170422  0.8275622072629003  0.44016468061028746  1.0000
  H   H29       1.0  0.0997259346259654  0.7082743131282925  0.5656229747870825  1.0000
  H   H30       1.0  0.4002720700390157  0.20827424617249318  0.5656233604142074  1.0000
  H   H31       1.0  0.9002724520504443  0.291726932344325  0.43437581626501043  1.0000
  H   H32       1.0  0.5997274247635289  0.7917249525762954  0.4343766663628159  1.0000
  H   H33       1.0  0.852735707706266  0.9154984882331759  0.571580417351889  1.0000
  H   H34       1.0  0.6472633666266462  0.41549984939941703  0.5715812777996234  1.0000
  H   H35       1.0  0.14726267896845263  0.08450173387684859  0.4284189915625731  1.0000
  H   H36       1.0  0.35273612817862704  0.5845013970345005  0.42842021458622526  1.0000
  H   H37       1.0  0.0458689837614941  0.9497969589610022  0.5780268616413267  1.0000
  H   H38       1.0  0.454129740232794  0.4497970238216026  0.5780272664996388  1.0000
  H   H39       1.0  0.9541294029146951  0.050204286831593885  0.4219728298552852  1.0000
  H   H40       1.0  0.5458686464414912  0.5502031989283792  0.421973943303854  1.0000
  H   H41       1.0  0.9351847019341619  0.030559554826474787  0.7932086188331979  1.0000
  H   H42       1.0  0.564815325986757  0.5305595366556515  0.7932091211844677  1.0000
  H   H43       1.0  0.0648159009993634  0.9694406676062426  0.20679169052617397  1.0000
  H   H44       1.0  0.4351841688138905  0.4694386390505228  0.20679242389944355  1.0000
  H   H45       1.0  0.0683838336245657  0.898876662051897  0.7820215431249051  1.0000
  H   H46       1.0  0.4316157473881718  0.39887769549076063  0.7820222225259953  1.0000
  H   H47       1.0  0.9316167693077093  0.10112253637826997  0.21797758320779786  1.0000
  H   H48       1.0  0.5683848555451405  0.6011225272619356  0.2179789872778954  1.0000
  C   C1        1.0  0.846876887594469  0.880627622722528  0.9331479486734082  1.0000
  C   C2        1.0  0.6531230160986751  0.38062695054419027  0.9331473456045172  1.0000
  C   C3        1.0  0.15312260720933324  0.1193726000288109  0.0668532611302837  1.0000
  C   C4        1.0  0.3468764787024056  0.6193712245220196  0.06685239859035617  1.0000
  C   C5        1.0  0.8775895639086713  0.6879923094556231  0.7336677064809007  1.0000
  C   C6        1.0  0.6224087491891268  0.18799156210570087  0.7336670924449464  1.0000
  C   C7        1.0  0.1224099308968079  0.3120089366583088  0.2663328854604217  1.0000
  C   C8        1.0  0.3775940700004838  0.8120066129645804  0.26633265175051685  1.0000
  C   C9        1.0  0.8727924511431125  0.6516769940745704  0.5906649492514616  1.0000
  C   C10       1.0  0.6272069298671069  0.15167728214951376  0.5906646195107825  1.0000
  C   C11       1.0  0.12720704366090269  0.34832322835678997  0.40933536010771826  1.0000
  C   C12       1.0  0.3727947811946777  0.8483219162820036  0.40933450682211264  1.0000
  C   C13       1.0  0.9875604523437148  0.7341694446123126  0.5410704061372015  1.0000
  C   C14       1.0  0.5124380921371597  0.23416945211017992  0.5410709358599205  1.0000
  C   C15       1.0  0.012439042461991803  0.2658318011816334  0.45892928535960203  1.0000
  C   C16       1.0  0.48756140266854686  0.7658317936837732  0.45892875563688307  1.0000
  C   C17       1.0  0.9597953741109676  0.8873494106377816  0.6041774663478207  1.0000
  C   C18       1.0  0.540203599994996  0.3873484620889797  0.604176822958209  1.0000
  C   C19       1.0  0.04020301256647231  0.11265285915736459  0.39582340817545253  1.0000
  C   C20       1.0  0.4597958948075488  0.612650736659809  0.3958232038188072  1.0000
  C   C21       1.0  0.9606242728230896  0.9221292984164007  0.7470408901095738  1.0000
  C   C22       1.0  0.53937584508855  0.4221293715228284  0.747040529006341  1.0000
  C   C23       1.0  0.039375221982389505  0.07787194769753107  0.2529597018317488  1.0000
  C   C24       1.0  0.46062475784225404  0.5778688032247599  0.2529583147442054  1.0000
  C   C25       1.0  0.9774232612151078  0.6963494373056207  0.3980124299993264  1.0000
  C   C26       1.0  0.5225763466849002  0.19634946929570415  0.3980120628974788  1.0000
  C   C27       1.0  0.0225762335891275  0.3036507848057609  0.6019869789153276  1.0000
  C   C28       1.0  0.4774242562488453  0.8036507528170346  0.6019873460173741  1.0000
  N   N1        1.0  0.8479329055056369  0.8383536943266705  0.7920450492760196  1.0000
  N   N2        1.0  0.6520658310324449  0.33835404324485546  0.7920447284119944  1.0000
  N   N3        1.0  0.1520665892983786  0.16164652810468985  0.20795526008315326  1.0000
  N   N4        1.0  0.34793366377032  0.6616451551839474  0.20795439792050976  1.0000
  O   O1        1.0  0.7384829194643033  0.6968810763781048  0.0514302545257408  1.0000
  O   O2        1.0  0.7615146406075795  0.19688066917243666  0.05142878971687279  1.0000
  O   O3        1.0  0.2615154672099821  0.30311914637188403  0.9485709552777521  1.0000
  O   O4        1.0  0.23848596232594593  0.8031195532602805  0.9485715196424989  1.0000
  O   O5        1.0  0.635952476597872  0.9386522695699709  0.11245356653158467  1.0000
  O   O6        1.0  0.8640479964034428  0.43865108962976507  0.11245185575230465  1.0000
  O   O7        1.0  0.364048126336911  0.0613489768652968  0.887547925854463  1.0000
  O   O8        1.0  0.13595149839910903  0.5613481091190164  0.8875481710247185  1.0000
  O   O9        1.0  0.5753052068639164  0.7649497209372738  0.8971677184957443  1.0000
  O   O10       1.0  0.9246943667640438  0.2649486900708382  0.8971678302610684  1.0000
  O   O11       1.0  0.42469428794156977  0.23505152517666514  0.10283287344558538  1.0000
  O   O12       1.0  0.07530512803850088  0.7350505086779504  0.10283219651595488  1.0000
  O   O13       1.0  0.08051312012958081  0.6272150060112904  0.33008855777026  1.0000
  O   O14       1.0  0.41948586262091686  0.12721498608027554  0.3300889502580091  1.0000
  O   O15       1.0  0.9194852665451376  0.3727852160987268  0.6699108511441949  1.0000
  O   O16       1.0  0.5805136321845693  0.8727862600336561  0.6699116416833205  1.0000
  O   O17       1.0  0.8608713741070844  0.7331412610827142  0.3499723135302871  1.0000
  O   O18       1.0  0.6391283674069398  0.2331426020176507  0.3499722706285694  1.0000
  O   O19       1.0  0.1391281206954602  0.2668579376660744  0.650027713246736  1.0000
  O   O20       1.0  0.36087223552827646  0.7668586437776523  0.6500274208684402  1.0000
