data_image0
_chemical_formula_structural       Li4H28C64O24
_chemical_formula_sum              "Li4 H28 C64 O24"
_cell_length_a       8.129615414590399
_cell_length_b       10.641605057005137
_cell_length_c       14.595372285210509
_cell_angle_alpha    90.00002789077597
_cell_angle_beta     103.49047344896228
_cell_angle_gamma    90.00009991642706

_space_group_name_H-M_alt    "P 1"
_space_group_IT_number       1

loop_
  _space_group_symop_operation_xyz
  'x, y, z'

loop_
  _atom_site_type_symbol
  _atom_site_label
  _atom_site_symmetry_multiplicity
  _atom_site_fract_x
  _atom_site_fract_y
  _atom_site_fract_z
  _atom_site_occupancy
  Li  Li1       1.0  0.0732950561896715  0.9082814794552047  0.6291974844040028  1.0000
  Li  Li2       1.0  0.9267052445540287  0.40828142853274574  0.8708028021452208  1.0000
  Li  Li3       1.0  0.9267038298968944  0.09171811111313129  0.3708019210486313  1.0000
  Li  Li4       1.0  0.07329492670479712  0.5917181620367343  0.1291974443316803  1.0000
  H   H1        1.0  0.8670387354543863  0.8439494961343141  0.2970473726592999  1.0000
  H   H2        1.0  0.1329632180976645  0.34395109149372155  0.2029531594781915  1.0000
  H   H3        1.0  0.1329588858233919  0.1560500944331267  0.7029518794749592  1.0000
  H   H4        1.0  0.8670369531611614  0.6560484990757587  0.7970470869987096  1.0000
  H   H5        1.0  0.5570181488859943  0.36442684752122284  0.7302313253313172  1.0000
  H   H6        1.0  0.4429833245423822  0.8644256074862537  0.7697697722647234  1.0000
  H   H7        1.0  0.44298328718281976  0.6355736827570196  0.2697690744642784  1.0000
  H   H8        1.0  0.5570168467152357  0.13557304337535922  0.2302304742118579  1.0000
  H   H9        1.0  0.5201951284221451  0.13240637795877314  0.7466961692850447  1.0000
  H   H10       1.0  0.4798044647071934  0.632405175928369  0.7533039286880054  1.0000
  H   H11       1.0  0.4798050428390895  0.867595092026441  0.253304077192503  1.0000
  H   H12       1.0  0.5201944417428521  0.3675944146402087  0.24669616447052792  1.0000
  H   H13       1.0  0.5945887004577345  0.986829188634452  0.6285060452976481  1.0000
  H   H14       1.0  0.40540925177698744  0.48682844247331764  0.8714933006003703  1.0000
  H   H15       1.0  0.40540892082245245  0.013172281348722899  0.37149320683725756  1.0000
  H   H16       1.0  0.5945896546730581  0.5131711480952673  0.1285067925581629  1.0000
  H   H17       1.0  0.7032589137140591  0.0712643229425467  0.49612880722782654  1.0000
  H   H18       1.0  0.2967410755966995  0.5712645872995097  0.003871385195544999  1.0000
  H   H19       1.0  0.2967387075649271  0.9287362073327613  0.5038704449067524  1.0000
  H   H20       1.0  0.7032629104531622  0.4287359429807721  0.9961300089426998  1.0000
  H   H21       1.0  0.8811996157811635  0.4365870948256684  0.32751299712683135  1.0000
  H   H22       1.0  0.118802595748086  0.9365891151773622  0.1724882860395951  1.0000
  H   H23       1.0  0.11880055547766233  0.5634124957438116  0.6724872493500769  1.0000
  H   H24       1.0  0.8811988606829999  0.06341047539326182  0.8275128014615802  1.0000
  H   H25       1.0  0.7394739674807838  0.721838223196201  0.5655170673510099  1.0000
  H   H26       1.0  0.26052711984942795  0.22183826599121656  0.934483245072407  1.0000
  H   H27       1.0  0.26052620377924285  0.2781623070811463  0.43448317912621087  1.0000
  H   H28       1.0  0.7394743162181854  0.7781613245791592  0.06551715472286902  1.0000
  C   C1        1.0  0.6634856684840715  0.4850722072149978  0.59513686365392  1.0000
  C   C2        1.0  0.33651478849743915  0.985070916468068  0.904862099973755  1.0000
  C   C3        1.0  0.3365157675847499  0.5149283230632449  0.40486353614167575  1.0000
  C   C4        1.0  0.6634853420332334  0.014927734393054901  0.09513677109102048  1.0000
  C   C5        1.0  0.7393115618736487  0.5317409436553432  0.5182454251582911  1.0000
  C   C6        1.0  0.2606890582227948  0.0317391392258699  0.9817554450284618  1.0000
  C   C7        1.0  0.2606886297522664  0.468261466037987  0.4817555090254757  1.0000
  C   C8        1.0  0.7393123778448186  0.9682604513445057  0.018244954766814207  1.0000
  C   C9        1.0  0.781238211845178  0.44967814031117814  0.4513435042111027  1.0000
  C   C10       1.0  0.2187639925329918  0.9496783308933062  0.048656412491347105  1.0000
  C   C11       1.0  0.2187632038589626  0.5503214502589487  0.548656207878274  1.0000
  C   C12       1.0  0.7812374231711487  0.050321259676820815  0.9513432995980297  1.0000
  C   C13       1.0  0.7581774982116231  0.311979914263425  0.4583188918214843  1.0000
  C   C14       1.0  0.241823088166413  0.811981070610301  0.0416807774386143  1.0000
  C   C15       1.0  0.2418239378559903  0.6880196763069505  0.5416815079737916  1.0000
  C   C16       1.0  0.7581783479024083  0.1880194596679415  0.9583196223569813  1.0000
  C   C17       1.0  0.690603983284916  0.2647219872754292  0.5375133085411434  1.0000
  C   C18       1.0  0.30939594923302854  0.7647225787295895  0.9624868798775026  1.0000
  C   C19       1.0  0.30939492316512945  0.7352776032931557  0.4624867846173899  1.0000
  C   C20       1.0  0.6906067720068451  0.23527701184192296  0.03751436094204758  1.0000
  C   C21       1.0  0.6485169025350929  0.3474472845839429  0.6044876042356293  1.0000
  C   C22       1.0  0.35148195699655815  0.8474460074881521  0.895511799705389  1.0000
  C   C23       1.0  0.3514820039173614  0.6525541854003762  0.39551248892354357  1.0000
  C   C24       1.0  0.6485194790710552  0.15255358308222358  0.10448860008988702  1.0000
  C   C25       1.0  0.5881846279057186  0.2988455787486829  0.6794595713527444  1.0000
  C   C26       1.0  0.4118153921372496  0.7988452711684673  0.8205406403909451  1.0000
  C   C27       1.0  0.41181680816431054  0.701155891237434  0.3205408284431783  1.0000
  C   C28       1.0  0.5881847791227841  0.20115525910888007  0.17945960608628303  1.0000
  C   C29       1.0  0.5685534028920785  0.1696808428614816  0.688572680181629  1.0000
  C   C30       1.0  0.4314462858465191  0.6696805553161979  0.8114274432708726  1.0000
  C   C31       1.0  0.43144676836915613  0.8303206271237329  0.3114275662959116  1.0000
  C   C32       1.0  0.568553865050042  0.33031997496090065  0.18857211550045613  1.0000
  C   C33       1.0  0.6090776858423723  0.08806064106288859  0.6218940926336387  1.0000
  C   C34       1.0  0.39092179354238976  0.5880603445363378  0.878105975026969  1.0000
  C   C35       1.0  0.39092122061007484  0.9119408289214304  0.3781060005255341  1.0000
  C   C36       1.0  0.6090796425264243  0.411940185741905  0.12189442476862668  1.0000
  C   C37       1.0  0.6688736433249075  0.135070481360728  0.5467707736759593  1.0000
  C   C38       1.0  0.3311259362754413  0.6350701558454899  0.953228638412547  1.0000
  C   C39       1.0  0.33112524276407385  0.8649309886233425  0.45322863177731415  1.0000
  C   C40       1.0  0.6688767646009596  0.36492943472578077  0.04677191470110391  1.0000
  C   C41       1.0  0.845457933028122  0.4996311493688167  0.37848322674280865  1.0000
  C   C42       1.0  0.1545444198429209  0.9996322432360569  0.1215174118114746  1.0000
  C   C43       1.0  0.15454350304069212  0.5003693809094257  0.6215171730527942  1.0000
  C   C44       1.0  0.8454570365881651  0.00036734733456  0.8784836756897009  1.0000
  C   C45       1.0  0.8662807813306301  0.6298201674909477  0.3689670602935848  1.0000
  C   C46       1.0  0.13372441741123  0.1298217152175667  0.1310337854298496  1.0000
  C   C47       1.0  0.1337193899281957  0.3701794230785325  0.6310331861833163  1.0000
  C   C48       1.0  0.8662744686741348  0.8701769356429025  0.8689656200224645  1.0000
  C   C49       1.0  0.9337270816693889  0.6667403663688986  0.28454050801533975  1.0000
  C   C50       1.0  0.0662769469630504  0.16674188118894046  0.2154602096266913  1.0000
  C   C51       1.0  0.0662730895882362  0.33325828449271455  0.7154597384612416  1.0000
  C   C52       1.0  0.9337244891045627  0.8332577093814351  0.7845401901685846  1.0000
  C   C53       1.0  0.8504291046909814  0.8532535824495041  0.4442903478396971  1.0000
  C   C54       1.0  0.1495728523610467  0.35325416067217924  0.05570950295139449  1.0000
  C   C55       1.0  0.1495697813955843  0.14674600811883207  0.5557090576129298  1.0000
  C   C56       1.0  0.8504273188977791  0.6467454298973008  0.9442907435255066  1.0000
  C   C57       1.0  0.828051164592715  0.711739198682416  0.4378918061746618  1.0000
  C   C58       1.0  0.1719504702065748  0.21174075080615035  0.0621093232957222  1.0000
  C   C59       1.0  0.17194900666611096  0.28826039188706437  0.5621084403022465  1.0000
  C   C60       1.0  0.8280484769704088  0.7882588397629247  0.9378921452746168  1.0000
  C   C61       1.0  0.7667111594146689  0.6599763144805736  0.5116034375623784  1.0000
  C   C62       1.0  0.23329101368777574  0.15997729710124275  0.9883962981878156  1.0000
  C   C63       1.0  0.23328899148068422  0.34002327608865807  0.48839612120862336  1.0000
  C   C64       1.0  0.7667091575710501  0.8400222934682372  0.011603948289085479  1.0000
  O   O1        1.0  0.6097729084808352  0.5594012016863346  0.6465017329408626  1.0000
  O   O2        1.0  0.39022647702907426  0.0594004230894072  0.8534976274233799  1.0000
  O   O3        1.0  0.39022852758918714  0.4406002682997751  0.35349866685506026  1.0000
  O   O4        1.0  0.6097724294221721  0.9406001071870448  0.1465024657354732  1.0000
  O   O5        1.0  0.7979600648933882  0.23929633672293693  0.40029950813016046  1.0000
  O   O6        1.0  0.20203909060771966  0.7392974792206886  0.09970064583424691  1.0000
  O   O7        1.0  0.2020401267289103  0.7607032538467919  0.599701426052647  1.0000
  O   O8        1.0  0.7979623454586859  0.2607011716418199  0.9002997539607022  1.0000
  O   O9        1.0  0.002497917749856501  0.5846750437198551  0.24568301474701573  1.0000
  O   O10       1.0  0.9975046355786718  0.08467688790764778  0.25431749348060617  1.0000
  O   O11       1.0  0.9975009886989811  0.4153236071408628  0.7543170784111979  1.0000
  O   O12       1.0  0.0024942708713738037  0.9153227026609301  0.7456825996779273  1.0000
  O   O13       1.0  0.915812433000639  0.7815754639786547  0.2519361739755723  1.0000
  O   O14       1.0  0.0841906253722868  0.2815770247600611  0.2480644688442055  1.0000
  O   O15       1.0  0.08418643272124632  0.2184231868815658  0.7480625437708356  1.0000
  O   O16       1.0  0.9158095662488108  0.7184216261018008  0.7519364653382821  1.0000
  O   O17       1.0  0.8339485311730286  0.9182343447991883  0.3682294009530978  1.0000
  O   O18       1.0  0.16605234810663924  0.41823405675575737  0.1317710286431506  1.0000
  O   O19       1.0  0.16604906974247774  0.0817661854758711  0.6317691634755815  1.0000
  O   O20       1.0  0.8339478435144514  0.5817645941061045  0.8682299055393301  1.0000
  O   O21       1.0  0.8790275450403228  0.9006919613910181  0.5249133886676702  1.0000
  O   O22       1.0  0.12097400104394754  0.4006909056984611  0.9750870460117227  1.0000
  O   O23       1.0  0.120972605857439  0.0993095085939544  0.475086170103971  1.0000
  O   O24       1.0  0.8790249257695635  0.5993086848703654  0.024913734852709965  1.0000
