data_image0
_chemical_formula_structural       Zn4H53C97NO13
_chemical_formula_sum              "Zn4 H53 C97 N1 O13"
_cell_length_a       17.886312455378356
_cell_length_b       17.837361850359237
_cell_length_c       17.807920589691406
_cell_angle_alpha    65.12318830727239
_cell_angle_beta     68.79387841476722
_cell_angle_gamma    86.55122430578834

_space_group_name_H-M_alt    "P 1"
_space_group_IT_number       1

loop_
  _space_group_symop_operation_xyz
  'x, y, z'

loop_
  _atom_site_type_symbol
  _atom_site_label
  _atom_site_symmetry_multiplicity
  _atom_site_fract_x
  _atom_site_fract_y
  _atom_site_fract_z
  _atom_site_occupancy
  Zn  Zn1       1.0  0.5585365839387109  0.4431462427306059  0.5675327921298461  1.0000
  Zn  Zn2       1.0  0.3990165581004348  0.5315275378248926  0.5711547439607756  1.0000
  Zn  Zn3       1.0  0.4628175557098687  0.43549265159978756  0.450616578537499  1.0000
  Zn  Zn4       1.0  0.5625707343704178  0.6084251235483153  0.39505666284004787  1.0000
  H   H1        1.0  0.03951597712574542  0.7225824605265034  0.3827411748603494  1.0000
  H   H2        1.0  0.18111432102949016  0.5365172613188423  0.5045202024165008  1.0000
  H   H3        1.0  0.3224095185291703  0.9436342291326272  0.4021352061509089  1.0000
  H   H4        1.0  0.5348485712413193  0.5170553320244765  0.7854713541382595  1.0000
  H   H5        1.0  0.31410263316584525  0.3716639316795637  0.8655515293001911  1.0000
  H   H6        1.0  0.3313439270583202  0.3437536777575331  0.13720496227600887  1.0000
  H   H7        1.0  0.7078291366143503  0.6814153969320458  0.9589429101332244  1.0000
  H   H8        1.0  0.4718969131634908  0.4921610596946026  0.20456650228978643  1.0000
  H   H9        1.0  0.5762063704160596  0.5979245779847133  0.8140652669574919  1.0000
  H   H10       1.0  0.2863141360510468  0.3377514051654629  0.0249472487833131  1.0000
  H   H11       1.0  0.9216666759884403  0.7581857308039375  0.3405655045090015  1.0000
  H   H12       1.0  0.0709333179778255  0.23952951930527894  0.6608085977873657  1.0000
  H   H13       1.0  0.7866081266870141  0.7156841214617417  0.34924857445875546  1.0000
  H   H14       1.0  0.7968240082319511  0.4652983585482816  0.5228536072383747  1.0000
  H   H15       1.0  0.11728149391555583  0.6196339121594009  0.4544544389073195  1.0000
  H   H16       1.0  0.8589544054685521  0.38272091024329324  0.5807018821401255  1.0000
  H   H17       1.0  0.640448814507039  0.8972999982687497  0.41665345976613105  1.0000
  H   H18       1.0  0.7592362280649072  0.8283744800702807  0.4431106564938717  1.0000
  H   H19       1.0  0.740663537309608  0.683463603400142  0.5600017536806662  1.0000
  H   H20       1.0  0.6027012383964134  0.6078694926059143  0.649583340418573  1.0000
  H   H21       1.0  0.4837253683367068  0.6783348056231446  0.626178205357995  1.0000
  H   H22       1.0  0.422035696728429  0.079418210990994  0.26941839926074357  1.0000
  H   H23       1.0  0.5856458496721758  0.9085133931785098  0.6925440202813745  1.0000
  H   H24       1.0  0.3381683057708358  0.15903831961087897  0.18393851199292752  1.0000
  H   H25       1.0  0.21233548772537605  0.20946629536585706  0.2583467513906186  1.0000
  H   H26       1.0  0.1730065309235869  0.18189396136844493  0.4175218135022121  1.0000
  H   H27       1.0  0.2580122275859367  0.1029748309494352  0.5022494788886718  1.0000
  H   H28       1.0  0.7347069241914781  0.6247919268322165  0.752614411245851  1.0000
  H   H29       1.0  0.8258950810236813  0.7464968612101616  0.6237206343685101  1.0000
  H   H30       1.0  0.8156059858980031  0.8869278052128637  0.6226459755425038  1.0000
  H   H31       1.0  0.7139158408795013  0.9043247396523738  0.7518465240989087  1.0000
  H   H32       1.0  0.6225474086087035  0.7826526838003575  0.8803449447295364  1.0000
  H   H33       1.0  0.702840807753063  0.7866330500480816  0.02984637833137074  1.0000
  H   H34       1.0  0.34391692037709737  0.7980237695227506  0.4247319745703991  1.0000
  H   H35       1.0  0.8093428565826599  0.8433384207469744  0.05637340798904951  1.0000
  H   H36       1.0  0.8734787847756706  0.7480569996693517  0.15917271472645222  1.0000
  H   H37       1.0  0.8306380593963355  0.5958689676644584  0.23421119271304752  1.0000
  H   H38       1.0  0.724208586100666  0.5394531736442119  0.2074599234699832  1.0000
  H   H39       1.0  0.5331704052751078  0.3400021592844453  0.1867399870780488  1.0000
  H   H40       1.0  0.5088953179511009  0.2686464859701232  0.3478213370776189  1.0000
  H   H41       1.0  0.37682715961624785  0.2730388127020548  0.46028323417003486  1.0000
  H   H42       1.0  0.2702891658397563  0.3469972422310974  0.4097249315801292  1.0000
  H   H43       1.0  0.29492933811952343  0.4187205667984557  0.24760037174679883  1.0000
  H   H44       1.0  0.2670156422832406  0.3253814240891373  0.7041420460537253  1.0000
  H   H45       1.0  0.610829778033015  0.034867659360635614  0.7096086789563427  1.0000
  H   H46       1.0  0.35370568342580105  0.21849619160910558  0.7567903891232675  1.0000
  H   H47       1.0  0.3611682511120833  0.09178062946850932  0.7292384543884083  1.0000
  H   H48       1.0  0.2804481002630155  0.072853733739187  0.6490232828466134  1.0000
  H   H49       1.0  0.1946457013862073  0.18127880402911253  0.5942009015919112  1.0000
  H   H50       1.0  0.5977809593643784  0.18522995087901967  0.6727311396044087  1.0000
  H   H51       1.0  0.4799541783315462  0.19958268285783734  0.49744858179266066  1.0000
  H   H52       1.0  0.5374083729139798  0.8421935892453264  0.6221892101489672  1.0000
  H   H53       1.0  0.4213104105848799  0.14103292312453425  0.46357983907114425  1.0000
  C   C1        1.0  0.45566873058537993  0.710393615450997  0.4738993309624817  1.0000
  C   C2        1.0  0.9196994284147806  0.4027466682790647  0.5699892945103996  1.0000
  C   C3        1.0  0.9654885935026559  0.34305557619503463  0.6053245390696771  1.0000
  C   C4        1.0  0.5305589362350178  0.29044460214100104  0.5562338460253996  1.0000
  C   C5        1.0  0.04671839099880511  0.3652030199846906  0.5925034230957351  1.0000
  C   C6        1.0  0.0768162064974902  0.45118160617300174  0.5466639483495043  1.0000
  C   C7        1.0  0.09605986148358171  0.3047110721676419  0.6240323392201573  1.0000
  C   C8        1.0  0.17481651922845742  0.32580539909365314  0.6108959239647689  1.0000
  C   C9        1.0  0.1555006569642359  0.4718894191383357  0.5373432592651068  1.0000
  C   C10       1.0  0.5380584842590111  0.20026783991318106  0.5817610382452256  1.0000
  C   C11       1.0  0.4398460880049982  0.7942900807918251  0.47273803164206646  1.0000
  C   C12       1.0  0.8202842909798279  0.6709107022060721  0.38431941994793556  1.0000
  C   C13       1.0  0.5816875175825231  0.07098632512883542  0.6632606192141212  1.0000
  C   C14       1.0  0.574735673292814  0.15409194930308703  0.6431483448477947  1.0000
  C   C15       1.0  0.5077211731482763  0.1614325926439335  0.5439780480204206  1.0000
  C   C16       1.0  0.4475600851299505  0.46000465392899775  0.7232979849908575  1.0000
  C   C17       1.0  0.5127233790834111  0.0764852833048622  0.5643250137505121  1.0000
  C   C18       1.0  0.5518753118817159  0.0305744218277439  0.6244492258144092  1.0000
  C   C19       1.0  0.48008715244562694  0.0352858519572337  0.5261236460563552  1.0000
  C   C20       1.0  0.4940706490662663  0.9517607833209709  0.5412975307995042  1.0000
  C   C21       1.0  0.5315924503912512  0.907843664437671  0.6039014425322052  1.0000
  C   C22       1.0  0.5584417974232494  0.9449762486180903  0.6443492802269901  1.0000
  C   C23       1.0  0.826630562764592  0.5284455820636325  0.4828740681675612  1.0000
  C   C24       1.0  0.4321588309086692  0.07714212899698943  0.47554106712465927  1.0000
  C   C25       1.0  0.39637092653418193  0.038942585622635306  0.4424967425479593  1.0000
  C   C26       1.0  0.409529029111198  0.9546114492612361  0.45632277992844184  1.0000
  C   C27       1.0  0.4641805507348168  0.9126692926177499  0.49897985838675396  1.0000
  C   C28       1.0  0.5479698167539125  0.5571566082044441  0.2638437310420727  1.0000
  C   C29       1.0  0.36641790502621074  0.9121282582975855  0.43045133875516933  1.0000
  C   C30       1.0  0.3786498300479196  0.8318156757148221  0.44218055011636165  1.0000
  C   C31       1.0  0.48417264337423666  0.8334139418849418  0.4991902138508877  1.0000
  C   C32       1.0  0.5736221202937345  0.5716934034245897  0.16870307275357996  1.0000
  C   C33       1.0  0.42731069063964366  0.4458261259719692  0.8172872582537279  1.0000
  C   C34       1.0  0.9038025674212662  0.5493231500354484  0.47725336065544605  1.0000
  C   C35       1.0  0.6551045171242577  0.6402488090510587  0.013023654267492161  1.0000
  C   C36       1.0  0.6438020286879153  0.6247174085984002  0.09973759979021662  1.0000
  C   C37       1.0  0.5243682130478009  0.5313179769816686  0.14905292064378978  1.0000
  C   C38       1.0  0.5394175879372441  0.5400362315345292  0.06212498238461002  1.0000
  C   C39       1.0  0.6036005815444697  0.6019880256558423  0.991619776584727  1.0000
  C   C40       1.0  0.28911259700586106  0.44164634110900647  0.5439875449334861  1.0000
  C   C41       1.0  0.49245066156755274  0.49182886213904464  0.04249550839644206  1.0000
  C   C42       1.0  0.5085213582782089  0.5123646041990638  0.9512984512354451  1.0000
  C   C43       1.0  0.5687838057594093  0.5785353746699755  0.8833280344004422  1.0000
  C   C44       1.0  0.6152578984963455  0.6232693444342631  0.9005384130150063  1.0000
  C   C45       1.0  0.937641743601276  0.6343456755103178  0.4256799751645205  1.0000
  C   C46       1.0  0.42958677852475097  0.42525629337871623  0.10987205072529352  1.0000
  C   C47       1.0  0.3795512957477953  0.3925066467513147  0.08515177351245035  1.0000
  C   C48       1.0  0.3917761338539236  0.4144865064296468  0.9949671375506457  1.0000
  C   C49       1.0  0.46090678749240505  0.4701511291449449  0.9268735507119247  1.0000
  C   C50       1.0  0.3394682081707289  0.3791999532224113  0.9718483217700538  1.0000
  C   C51       1.0  0.3550258221228475  0.3968013350096841  0.8841887246470036  1.0000
  C   C52       1.0  0.7031079976507045  0.562237441058187  0.44762115320192924  1.0000
  C   C53       1.0  0.47931397821896143  0.4808499769225208  0.8387180658557867  1.0000
  C   C54       1.0  0.7855147659951813  0.5874899139160306  0.43744860492378  1.0000
  C   C55       1.0  0.20392622426384577  0.4118097534891377  0.5665112467576777  1.0000
  C   C56       1.0  0.9501686157685756  0.4881582583174052  0.5197916559978494  1.0000
  C   C57       1.0  0.8945854582753796  0.6937041059303798  0.379897360077912  1.0000
  C   C58       1.0  0.5539698907372284  0.7926076901073459  0.5195919458105179  1.0000
  C   C59       1.0  0.6322877453608415  0.8341621854875428  0.4684875357719136  1.0000
  C   C60       1.0  0.6988100683625477  0.7953196646444668  0.4833921409079025  1.0000
  C   C61       1.0  0.6885016451337265  0.7139977626656986  0.5489795589104389  1.0000
  C   C62       1.0  0.6111312136391618  0.6719200761272077  0.5995996170756471  1.0000
  C   C63       1.0  0.5442421106786953  0.7110079878033346  0.5854883887995257  1.0000
  C   C64       1.0  0.34537091442531676  0.085454861199338  0.39187311996023066  1.0000
  C   C65       1.0  0.36718981749447727  0.10168749356969191  0.3018833562277266  1.0000
  C   C66       1.0  0.31995489888179673  0.14641013009840262  0.2539735647503036  1.0000
  C   C67       1.0  0.028380016848004216  0.5132023411356104  0.5097146637795831  1.0000
  C   C68       1.0  0.24976499998089  0.17511552779757983  0.29545550484382227  1.0000
  C   C69       1.0  0.22762274614674288  0.1595556857710037  0.38475881461126704  1.0000
  C   C70       1.0  0.2752567048082213  0.1153274947961336  0.43243676237725737  1.0000
  C   C71       1.0  0.6722839035869941  0.6951347860757696  0.825401250740782  1.0000
  C   C72       1.0  0.7298878762506646  0.6862724244921311  0.7521135953491296  1.0000
  C   C73       1.0  0.7811900835301202  0.7547511216280328  0.6797918149094999  1.0000
  C   C74       1.0  0.7756234752837802  0.8333975242851964  0.6791778726359963  1.0000
  C   C75       1.0  0.7185645298695108  0.8430735070935641  0.7517688962821868  1.0000
  C   C76       1.0  0.6675307833741969  0.7746518325285126  0.8242337901783328  1.0000
  C   C77       1.0  0.7059981739122352  0.6592468815717327  0.11701807352154261  1.0000
  C   C78       1.0  0.0582015997116727  0.599262488917887  0.4609668738679816  1.0000
  C   C79       1.0  0.7313887526941514  0.7447221686457796  0.0741020454853824  1.0000
  C   C80       1.0  0.7910642584592369  0.7765799730892199  0.08939937707105385  1.0000
  C   C81       1.0  0.826870896414363  0.7233186582662302  0.147085281156208  1.0000
  C   C82       1.0  0.802711560559118  0.6379055995349461  0.18934830259497204  1.0000
  C   C83       1.0  0.7427733947613647  0.6062144974983923  0.17455029670164635  1.0000
  C   C84       1.0  0.415752446808618  0.38452190634625794  0.2064936597712475  1.0000
  C   C85       1.0  0.47533441973541823  0.34103598905702637  0.23572746058171393  1.0000
  C   C86       1.0  0.4613828817174976  0.3008739974986129  0.3263993196815207  1.0000
  C   C87       1.0  0.3877264371201862  0.30297884731629665  0.3892438305671604  1.0000
  C   C88       1.0  0.3276617210909409  0.34485387605288764  0.3608613968171782  1.0000
  C   C89       1.0  0.014765385285585391  0.657332884603541  0.4206416068880046  1.0000
  C   C90       1.0  0.34141549271053867  0.38505706078564134  0.2700878564721165  1.0000
  C   C91       1.0  0.22504892209170896  0.26096882151117035  0.6448739373627532  1.0000
  C   C92       1.0  0.2702755566484925  0.2704288022623444  0.6911357340931942  1.0000
  C   C93       1.0  0.31864376536064043  0.20987676548850231  0.7214925316838928  1.0000
  C   C94       1.0  0.32253153308499805  0.13862318371746346  0.7064617501121119  1.0000
  C   C95       1.0  0.27722278529766703  0.12811992879208137  0.661385497217246  1.0000
  C   C96       1.0  0.22873403340735624  0.1887268152289607  0.6310102277894813  1.0000
  C   C97       1.0  0.932041760280022  0.2581154859074246  0.6545058591316958  1.0000
  N   N1        1.0  0.9054326314293564  0.18822217261749336  0.6950031941204101  1.0000
  O   O1        1.0  0.4967284855783944  0.5064513395574082  0.4943964698499101  1.0000
  O   O2        1.0  0.2983107372417706  0.49772712612685427  0.5675484982744905  1.0000
  O   O3        1.0  0.6701970872310881  0.61644441934277  0.39922372198692824  1.0000
  O   O4        1.0  0.34435226966432003  0.4105787442345346  0.5009409087483832  1.0000
  O   O5        1.0  0.6724946097052256  0.48804230830025835  0.5045748960308815  1.0000
  O   O6        1.0  0.5219491461113038  0.46386065124454506  0.6759149599107628  1.0000
  O   O7        1.0  0.5691235750671031  0.6136609009649592  0.280659225713691  1.0000
  O   O8        1.0  0.40266730078850804  0.6510469555054145  0.5370601938287366  1.0000
  O   O9        1.0  0.5052465938239266  0.32825826647098927  0.4927005465099653  1.0000
  O   O10       1.0  0.5166996418524405  0.7064086865018099  0.41152391721763587  1.0000
  O   O11       1.0  0.5499448607244235  0.3234980071879506  0.5990916125123674  1.0000
  O   O12       1.0  0.3887076943838538  0.4673366260119849  0.6967328545855979  1.0000
  O   O13       1.0  0.5047846081874852  0.4883671943582187  0.3212580758019996  1.0000
