data_image0
_chemical_formula_structural       Al4H16C47S2O32
_chemical_formula_sum              "Al4 H16 C47 S2 O32"
_cell_length_a       6.675252629860882
_cell_length_b       20.600235959463646
_cell_length_c       22.770365410488616
_cell_angle_alpha    93.09967662329427
_cell_angle_beta     91.25442386927173
_cell_angle_gamma    90.17439505619562

_space_group_name_H-M_alt    "P 1"
_space_group_IT_number       1

loop_
  _space_group_symop_operation_xyz
  'x, y, z'

loop_
  _atom_site_type_symbol
  _atom_site_label
  _atom_site_symmetry_multiplicity
  _atom_site_fract_x
  _atom_site_fract_y
  _atom_site_fract_z
  _atom_site_occupancy
  Al  Al1       1.0  0.8708318157706144  0.4905187207478577  0.4907534994024515  1.0000
  Al  Al2       1.0  0.3720592599965896  0.49037790203994563  0.4907355361463031  1.0000
  Al  Al3       1.0  0.34699921242066256  0.0212129290512095  0.017640606175810092  1.0000
  Al  Al4       1.0  0.846899795268129  0.021753518545033004  0.0177781634621894  1.0000
  H   H1        1.0  0.36627904387719207  0.16990447214600832  0.767127718583836  1.0000
  H   H2        1.0  0.28843760117567285  0.7101585088444581  0.2878768389794643  1.0000
  H   H3        1.0  0.28618519170736073  0.7980104293480681  0.2162790611474675  1.0000
  H   H4        1.0  0.9317842993959998  0.7994990588852032  0.21943530844902162  1.0000
  H   H5        1.0  0.9338459341050862  0.7116915292851402  0.2910534518794562  1.0000
  H   H6        1.0  0.3574422793948955  0.6709000472937989  0.74038459500219  1.0000
  H   H7        1.0  0.33773453783274476  0.7549257395131904  0.823230596404947  1.0000
  H   H8        1.0  0.12549177778440418  0.8847467695387368  0.8358721508295512  1.0000
  H   H9        1.0  0.0945976494255945  0.8459068433912197  0.6832573249532243  1.0000
  H   H10       1.0  0.517014426943298  0.23860189204044252  0.5945455397835173  1.0000
  H   H11       1.0  0.9585585886405069  0.42735400881831986  0.6983331216941976  1.0000
  H   H12       1.0  0.7259150689584573  0.3047091037035727  0.9126356596065005  1.0000
  H   H13       1.0  0.6224434394336099  0.41142967074732445  0.5136443280326828  1.0000
  H   H14       1.0  0.1239211513515315  0.5717448325114703  0.5142902259048296  1.0000
  H   H15       1.0  0.5959922486367261  0.1028123082341281  0.0012055970757600992  1.0000
  H   H16       1.0  0.0963809730214393  0.9403165169338408  0.03455316142667188  1.0000
  C   C1        1.0  0.6174049821401083  0.5663759788149464  0.4143501075925754  1.0000
  C   C2        1.0  0.6267309280076176  0.5714889239247684  0.5724083273102278  1.0000
  C   C3        1.0  0.12614167897258707  0.4147622266375919  0.5694721525096254  1.0000
  C   C4        1.0  0.11544306342645429  0.4106638053732682  0.4096761741719631  1.0000
  C   C5        1.0  0.11158434564196539  0.36347731625873075  0.36060313969558405  1.0000
  C   C6        1.0  0.11056713499627338  0.3222234889857277  0.31967491546469506  1.0000
  C   C7        1.0  0.1100759623780334  0.2769106058282915  0.27508421694150786  1.0000
  C   C8        1.0  0.11051668381050922  0.2349236009207161  0.2343282482766184  1.0000
  C   C9        1.0  0.10990911501969688  0.18963025648924514  0.1897509936485163  1.0000
  C   C10       1.0  0.108452013258777  0.14842293031367865  0.14877766039356993  1.0000
  C   C11       1.0  0.2558441295351344  0.2425595528657709  0.7113296052309648  1.0000
  C   C12       1.0  0.10962670416074623  0.29131301027891965  0.7031028548383557  1.0000
  C   C13       1.0  0.9537858476875057  0.29900942884905396  0.7446331970430861  1.0000
  C   C14       1.0  0.9449653975241644  0.2608081922588071  0.7931732121396206  1.0000
  C   C15       1.0  0.09505252308408528  0.2132722121895655  0.8012063342185054  1.0000
  C   C16       1.0  0.24822150146442817  0.2052088190425678  0.7603536598846501  1.0000
  C   C17       1.0  0.12095026680377427  0.3340955329994629  0.6567792350574704  1.0000
  C   C18       1.0  0.09162144594396439  0.17362798410474062  0.8499729736410653  1.0000
  C   C19       1.0  0.0907145670423688  0.1386423312957916  0.8913469401182109  1.0000
  C   C20       1.0  0.12686568547059096  0.37326763416183445  0.6186166752878177  1.0000
  C   C21       1.0  0.42698528044088135  0.7786932732474484  0.23283690514596594  1.0000
  C   C22       1.0  0.6088218950924967  0.8041776315755058  0.2132206558727389  1.0000
  C   C23       1.0  0.7919463518766674  0.7795102230574004  0.2345802434658494  1.0000
  C   C24       1.0  0.7931062675066439  0.7308126367418882  0.2742505920469184  1.0000
  C   C25       1.0  0.611277270136931  0.7052071977477185  0.2937964385068738  1.0000
  C   C26       1.0  0.42818905612852376  0.7299518888474311  0.2724737599864965  1.0000
  C   C27       1.0  0.6072319457750763  0.8535387413847179  0.17244701104143445  1.0000
  C   C28       1.0  0.6127727370893722  0.6558325574417979  0.3345982961930999  1.0000
  C   C29       1.0  0.6144813912852526  0.613767036719466  0.37016808449063626  1.0000
  C   C30       1.0  0.6050898066931509  0.8958263328397679  0.13704797878788355  1.0000
  C   C31       1.0  0.46547270829270093  0.7534059762540367  0.7942362094147695  1.0000
  C   C32       1.0  0.6171940897798294  0.8005863664671721  0.8032702096102606  1.0000
  C   C33       1.0  0.7837476059783197  0.8002926419015357  0.7652730233579913  1.0000
  C   C34       1.0  0.7914875939129828  0.7539366786584978  0.7182217606790144  1.0000
  C   C35       1.0  0.636971281653757  0.7065139489924591  0.7093963181020795  1.0000
  C   C36       1.0  0.47630023631460006  0.7067578884196452  0.7484391279957162  1.0000
  C   C37       1.0  0.6004886042668003  0.8494741482066603  0.8489178413889743  1.0000
  C   C38       1.0  0.6374295846816125  0.6592898046504417  0.6620726613963155  1.0000
  C   C39       1.0  0.6305835040081005  0.6180304228042247  0.6218184137644085  1.0000
  C   C40       1.0  0.589624073890377  0.8921635837488255  0.8878226363670831  1.0000
  C   C41       1.0  0.5907913916205699  0.940304720970147  0.9362315838935015  1.0000
  C   C42       1.0  0.6016865983939537  0.9436175746572532  0.09345924106926157  1.0000
  C   C43       1.0  0.10380635156467831  0.1018139396410049  0.09927576586049006  1.0000
  C   C44       1.0  0.09284487667883208  0.09636753943191682  0.9395570601864376  1.0000
  C   C45       1.0  0.9352946203519109  0.8539423438397837  0.7772078273687907  1.0000
  C   C46       1.0  0.42638508076306175  0.22798926716393453  0.671014874653039  1.0000
  C   C47       1.0  0.782658804587477  0.26466715799159607  0.8384950711718131  1.0000
  S   S1        1.0  0.9846135013079047  0.7487556371015814  0.6639854427937804  1.0000
  S   S2        1.0  0.7620082068139808  0.3584767247996582  0.7327855965461862  1.0000
  O   O1        1.0  0.45398091269629487  0.5524828867360086  0.5535981120155922  1.0000
  O   O2        1.0  0.78901433195675  0.5471163443413474  0.431374419126193  1.0000
  O   O3        1.0  0.9468084649673898  0.4279069288221464  0.4300723496850336  1.0000
  O   O4        1.0  0.796051377071805  0.5544720551022734  0.5520101966709061  1.0000
  O   O5        1.0  0.953531790321705  0.43190040104601485  0.551235748879044  1.0000
  O   O6        1.0  0.44844212017549256  0.5489160709349364  0.4330934873143945  1.0000
  O   O7        1.0  0.621311435622097  0.4508740782704452  0.492201424059658  1.0000
  O   O8        1.0  0.29555551436004623  0.42924460635597966  0.5492493112594443  1.0000
  O   O9        1.0  0.28776483772718814  0.4297056329733239  0.4284223826013898  1.0000
  O   O10       1.0  0.12206801173505259  0.5290560581685783  0.4940156037666411  1.0000
  O   O11       1.0  0.770684562520472  0.961904018707337  0.07504656205114199  1.0000
  O   O12       1.0  0.42073586074079816  0.9573491319363966  0.9559535051797352  1.0000
  O   O13       1.0  0.2643957585214806  0.07827125400707761  0.9578457694342856  1.0000
  O   O14       1.0  0.42981390668023783  0.9627538378926488  0.07618013473571486  1.0000
  O   O15       1.0  0.27279603355995613  0.08458002555647683  0.07890817917886037  1.0000
  O   O16       1.0  0.7631715128916453  0.9596575404737353  0.9547047280272164  1.0000
  O   O17       1.0  0.5970372541502583  0.06030344740077002  0.0175314973052636  1.0000
  O   O18       1.0  0.9306089712084429  0.08348273405837861  0.08040456042545688  1.0000
  O   O19       1.0  0.9238142147190586  0.08097164587000093  0.9598103227437276  1.0000
  O   O20       1.0  0.09621940752525397  0.9823426165241007  0.017314365908305297  1.0000
  O   O21       1.0  0.9575738546114748  0.8997067606364696  0.7457910469820558  1.0000
  O   O22       1.0  0.03848050230742929  0.846552712070178  0.8278654259502854  1.0000
  O   O23       1.0  0.08426855680026077  0.6875944639999576  0.6683947379318622  1.0000
  O   O24       1.0  0.8962264131919039  0.7680722283191985  0.6096217124474561  1.0000
  O   O25       1.0  0.14800770758442638  0.8016086542686126  0.6871473068692635  1.0000
  O   O26       1.0  0.579168396687713  0.20067581663221296  0.6865978081452011  1.0000
  O   O27       1.0  0.39179616984135623  0.24613294506246325  0.615498062818993  1.0000
  O   O28       1.0  0.6783208445294591  0.3468559381577522  0.6744469563339164  1.0000
  O   O29       1.0  0.6361709724616275  0.3627035682354461  0.7830103308459823  1.0000
  O   O30       1.0  0.8867030346742054  0.4252748207054536  0.7356499547267601  1.0000
  O   O31       1.0  0.6331131924380597  0.2307396871822576  0.8358702553659965  1.0000
  O   O32       1.0  0.8353708843057247  0.30576552288930975  0.8846265797607269  1.0000
