data_image0
_chemical_formula_structural       Ba2H36C14Br4O16
_chemical_formula_sum              "Ba2 H36 C14 Br4 O16"
_cell_length_a       7.377560294423557
_cell_length_b       8.410251497936493
_cell_length_c       13.483622490003368
_cell_angle_alpha    90.00007141513035
_cell_angle_beta     89.99993418983739
_cell_angle_gamma    116.0451093812503

_space_group_name_H-M_alt    "P 1"
_space_group_IT_number       1

loop_
  _space_group_symop_operation_xyz
  'x, y, z'

loop_
  _atom_site_type_symbol
  _atom_site_label
  _atom_site_symmetry_multiplicity
  _atom_site_fract_x
  _atom_site_fract_y
  _atom_site_fract_z
  _atom_site_occupancy
  Ba  Ba1       1.0  0.1242514906248786  0.2486063255320019  0.7499676576065895  1.0000
  Ba  Ba2       1.0  0.8757466093551045  0.7513921368437337  0.24996696693509785  1.0000
  H   H1        1.0  0.6546682781924247  0.948774998296443  0.6759891266097069  1.0000
  H   H2        1.0  0.34533193968599096  0.05122467856773479  0.17598822595390115  1.0000
  H   H3        1.0  0.29395468610634623  0.9488847209048288  0.8240058435095249  1.0000
  H   H4        1.0  0.706041957961794  0.05111385049028169  0.32400471548431387  1.0000
  H   H5        1.0  0.3098339913841742  0.7950148194775793  0.9723568617726027  1.0000
  H   H6        1.0  0.6901685363710685  0.20498529587754893  0.4723573466262961  1.0000
  H   H7        1.0  0.48506777428682574  0.7950132805977717  0.5276921769782987  1.0000
  H   H8        1.0  0.5149360177815441  0.20498750132135515  0.027691288966536793  1.0000
  H   H9        1.0  0.7559920846572369  0.751131459742929  0.7804913503236506  1.0000
  H   H10       1.0  0.24401073445907437  0.24886572569880633  0.2804921504071841  1.0000
  H   H11       1.0  0.9945630144127123  0.7511994366854541  0.719578119201806  1.0000
  H   H12       1.0  0.005437144428356108  0.2488003045694072  0.21957906955734063  1.0000
  H   H13       1.0  0.5128579259867365  0.7438465897530477  0.7905295277319553  1.0000
  H   H14       1.0  0.4871448795341636  0.2561506105168903  0.29053018027930466  1.0000
  H   H15       1.0  0.23037008995478203  0.7438082249805262  0.7095662108634853  1.0000
  H   H16       1.0  0.7696314380827901  0.2561915018333991  0.20956668544708626  1.0000
  H   H17       1.0  0.6899587197065955  0.7699232621962153  0.9519779356751524  1.0000
  H   H18       1.0  0.31004314208049516  0.2300781461262105  0.4519779379069674  1.0000
  H   H19       1.0  0.07948222540060373  0.7696983477184461  0.5480740580700498  1.0000
  H   H20       1.0  0.920520845493307  0.2303037873802509  0.04807367581671678  1.0000
  H   H21       1.0  0.6427630763457232  0.10588582416290393  0.9033364612082195  1.0000
  H   H22       1.0  0.35723686511875735  0.8941115420471205  0.40333769145759385  1.0000
  H   H23       1.0  0.46297369624479495  0.10569905722847041  0.5967060108007229  1.0000
  H   H24       1.0  0.5370279216443309  0.8943057958514518  0.09670564463183237  1.0000
  H   H25       1.0  0.05172135273526377  0.8799208867970307  0.9988758140523328  1.0000
  H   H26       1.0  0.9482824947411357  0.120079268078797  0.49887384535573165  1.0000
  H   H27       1.0  0.8279778872652912  0.8798437601602841  0.5009455803246253  1.0000
  H   H28       1.0  0.17202322975455078  0.12015698155233419  0.0009463257279235997  1.0000
  H   H29       1.0  0.586035811256643  0.43906002306712116  0.6375808739506182  1.0000
  H   H30       1.0  0.41396105379862996  0.5609409194348841  0.13758106786211494  1.0000
  H   H31       1.0  0.8527996490115513  0.43885626191985944  0.8623393813893326  1.0000
  H   H32       1.0  0.14719356979792764  0.5611410419843282  0.3623397435462293  1.0000
  H   H33       1.0  0.4584966491208037  0.4973599635675257  0.5680736511388673  1.0000
  H   H34       1.0  0.5414996480073455  0.5026395528381471  0.06807297773439558  1.0000
  H   H35       1.0  0.038679595670110714  0.4971939527608527  0.9318654872089522  1.0000
  H   H36       1.0  0.9613162087450886  0.5028061010355955  0.4318652910485595  1.0000
  C   C1        1.0  0.6748139489075695  0.8299696487928684  0.7995671408352576  1.0000
  C   C2        1.0  0.32518679516738996  0.17002888754970508  0.29956782849367863  1.0000
  C   C3        1.0  0.15470985761764666  0.8299561218921808  0.7004774643288485  1.0000
  C   C4        1.0  0.8452876158218956  0.1700435904479605  0.20047634100193787  1.0000
  C   C5        1.0  0.7173926634613395  0.8874123733722075  0.9068120686132344  1.0000
  C   C6        1.0  0.28260664273413744  0.11258102805722811  0.4068090302498177  1.0000
  C   C7        1.0  0.16963606967836137  0.8872526292958794  0.5932006724841015  1.0000
  C   C8        1.0  0.8303642288244575  0.11274957176561883  0.09320025566960767  1.0000
  C   C9        1.0  0.5914771642307669  0.9801900833203163  0.9443339601835062  1.0000
  C   C10       1.0  0.40852470790783  0.019811313711962  0.4443359618560762  1.0000
  C   C11       1.0  0.38851774645266357  0.9800171408342776  0.555716647393801  1.0000
  C   C12       1.0  0.611479954549445  0.0199797111760347  0.05571703803514079  1.0000
  C   C13       1.0  0.027607139076451404  4.09257629528e-05  0.9999404754129484  1.0000
  C   C14       1.0  0.972393333617589  0.9999579065686035  0.499939917040244  1.0000
  Br  Br1       1.0  0.5165123851406576  0.393383595217216  0.9078776772535873  1.0000
  Br  Br2       1.0  0.4834780922210983  0.60661112876803  0.4078800877810237  1.0000
  Br  Br3       1.0  0.8769614928335658  0.39363625105037403  0.5921271040659022  1.0000
  Br  Br4       1.0  0.12303814505575875  0.6063646250057034  0.0921275165932514  1.0000
  O   O1        1.0  0.7373808366182786  0.9833768192068392  0.7377225243348349  1.0000
  O   O2        1.0  0.2626193291529475  0.016620302356933795  0.23772016562023165  1.0000
  O   O3        1.0  0.2457918400246086  0.9834236531320925  0.7622769116117706  1.0000
  O   O4        1.0  0.7542041940777438  0.0165761501498238  0.26227720967584384  1.0000
  O   O5        1.0  0.9278847974692326  0.0151141532710923  0.9133618318576566  1.0000
  O   O6        1.0  0.07211784168990934  0.9848832284458169  0.4133625706715803  1.0000
  O   O7        1.0  0.0870251228848531  0.014960999240109601  0.5865767685633968  1.0000
  O   O8        1.0  0.9129758781591305  0.9850398689647336  0.08657549439352147  1.0000
  O   O9        1.0  0.3835127100369108  0.879265207217543  0.9184922662565354  1.0000
  O   O10       1.0  0.6164872109023631  0.12073218137885529  0.41849124877115423  1.0000
  O   O11       1.0  0.4953704868073316  0.8790714434243441  0.5816205925237624  1.0000
  O   O12       1.0  0.5046324756489966  0.1209360342097838  0.0816174207518969  1.0000
  O   O13       1.0  0.4589010747820552  0.45091008111324976  0.6353901126875172  1.0000
  O   O14       1.0  0.5410964553073613  0.5490921815726821  0.13539021728168166  1.0000
  O   O15       1.0  0.9917953779049496  0.45070998321742917  0.8645546222626095  1.0000
  O   O16       1.0  0.008201211244149086  0.549288648076626  0.3645543211462153  1.0000
