data_image0
_chemical_formula_structural       Mn2H28C40N4O8
_chemical_formula_sum              "Mn2 H28 C40 N4 O8"
_cell_length_a       9.96475978482856
_cell_length_b       10.155418167060308
_cell_length_c       10.684327024366835
_cell_angle_alpha    80.71345902009509
_cell_angle_beta     81.85713088067794
_cell_angle_gamma    65.52509879354083

_space_group_name_H-M_alt    "P 1"
_space_group_IT_number       1

loop_
  _space_group_symop_operation_xyz
  'x, y, z'

loop_
  _atom_site_type_symbol
  _atom_site_label
  _atom_site_symmetry_multiplicity
  _atom_site_fract_x
  _atom_site_fract_y
  _atom_site_fract_z
  _atom_site_occupancy
  Mn  Mn1       1.0  0.18643378655742282  0.879716863509927  0.11275184186346365  1.0000
  Mn  Mn2       1.0  0.8135670666366152  0.12028518757099246  0.8872488410217514  1.0000
  H   H1        1.0  0.25446223317809574  0.5164882253294394  0.45593267716864716  1.0000
  H   H2        1.0  0.7455443789761985  0.4835170911177046  0.544065753580874  1.0000
  H   H3        1.0  0.618956591876888  0.6450642425438816  0.3538177868129537  1.0000
  H   H4        1.0  0.38105091267468794  0.3549388824893356  0.6461799496089569  1.0000
  H   H5        1.0  0.7937722385806792  0.6966116607973802  0.887138414947742  1.0000
  H   H6        1.0  0.2062246780864996  0.3033926036165866  0.1128652412195379  1.0000
  H   H7        1.0  0.18833619081101455  0.5594079418131627  0.08117228810608881  1.0000
  H   H8        1.0  0.8116627494466687  0.44059633963879447  0.9188320283786736  1.0000
  H   H9        1.0  0.36358907271772983  0.05405827685422079  0.9716411574743729  1.0000
  H   H10       1.0  0.6364170568482026  0.9459382669904527  0.028355043575842825  1.0000
  H   H11       1.0  0.4818219037276563  0.08275014764465277  0.7553904273247695  1.0000
  H   H12       1.0  0.5181806261050285  0.917245259634768  0.24460363886515077  1.0000
  H   H13       1.0  0.5066203535473692  0.6580526498850713  0.7069005217744645  1.0000
  H   H14       1.0  0.49337317453660745  0.34194496204393937  0.2930972022114346  1.0000
  H   H15       1.0  0.39296391112176104  0.64512329004517  0.9288727608761747  1.0000
  H   H16       1.0  0.6070327717459421  0.3548765473737561  0.07112697807230016  1.0000
  H   H17       1.0  0.598330140241174  0.7913610458147032  0.5332242599845571  1.0000
  H   H18       1.0  0.40166744501674867  0.2086365459318742  0.4667710481441033  1.0000
  H   H19       1.0  0.6015892818413704  0.07664986237463715  0.5889576875803968  1.0000
  H   H20       1.0  0.39840379629661293  0.9233488656082469  0.411041784753884  1.0000
  H   H21       1.0  0.7825869894608886  0.7461189421594483  0.41525001217773655  1.0000
  H   H22       1.0  0.21741842138429496  0.2538744806485127  0.58475709772474  1.0000
  H   H23       1.0  0.009734226608195342  0.7051713197921925  0.2688169620735721  1.0000
  H   H24       1.0  0.9902713023858354  0.29482430973099827  0.7311916393767817  1.0000
  H   H25       1.0  0.9933871495833345  0.11244949999783667  0.2979857639877251  1.0000
  H   H26       1.0  0.006604716851399029  0.8875546743450328  0.7020129719551703  1.0000
  H   H27       1.0  0.7650729367577966  0.1716275311895643  0.4475048558267005  1.0000
  H   H28       1.0  0.23491925397937066  0.8283733610780358  0.5524934425890891  1.0000
  C   C1        1.0  0.35236602550668294  0.6887338553399118  0.2838383955231549  1.0000
  C   C2        1.0  0.6476410365936047  0.31127034505335865  0.7161582868779915  1.0000
  C   C3        1.0  0.42935041236241034  0.590488058043718  0.3947212832050154  1.0000
  C   C4        1.0  0.570656202290124  0.40951724483881685  0.6052762134214618  1.0000
  C   C5        1.0  0.361955969955318  0.5085982754425871  0.4764406493882447  1.0000
  C   C6        1.0  0.6380516577415777  0.49140702917664203  0.5235567103354483  1.0000
  C   C7        1.0  0.5677606117360983  0.5812243136578701  0.41885189930686545  1.0000
  C   C8        1.0  0.432246002916429  0.4187809892246719  0.5811455973196118  1.0000
  C   C9        1.0  0.9799083369280199  0.7966593058545612  0.9598659342290147  1.0000
  C   C10       1.0  0.02009150821812263  0.20334271636044574  0.040133017312889804  1.0000
  C   C11       1.0  0.9901028702211508  0.6434976569831149  0.9814185248976911  1.0000
  C   C12       1.0  0.009894933846837355  0.3565044431461429  0.01858630518806592  1.0000
  C   C13       1.0  0.8836039355667114  0.609670331351488  0.9366027376009142  1.0000
  C   C14       1.0  0.11639443909436419  0.39033284587451783  0.06340090156130171  1.0000
  C   C15       1.0  0.10685008099791567  0.5326734598349316  0.045019817391200014  1.0000
  C   C16       1.0  0.8931463882215028  0.46733190706830635  0.9549846530014037  1.0000
  C   C17       1.0  0.39852538484707634  0.9680550893705301  0.9100207707318262  1.0000
  C   C18       1.0  0.6014771349926633  0.0319403721673126  0.0899770319502906  1.0000
  C   C19       1.0  0.46151446900832854  0.9846712788935928  0.7871898068441895  1.0000
  C   C20       1.0  0.5384880558278838  0.015324155515045797  0.21280612759182554  1.0000
  C   C21       1.0  0.4965561226652755  0.8758357136407326  0.7078419796526771  1.0000
  C   C22       1.0  0.5034419050439354  0.1241608027457914  0.2921543824967543  1.0000
  C   C23       1.0  0.47669414384794373  0.7490074047027945  0.7619649981823501  1.0000
  C   C24       1.0  0.5233018577725234  0.25098910821034076  0.2380316377726501  1.0000
  C   C25       1.0  0.4140246723493563  0.7405948028380392  0.886170050974343  1.0000
  C   C26       1.0  0.5859730260609483  0.25940502275297206  0.11382861694829668  1.0000
  C   C27       1.0  0.5359792705352434  0.8979214519329302  0.5677748621592116  1.0000
  C   C28       1.0  0.46401572053908796  0.10207504567890169  0.4322209765755217  1.0000
  C   C29       1.0  0.60222429771742  0.011419049058403597  0.5160635353185938  1.0000
  C   C30       1.0  0.39777416994484605  0.9885764055326687  0.4839348149746526  1.0000
  C   C31       1.0  0.7503825772592096  0.9654195442762725  0.44226447428084725  1.0000
  C   C32       1.0  0.24961600855190375  0.03457811703001568  0.5577353675602836  1.0000
  C   C33       1.0  0.8242355014121756  0.8316217614632037  0.3927208837982263  1.0000
  C   C34       1.0  0.1757664278486075  0.16837273149473478  0.6072855827918318  1.0000
  C   C35       1.0  0.9514142566450303  0.8075776998356119  0.3102968933408903  1.0000
  C   C36       1.0  0.04858824071060047  0.19241788378368332  0.6897093164486633  1.0000
  C   C37       1.0  0.9422596262989985  0.0346658429413509  0.32673781215644476  1.0000
  C   C38       1.0  0.05773749402352727  0.9653329462467255  0.6732648490588957  1.0000
  C   C39       1.0  0.815501825011488  0.06662744557784347  0.4098431258911716  1.0000
  C   C40       1.0  0.1844923843197179  0.9333734908569512  0.5901577010881951  1.0000
  N   N1        1.0  0.3705659765519017  0.8502599318328095  0.9588882347518322  1.0000
  N   N2        1.0  0.6294346378461881  0.14973771938226574  0.04111039916067941  1.0000
  N   N3        1.0  0.008757731745341134  0.9081614725983296  0.27498583112367214  1.0000
  N   N4        1.0  0.9912403991233204  0.09183733189104257  0.725017627311928  1.0000
  O   O1        1.0  0.8651354601355977  0.8947411710979621  0.9105598328987979  1.0000
  O   O2        1.0  0.13486235892180082  0.1052608476436632  0.0894393924486678  1.0000
  O   O3        1.0  0.08648270447648808  0.8214016978467737  0.9879766103799524  1.0000
  O   O4        1.0  0.913510858748083  0.17860578917397155  0.012024157530589712  1.0000
  O   O5        1.0  0.3538721300659232  0.8155674893551748  0.260962449649746  1.0000
  O   O6        1.0  0.6461279538761602  0.18443893272568346  0.7390385508648619  1.0000
  O   O7        1.0  0.28475483033987825  0.6447898814638577  0.21874911769712208  1.0000
  O   O8        1.0  0.7152545796533405  0.3552110538921339  0.7812477874944007  1.0000
