data_image0
_chemical_formula_structural       Zn8H112C144N8O40
_chemical_formula_sum              "Zn8 H112 C144 N8 O40"
_cell_length_a       19.158310815270486
_cell_length_b       19.161594761743892
_cell_length_c       29.192860798638844
_cell_angle_alpha    109.15202952440112
_cell_angle_beta     109.14854198900832
_cell_angle_gamma    90.003694656349

_space_group_name_H-M_alt    "P 1"
_space_group_IT_number       1

loop_
  _space_group_symop_operation_xyz
  'x, y, z'

loop_
  _atom_site_type_symbol
  _atom_site_label
  _atom_site_symmetry_multiplicity
  _atom_site_fract_x
  _atom_site_fract_y
  _atom_site_fract_z
  _atom_site_occupancy
  Zn  Zn1       1.0  0.4907571305867364  0.07137022099981036  0.9956319107377424  1.0000
  Zn  Zn2       1.0  0.9242394291825493  0.9907758985725154  0.4956066354915905  1.0000
  Zn  Zn3       1.0  0.57132848209406  0.004825205507259482  0.4956013339801473  1.0000
  Zn  Zn4       1.0  0.504803359696119  0.424239723355896  0.9956147860218536  1.0000
  Zn  Zn5       1.0  0.509241263672031  0.928632363346651  0.004364155591240123  1.0000
  Zn  Zn6       1.0  0.07576064820714387  0.009225310323770901  0.5043938392731705  1.0000
  Zn  Zn7       1.0  0.4286745026418118  0.9951762000787239  0.5043992525521688  1.0000
  Zn  Zn8       1.0  0.4951947220684048  0.5757583792504734  0.004385374468149962  1.0000
  H   H1        1.0  0.636193461612514  0.8449557558060903  0.9016794518062738  1.0000
  H   H2        1.0  0.056973906708087454  0.13610591892844326  0.4016922548118274  1.0000
  H   H3        1.0  0.34478631125055875  0.765632747033955  0.401691093518359  1.0000
  H   H4        1.0  0.2654696658082047  0.5569149443107335  0.9017273359917297  1.0000
  H   H5        1.0  0.3638013887957213  0.15504418385705776  0.0983186271520609  1.0000
  H   H6        1.0  0.9430294966346221  0.8638954176789684  0.5983081937125406  1.0000
  H   H7        1.0  0.6552218516733462  0.23436660393782202  0.5983118409459963  1.0000
  H   H8        1.0  0.7345300932848459  0.44308251586937797  0.09827392595565952  1.0000
  H   H9        1.0  0.6880333342816344  0.810814170730822  0.8293434399687812  1.0000
  H   H10       1.0  0.01895048099643056  0.1879088871551389  0.32935037418869234  1.0000
  H   H11       1.0  0.3106460325318707  0.6414419087728547  0.3294064362744749  1.0000
  H   H12       1.0  0.14133849311893001  0.5188175538054196  0.829365631939929  1.0000
  H   H13       1.0  0.3119660018972538  0.1891864329151716  0.17065575476858896  1.0000
  H   H14       1.0  0.9810477957639491  0.8120924119631283  0.6706488777355801  1.0000
  H   H15       1.0  0.6893567329003574  0.3585596878162889  0.6705955849180326  1.0000
  H   H16       1.0  0.8586624731790451  0.48118647446909085  0.17063626817251526  1.0000
  H   H17       1.0  0.620716333637958  0.010206856505639888  0.799036858932034  1.0000
  H   H18       1.0  0.7891392245946702  0.12063205004670859  0.2989494243104147  1.0000
  H   H19       1.0  0.5099970857761917  0.6783615625203082  0.2989717822206757  1.0000
  H   H20       1.0  0.17835341816134345  0.28908446419346495  0.7989754196155446  1.0000
  H   H21       1.0  0.3792832491424889  0.9897948515488935  0.2009625785715414  1.0000
  H   H22       1.0  0.21086016468497368  0.8793688029593127  0.7010520235193242  1.0000
  H   H23       1.0  0.49000432044629605  0.3216343263338004  0.7010272502685098  1.0000
  H   H24       1.0  0.821643057969723  0.7109169251467832  0.2010226094682324  1.0000
  H   H25       1.0  0.573906418734154  0.04579311399067622  0.873068475067555  1.0000
  H   H26       1.0  0.8274361912173163  0.07384437958412349  0.3730024820736658  1.0000
  H   H27       1.0  0.5456122456723378  0.7991766958262686  0.37299005135378854  1.0000
  H   H28       1.0  0.29914779252990087  0.32744332102210905  0.8730346400708413  1.0000
  H   H29       1.0  0.4260942005631421  0.9542085781313077  0.12693198307235323  1.0000
  H   H30       1.0  0.17256681932140358  0.9261559799501812  0.626998680124622  1.0000
  H   H31       1.0  0.45439263560680143  0.20081882689156322  0.6270096519440785  1.0000
  H   H32       1.0  0.7008488068130205  0.6725535710836823  0.12696296036438776  1.0000
  H   H33       1.0  0.6917882822527801  0.9486958504063876  0.6262806415842378  1.0000
  H   H34       1.0  0.6776645146888781  0.19192740097328448  0.12637869165925517  1.0000
  H   H35       1.0  0.4483930341779044  0.434476740733267  0.1262645924913955  1.0000
  H   H36       1.0  0.934550625449127  0.17752509772877537  0.6264253251860197  1.0000
  H   H37       1.0  0.30821290475498136  0.0513052788896147  0.3737203755967898  1.0000
  H   H38       1.0  0.3223358566007306  0.8080758947155006  0.8736209719856801  1.0000
  H   H39       1.0  0.5516076825284061  0.5655215002059323  0.8737348613339933  1.0000
  H   H40       1.0  0.06544649729600854  0.8224749320938544  0.3735760916972168  1.0000
  H   H41       1.0  0.7521616718790655  0.9164880535413644  0.7061080352845722  1.0000
  H   H42       1.0  0.7897601769190815  0.2521890631825414  0.20615025827969186  1.0000
  H   H43       1.0  0.4163288240181942  0.45400660302662027  0.20613348242059706  1.0000
  H   H44       1.0  0.9540427084631344  0.28959643518362543  0.706188840336587  1.0000
  H   H45       1.0  0.24783813600741672  0.08351273048608483  0.2938932745372044  1.0000
  H   H46       1.0  0.21023842244525787  0.7478129101645834  0.7938504116799195  1.0000
  H   H47       1.0  0.5836716718894124  0.5459894874523528  0.793866304304558  1.0000
  H   H48       1.0  0.04595458628728017  0.7104024212518852  0.2938121957724817  1.0000
  H   H49       1.0  0.5382544279381206  0.8945909347437533  0.7214230594655148  1.0000
  H   H50       1.0  0.8267761599516561  0.038230122990725576  0.22136617643084117  1.0000
  H   H51       1.0  0.3945960264086139  0.6831828406647702  0.2214474530314163  1.0000
  H   H52       1.0  0.18317773695154227  0.3267882765598884  0.7213896218266598  1.0000
  H   H53       1.0  0.4617449584403275  0.10541028477423708  0.2785767348750241  1.0000
  H   H54       1.0  0.173219281068697  0.9617685743067312  0.7786313837453777  1.0000
  H   H55       1.0  0.6054041010917146  0.3168139346647719  0.7785530713048557  1.0000
  H   H56       1.0  0.8168183994762969  0.6732123850672876  0.2786113740234057  1.0000
  H   H57       1.0  0.4783015626831995  0.9223411881976628  0.6403478089763013  1.0000
  H   H58       1.0  0.7178652377825047  0.9784169776484432  0.14036810401741207  1.0000
  H   H59       1.0  0.42236837345419087  0.6620654394938228  0.14039352147885611  1.0000
  H   H60       1.0  0.16207056094275885  0.21789765636355432  0.6403745218201635  1.0000
  H   H61       1.0  0.5216982194004274  0.07766064188146522  0.35965292517951036  1.0000
  H   H62       1.0  0.2821314576522129  0.021584220688644986  0.8596284904061805  1.0000
  H   H63       1.0  0.57763177844285  0.3379329977593883  0.8596070267946132  1.0000
  H   H64       1.0  0.8379260958971742  0.7821014600536885  0.35962808695705223  1.0000
  H   H65       1.0  0.4117722014449895  0.1505149050028862  0.9211416667538471  1.0000
  H   H66       1.0  0.7706153993247753  0.911818221070675  0.42111822005553995  1.0000
  H   H67       1.0  0.6504668586949052  0.009470384273363705  0.4211450332339268  1.0000
  H   H68       1.0  0.5094408874302659  0.2706770441351409  0.921157251097867  1.0000
  H   H69       1.0  0.5882272351330189  0.8494869303870944  0.07885872718986066  1.0000
  H   H70       1.0  0.22938332035023024  0.0881796215539552  0.578880367766324  1.0000
  H   H71       1.0  0.3495330724923491  0.9905309519583554  0.5788563979709594  1.0000
  H   H72       1.0  0.4905581305409044  0.7293248602334117  0.07884328085378911  1.0000
  H   H73       1.0  0.5041484611940844  0.14666407468732962  0.9212375750476411  1.0000
  H   H74       1.0  0.7746006583687263  0.004181004358713374  0.42122184074372643  1.0000
  H   H75       1.0  0.6466184562530016  0.917213187142373  0.42125099462140986  1.0000
  H   H76       1.0  0.41715386072875316  0.2746267743587368  0.9212416378952356  1.0000
  H   H77       1.0  0.49584979266463586  0.8533379039706546  0.0787627546998593  1.0000
  H   H78       1.0  0.22539786639934103  0.9958186911927527  0.5787782056755192  1.0000
  H   H79       1.0  0.3533794779029478  0.08278775077477718  0.5787495705799444  1.0000
  H   H80       1.0  0.582845084141205  0.7253751936775429  0.07875937227647971  1.0000
  H   H81       1.0  0.5910262575932137  0.21560552492121593  0.06042891821603286  1.0000
  H   H82       1.0  0.8448494212451151  0.0910257325971955  0.5604066102958001  1.0000
  H   H83       1.0  0.7155887096150408  0.9695216582519922  0.5604358422830701  1.0000
  H   H84       1.0  0.4694139961442474  0.3448304221964591  0.060425879313491665  1.0000
  H   H85       1.0  0.4089730556840153  0.7843957582644946  0.9395713543445652  1.0000
  H   H86       1.0  0.15514935012450348  0.9089750673628105  0.4395936788896506  1.0000
  H   H87       1.0  0.28441082586703464  0.03047906741858948  0.4395646491065436  1.0000
  H   H88       1.0  0.5305865271501844  0.6551720131329617  0.9395761348697107  1.0000
  H   H89       1.0  0.6070195295885767  0.18454811100512805  0.0011435041338003704  1.0000
  H   H90       1.0  0.8166506519219395  0.10703792200591523  0.5011277591216796  1.0000
  H   H91       1.0  0.6844634199467164  0.8942251872019328  0.50116254108692  1.0000
  H   H92       1.0  0.3941335445883282  0.3166294963970273  0.0011459356510954161  1.0000
  H   H93       1.0  0.39297992989109104  0.8154530448451354  0.9988558119866796  1.0000
  H   H94       1.0  0.1833481194476861  0.8929628779540906  0.49887253006377114  1.0000
  H   H95       1.0  0.3155355478248937  0.10577610129463011  0.4988373912615742  1.0000
  H   H96       1.0  0.6058660912928745  0.683372461017548  0.9988557549448416  1.0000
  H   H97       1.0  0.38961479229949697  0.19323922044019068  0.0023451300552253017  1.0000
  H   H98       1.0  0.8090548538922633  0.8896490399852507  0.5023133160022297  1.0000
  H   H99       1.0  0.6932586985973686  0.11277855650915576  0.5023272111168283  1.0000
  H   H100      1.0  0.6127360354181661  0.3091319446252855  0.002353357019579533  1.0000
  H   H101      1.0  0.6103855087900881  0.8067637724043452  0.9976566652989619  1.0000
  H   H102      1.0  0.19094367087580377  0.11035065556620789  0.49768673041701567  1.0000
  H   H103      1.0  0.30674007277225007  0.8872222434508572  0.4976730780686225  1.0000
  H   H104      1.0  0.38726298255300406  0.6908699597432671  0.9976471749320766  1.0000
  H   H105      1.0  0.4659255164798495  0.22161373884506463  0.061108332543348375  1.0000
  H   H106      1.0  0.8395026913272047  0.9659248343996507  0.5610785033785533  1.0000
  H   H107      1.0  0.7216026373301431  0.0952852085288995  0.5611053445421915  1.0000
  H   H108      1.0  0.5952294492974985  0.339542364199545  0.06113024196319122  1.0000
  H   H109      1.0  0.534074833314243  0.778387528408082  0.9388929606535895  1.0000
  H   H110      1.0  0.1604971394609224  0.034075270088081304  0.43892172861999523  1.0000
  H   H111      1.0  0.27839697125315155  0.9047154534739619  0.4388946686273485  1.0000
  H   H112      1.0  0.4047699141792976  0.6604595348581626  0.9388706302005758  1.0000
  C   C1        1.0  0.6336680334713094  0.8807001245090547  0.8789807620565996  1.0000
  C   C2        1.0  0.9985487581087185  0.13358648452278024  0.3789768500647099  1.0000
  C   C3        1.0  0.3805658945993571  0.7454113354551879  0.37902658970925535  1.0000
  C   C4        1.0  0.2452762236845133  0.4984869273159731  0.8790485180030885  1.0000
  C   C5        1.0  0.3663294045803411  0.11929897110297108  0.12101766412315133  1.0000
  C   C6        1.0  0.001454471733652105  0.8664136840083643  0.6210228774733865  1.0000
  C   C7        1.0  0.6194398770831241  0.25458934810426115  0.6209756406967201  1.0000
  C   C8        1.0  0.7547212430711808  0.5015107557324185  0.12095213733182673  1.0000
  C   C9        1.0  0.6617790476578024  0.8615558650331395  0.8387882716226329  1.0000
  C   C10       1.0  0.9775867520945312  0.1616645978751662  0.338758295755987  1.0000
  C   C11       1.0  0.3614090883618887  0.6770974824199242  0.3388436481924302  1.0000
  C   C12       1.0  0.17698795209072682  0.47749340087700176  0.838831476297962  1.0000
  C   C13       1.0  0.3382185151896806  0.138446124246542  0.16121137770064561  1.0000
  C   C14       1.0  0.022413890104417095  0.8383364147071005  0.661241084560693  1.0000
  C   C15       1.0  0.6385940468837533  0.32290072134330927  0.6611581871177351  1.0000
  C   C16       1.0  0.823009663857512  0.5225088377627147  0.1611704261176783  1.0000
  C   C17       1.0  0.6560755701460155  0.9074087545685148  0.8091088233158957  1.0000
  C   C18       1.0  0.9020641514804949  0.15595677275891964  0.309052135115472  1.0000
  C   C19       1.0  0.4072106359633452  0.6531135775935155  0.3091223563718017  1.0000
  C   C20       1.0  0.15306137767360883  0.4019824364480371  0.8090817432374138  1.0000
  C   C21       1.0  0.34392490004765364  0.09259343140087138  0.1908909377749382  1.0000
  C   C22       1.0  0.09793474169484293  0.8440422379419773  0.6909471736926563  1.0000
  C   C23       1.0  0.5927911430626694  0.3468836013614478  0.6908786937558844  1.0000
  C   C24       1.0  0.8469352017577734  0.5980198181242359  0.19091913854189363  1.0000
  C   C25       1.0  0.6240752428500969  0.9738703406424918  0.8214483229081396  1.0000
  C   C26       1.0  0.8478721194776637  0.12396449499023282  0.3213716386741581  1.0000
  C   C27       1.0  0.47367248472655626  0.6974176174678844  0.32139568913660804  1.0000
  C   C28       1.0  0.1973808660830587  0.34781070831212463  0.8214023763587265  1.0000
  C   C29       1.0  0.37592451343068234  0.026132535488308396  0.17855183558170043  1.0000
  C   C30       1.0  0.15212901733053064  0.8760360184337799  0.6786287789037077  1.0000
  C   C31       1.0  0.5263303522229137  0.3025765245514266  0.6786042020437648  1.0000
  C   C32       1.0  0.8026174593818213  0.6521888652147468  0.17859637340828277  1.0000
  C   C33       1.0  0.5980632934311673  0.9940010225975727  0.862671630591379  1.0000
  C   C34       1.0  0.8688667094931617  0.09797326212822098  0.36260758639849666  1.0000
  C   C35       1.0  0.49380554642563373  0.7646471752473047  0.3626093097742427  1.0000
  C   C36       1.0  0.2645865529320022  0.3688504066639524  0.8626557495905233  1.0000
  C   C37       1.0  0.4019362893492726  0.0060006854569678945  0.13732780691220373  1.0000
  C   C38       1.0  0.13113578203960688  0.9020259346406757  0.6373925146014159  1.0000
  C   C39       1.0  0.506198251038285  0.23534738101913177  0.6373904267733225  1.0000
  C   C40       1.0  0.7354103690148862  0.6311471596707038  0.13734326888004486  1.0000
  C   C41       1.0  0.5815841367409078  0.9379063778437672  0.6288287664652757  1.0000
  C   C42       1.0  0.6908827333929536  0.0816932155346208  0.12886035041938734  1.0000
  C   C43       1.0  0.43775561355465703  0.5472381774220523  0.1287983286055834  1.0000
  C   C44       1.0  0.04727413103357493  0.19084321380923802  0.6288560652414078  1.0000
  C   C45       1.0  0.4184180594858019  0.06209344010797222  0.37117159392568766  1.0000
  C   C46       1.0  0.3091158328710933  0.9183081954247214  0.8711353351354348  1.0000
  C   C47       1.0  0.5622460163677304  0.4527594953803132  0.8712020244730426  1.0000
  C   C48       1.0  0.9527219322930447  0.8091575114856584  0.371145408828717  1.0000
  C   C49       1.0  0.6588583479214307  0.9362379416316885  0.647364386720696  1.0000
  C   C50       1.0  0.7111705534399774  0.15895356569758687  0.14743857060244636  1.0000
  C   C51       1.0  0.4359753863930607  0.4885124065478052  0.1473283948438322  1.0000
  C   C52       1.0  0.9885725587347663  0.21107322046069035  0.6474313986811706  1.0000
  C   C53       1.0  0.3411428619879828  0.06376250812460431  0.35263555263710333  1.0000
  C   C54       1.0  0.28882883003727494  0.8410480203323659  0.8525595702488928  1.0000
  C   C55       1.0  0.5640242966975819  0.5114854838119882  0.8526716918344235  1.0000
  C   C56       1.0  0.011423650794284942  0.7889273774987658  0.3525691189488285  1.0000
  C   C57       1.0  0.6923827093717277  0.9190545398517146  0.6916876341023794  1.0000
  C   C58       1.0  0.7727088958898279  0.19242965487126176  0.19173909943223325  1.0000
  C   C59       1.0  0.4188573816003042  0.49933959372331327  0.1916917170355461  1.0000
  C   C60       1.0  0.9993920609714521  0.27257873200509397  0.6917594224166094  1.0000
  C   C61       1.0  0.30761670280957526  0.08094563361459708  0.3083127359041312  1.0000
  C   C62       1.0  0.22728942957505183  0.8075699186556164  0.8082596503347759  1.0000
  C   C63       1.0  0.5811432878076416  0.5006576648319341  0.8083087906758735  1.0000
  C   C64       1.0  0.00060444676485366  0.7274208782595508  0.30824248931153875  1.0000
  C   C65       1.0  0.6494243510465694  0.9051812421858114  0.7192427081729846  1.0000
  C   C66       1.0  0.8141916731083825  0.14944335628361222  0.21924769215736717  1.0000
  C   C67       1.0  0.40501114673747196  0.5698355827498532  0.21925826231179713  1.0000
  C   C68       1.0  0.06985124528241475  0.31408661830133155  0.7192567420731494  1.0000
  C   C69       1.0  0.35057451922711647  0.09481844805479508  0.2807576784583787  1.0000
  C   C70       1.0  0.1858070709633282  0.850556148264687  0.7807509196016937  1.0000
  C   C71       1.0  0.5949910508953806  0.43016152722653805  0.7807426498079408  1.0000
  C   C72       1.0  0.9301462960695516  0.6859133425427189  0.28074453680213207  1.0000
  C   C73       1.0  0.5720671623902831  0.9066429681713827  0.7006870153764169  1.0000
  C   C74       1.0  0.7940460006027263  0.07210971261961423  0.20067134399975123  1.0000
  C   C75       1.0  0.4065512157307012  0.6286117625632387  0.20069308982416348  1.0000
  C   C76       1.0  0.12863077764002656  0.2939937688046683  0.7006830313078752  1.0000
  C   C77       1.0  0.42793168208055476  0.09335776812090302  0.29931279558896756  1.0000
  C   C78       1.0  0.20595054713449915  0.9278892715895282  0.7993251051035416  1.0000
  C   C79       1.0  0.593450858601372  0.3713847952088828  0.7993077009124788  1.0000
  C   C80       1.0  0.8713648670797624  0.7060070254688  0.2993185807702048  1.0000
  C   C81       1.0  0.538368076227357  0.9220858328238462  0.6555189100287109  1.0000
  C   C82       1.0  0.7333596371022538  0.03847028868062803  0.1555371269239387  1.0000
  C   C83       1.0  0.4220242778956305  0.6171523622519004  0.15552601446034942  1.0000
  C   C84       1.0  0.11717258279559667  0.23334705001229855  0.6555367862662251  1.0000
  C   C85       1.0  0.46163291147721697  0.07791517444756828  0.3444808105000731  1.0000
  C   C86       1.0  0.26663720453489487  0.9615307823210202  0.8444585110595283  1.0000
  C   C87       1.0  0.5779764646135276  0.38284483263561947  0.8444740150310109  1.0000
  C   C88       1.0  0.8828240969459954  0.7666513868652273  0.3444647446877624  1.0000
  C   C89       1.0  0.6874169202682056  0.8860299264809582  0.7664615444969557  1.0000
  C   C90       1.0  0.8807056206000039  0.1873356789172647  0.2664105057088335  1.0000
  C   C91       1.0  0.38585064160929516  0.5791199647524081  0.2664946241042188  1.0000
  C   C92       1.0  0.07910810471014437  0.38065712615917857  0.7663918698243536  1.0000
  C   C93       1.0  0.3125821464074718  0.11397025229620537  0.23353848529744434  1.0000
  C   C94       1.0  0.11929282816565506  0.8126644468138834  0.7335883654412783  1.0000
  C   C95       1.0  0.6141490643830066  0.4208772460676754  0.7335043847508088  1.0000
  C   C96       1.0  0.9208883514204586  0.6193445762088173  0.2336088905718583  1.0000
  C   C97       1.0  0.4684690479913839  0.17985513350297572  0.9404440735165451  1.0000
  C   C98       1.0  0.7605919950472996  0.9685219301569032  0.44043766941630474  1.0000
  C   C99       1.0  0.6798274541631529  0.972093569275238  0.4404534729103205  1.0000
  C   C100      1.0  0.4720372118785932  0.2606315978383548  0.9404568508685712  1.0000
  C   C101      1.0  0.5315305118873964  0.8201472540912745  0.05955644181026539  1.0000
  C   C102      1.0  0.23940749023521601  0.031478179641688094  0.5595622223701398  1.0000
  C   C103      1.0  0.3201728683330317  0.027906402566209482  0.5595461428602206  1.0000
  C   C104      1.0  0.5279612641849736  0.7393698233045  0.059543697707937285  1.0000
  C   C105      1.0  0.5723519415759455  0.2178837261515696  0.02129734910990069  1.0000
  C   C106      1.0  0.8034371531453176  0.07238624664110917  0.5212771280567594  1.0000
  C   C107      1.0  0.7178437538903851  0.9490159384203025  0.5212941174913226  1.0000
  C   C108      1.0  0.448939792225886  0.3034304574934907  0.021292609890970485  1.0000
  C   C109      1.0  0.4276466806900531  0.7821175676558454  0.9787022430264829  1.0000
  C   C110      1.0  0.19656203683113918  0.9276144843403243  0.4787230231207431  1.0000
  C   C111      1.0  0.2821562732997406  0.050984654603986684  0.47870575767026935  1.0000
  C   C112      1.0  0.551061986889046  0.6965717709002064  0.9787089902683734  1.0000
  C   C113      1.0  0.446136187104095  0.22304741365437755  0.021687678333229606  1.0000
  C   C114      1.0  0.7986274147548471  0.9461680690283033  0.5216662909275485  1.0000
  C   C115      1.0  0.7230476289182233  0.0756120644322564  0.521683127869089  1.0000
  C   C116      1.0  0.5755714970116371  0.2986811676805559  0.021718437622702404  1.0000
  C   C117      1.0  0.5538650501032194  0.7769543315136218  0.9783139384509667  1.0000
  C   C118      1.0  0.2013724891345064  0.053831971791709086  0.4783334628509408  1.0000
  C   C119      1.0  0.27695232517068286  0.9243885922597527  0.4783172255125692  1.0000
  C   C120      1.0  0.4244278162655989  0.7013201155051476  0.9782818349378958  1.0000
  C   C121      1.0  0.5699262846857424  0.9676077407673488  0.933853701138169  1.0000
  C   C122      1.0  0.9664133250210938  0.06991748793826957  0.4338644378888006  1.0000
  C   C123      1.0  0.4675032586733536  0.8639999513791634  0.4338247980462739  1.0000
  C   C124      1.0  0.363931507115943  0.46642379033340114  0.9338810391029567  1.0000
  C   C125      1.0  0.43007144585968865  0.03239614961252358  0.06614336219298171  1.0000
  C   C126      1.0  0.03359485790327454  0.9300815500057596  0.5661357652631268  1.0000
  C   C127      1.0  0.5325102730381914  0.1359985665388805  0.5661768205347572  1.0000
  C   C128      1.0  0.6360645302299942  0.5335678821357066  0.06611875923790228  1.0000
  C   C129      1.0  0.6016983719897696  0.947145619824319  0.8912569236683866  1.0000
  C   C130      1.0  0.9443135163257139  0.10162764391937879  0.39123014537789647  1.0000
  C   C131      1.0  0.4469719018627814  0.7896646496419847  0.3912152281411069  1.0000
  C   C132      1.0  0.28956371439901574  0.4442980868567119  0.8912705196245126  1.0000
  C   C133      1.0  0.39830071618143137  0.0528565873884759  0.10874147657401072  1.0000
  C   C134      1.0  0.05569018082799468  0.8983707300418047  0.6087689419949882  1.0000
  C   C135      1.0  0.553035643151098  0.2103346482837765  0.6087865476789672  1.0000
  C   C136      1.0  0.7104332835502872  0.555699049298262  0.108729674115196  1.0000
  C   C137      1.0  0.5459212049153734  0.9572124484016983  0.5811055250454658  1.0000
  C   C138      1.0  0.6238312479951134  0.046088508057948674  0.08111749823481766  1.0000
  C   C139      1.0  0.457154602090867  0.5351655582314335  0.08108332475842421  1.0000
  C   C140      1.0  0.035171859946452  0.12379084419844591  0.581134271016346  1.0000
  C   C141      1.0  0.4540855258754135  0.042791357380224306  0.4188959989989343  1.0000
  C   C142      1.0  0.37616884359264463  0.9539131208345067  0.918876938239123  1.0000
  C   C143      1.0  0.5428456716118931  0.46483108976266857  0.9189162431377227  1.0000
  C   C144      1.0  0.9648282461472776  0.8762089521341919  0.41886843290357945  1.0000
  N   N1        1.0  0.49453076474880936  0.18024095161520393  0.9945404761259339  1.0000
  N   N2        1.0  0.8143003877692435  0.9945593281784963  0.4945179524055873  1.0000
  N   N3        1.0  0.6802219265180726  9.241465787107305e-05  0.4945474257725309  1.0000
  N   N4        1.0  0.5000329250380203  0.3143230329372884  0.994548409643663  1.0000
  N   N5        1.0  0.5054688940340455  0.8197603262596476  0.0054601366467750285  1.0000
  N   N6        1.0  0.18569939281932354  0.005440160437245791  0.5054816799897992  1.0000
  N   N7        1.0  0.3197788647845102  0.9999081040769938  0.5054526515932167  1.0000
  N   N8        1.0  0.49996678394439453  0.6856788608095599  0.005452802732214878  1.0000
  O   O1        1.0  0.7435152475961287  0.8535719741572193  0.77021992964481  1.0000
  O   O2        1.0  0.9169018249668779  0.24342849742743772  0.2701483667016761  1.0000
  O   O3        1.0  0.35339042755852296  0.5268139619082177  0.2702950005618661  1.0000
  O   O4        1.0  0.026792255048171586  0.41698001802171086  0.7700628857064588  1.0000
  O   O5        1.0  0.2564819969547258  0.1464262664062943  0.229780506861097  1.0000
  O   O6        1.0  0.08309526757915361  0.7565706034954475  0.7298497192659639  1.0000
  O   O7        1.0  0.6466076513048051  0.4731845072101138  0.7297035064389377  1.0000
  O   O8        1.0  0.9732019818462875  0.5830218435468453  0.22993678985721291  1.0000
  O   O9        1.0  0.5486683506610177  0.0320608740441202  0.9461206505157592  1.0000
  O   O10       1.0  0.9141794534628432  0.048624304993083456  0.44609009607324884  1.0000
  O   O11       1.0  0.5319875898550849  0.8974703004990873  0.44606838371879587  1.0000
  O   O12       1.0  0.39743913855232904  0.41421724994759046  0.946136354532186  1.0000
  O   O13       1.0  0.45133063280372443  0.967943175911998  0.053874345302340074  1.0000
  O   O14       1.0  0.08582515391683648  0.9513688179045018  0.5539076870320159  1.0000
  O   O15       1.0  0.46802675467341703  0.10252641753814368  0.5539329349091346  1.0000
  O   O16       1.0  0.6025532516427603  0.5857709126061863  0.05386260374249471  1.0000
  O   O17       1.0  0.5655932573733157  0.9187866742687802  0.9540104091951777  1.0000
  O   O18       1.0  0.0353922681246247  0.0656999369367242  0.454115101865142  1.0000
  O   O19       1.0  0.418765932569478  0.88848960816118  0.45406161587885663  1.0000
  O   O20       1.0  0.3884511494421972  0.5353781394661538  0.954088577191321  1.0000
  O   O21       1.0  0.43440442736880397  0.0812185751905261  0.045988809782429016  1.0000
  O   O22       1.0  0.9646149314725604  0.9343044157386159  0.5458868837744647  1.0000
  O   O23       1.0  0.5812496478679847  0.1115122654068088  0.5459425700692933  1.0000
  O   O24       1.0  0.6115535855455931  0.46461246114839144  0.04591153251502083  1.0000
  O   O25       1.0  0.47583695533345594  0.959715399683112  0.566522847623446  1.0000
  O   O26       1.0  0.6067921054824197  0.9759952562219781  0.06646917700770422  1.0000
  O   O27       1.0  0.45967777596203513  0.5906428225033408  0.0664871797478597  1.0000
  O   O28       1.0  0.09064933502677523  0.10669835890175962  0.5665243238713771  1.0000
  O   O29       1.0  0.5241676581153669  0.040292138506735894  0.43347989255516955  1.0000
  O   O30       1.0  0.3932099057280921  0.024009909140076495  0.933524398471853  1.0000
  O   O31       1.0  0.5403205752167822  0.4093506555331245  0.9335115956534709  1.0000
  O   O32       1.0  0.909349740263572  0.8932956709007838  0.43348011635896455  1.0000
  O   O33       1.0  0.588986070330563  0.9704122929542154  0.5589224687571958  1.0000
  O   O34       1.0  0.5884385337145375  0.08919775758170799  0.05900042615691348  1.0000
  O   O35       1.0  0.4704140840683736  0.4699379403099612  0.05894752855301992  1.0000
  O   O36       1.0  0.9699327374116179  0.08840865470420306  0.5589962478496632  1.0000
  O   O37       1.0  0.411018664835062  0.029588406537790487  0.441078741012447  1.0000
  O   O38       1.0  0.4115615808637899  0.9108082412097644  0.9409934825254496  1.0000
  O   O39       1.0  0.5295915642244111  0.530057141606484  0.9410540304382025  1.0000
  O   O40       1.0  0.03006322410974616  0.9115935468220543  0.44100347528536343  1.0000
