data_image0
_chemical_formula_structural       Al4H52C75O26
_chemical_formula_sum              "Al4 H52 C75 O26"
_cell_length_a       6.62140580531358
_cell_length_b       20.760109592294793
_cell_length_c       23.56155424863128
_cell_angle_alpha    90.35196023262006
_cell_angle_beta     83.56086495859407
_cell_angle_gamma    87.61838844868562

_space_group_name_H-M_alt    "P 1"
_space_group_IT_number       1

loop_
  _space_group_symop_operation_xyz
  'x, y, z'

loop_
  _atom_site_type_symbol
  _atom_site_label
  _atom_site_symmetry_multiplicity
  _atom_site_fract_x
  _atom_site_fract_y
  _atom_site_fract_z
  _atom_site_occupancy
  Al  Al1       1.0  0.14472854849500993  0.502616304362185  0.5040760574070833  1.0000
  Al  Al2       1.0  0.6459277520841269  0.5029825588332886  0.501802243239361  1.0000
  Al  Al3       1.0  0.6809227755418945  0.9982572052750454  0.00012475025874180296  1.0000
  Al  Al4       1.0  0.18122956770083934  0.9993884253031878  0.0022604063877764997  1.0000
  H   H1        1.0  0.18244654701137364  0.6273912703263774  0.8294854826473073  1.0000
  H   H2        1.0  0.9931331553105169  0.6208236766410096  0.6574869415056954  1.0000
  H   H3        1.0  0.6730710589699738  0.711327389494258  0.5296438094097484  1.0000
  H   H4        1.0  0.6787302333388753  0.874572878722617  0.6742694108395357  1.0000
  H   H5        1.0  0.203608607636859  0.6848774504451356  0.9203101257632372  1.0000
  H   H6        1.0  0.8477309090136061  0.8783422605704061  0.8494497031644175  1.0000
  H   H7        1.0  0.07624679277194697  0.6238112749939759  0.7335208124049333  1.0000
  H   H8        1.0  0.778829993853222  0.8777962340427976  0.770917495329407  1.0000
  H   H9        1.0  0.6493151734266007  0.1680214051677638  0.7721258361229605  1.0000
  H   H10       1.0  0.6084679209748671  0.24972728188460278  0.6968946626445603  1.0000
  H   H11       1.0  0.1634247671606133  0.3352464854904511  0.7333380584135869  1.0000
  H   H12       1.0  0.204098071001745  0.2536984026869503  0.8087064030226262  1.0000
  H   H13       1.0  0.12170974095983673  0.7689690767909595  0.1996210678055449  1.0000
  H   H14       1.0  0.11919533937791732  0.6857663337357635  0.27471708809151363  1.0000
  H   H15       1.0  0.34584149780762624  0.3826140550509152  0.15455035530164454  1.0000
  H   H16       1.0  0.4373648619847543  0.3875304725666525  0.3358638084413031  1.0000
  H   H17       1.0  0.46618254384908653  0.11962399527681099  0.34862718688632566  1.0000
  H   H18       1.0  0.26514705523244697  0.21444320739627895  0.018934835779418808  1.0000
  H   H19       1.0  0.48453361727002436  0.11661479223898397  0.16103418733072064  1.0000
  H   H20       1.0  0.40732548851899253  0.3861327162712486  0.25464341485028547  1.0000
  H   H21       1.0  0.46056296752983183  0.1172656170384911  0.245203243462477  1.0000
  H   H22       1.0  0.45122475995440686  0.17921642703579718  0.43881751714279477  1.0000
  H   H23       1.0  0.47510061045043267  0.8008382064474162  0.516717555073278  1.0000
  H   H24       1.0  0.7393118979466281  0.8114642874572835  0.4963258038480519  1.0000
  H   H25       1.0  0.6861516563044462  0.9308173969156854  0.514167624616178  1.0000
  H   H26       1.0  0.5314108167979726  0.9034086229153219  0.4625583215189766  1.0000
  H   H27       1.0  0.42135346377520494  0.9207736675691223  0.5337953825721017  1.0000
  H   H28       1.0  0.5953415512640061  0.7479904623657916  0.3888143605202076  1.0000
  H   H29       1.0  0.7878673021109109  0.8041038314880212  0.36840156132050356  1.0000
  H   H30       1.0  0.05714170676254329  0.7157656011215464  0.37847069585405557  1.0000
  H   H31       1.0  0.8981973329091417  0.7289168132515654  0.44344670326256636  1.0000
  H   H32       1.0  0.8630606845592296  0.6611591609927245  0.3996288834900384  1.0000
  H   H33       1.0  0.6290765230137936  0.9081701192755247  0.2650023017417312  1.0000
  H   H34       1.0  0.7057484723833556  0.9105344132129713  0.18985679327468577  1.0000
  H   H35       1.0  0.07102746678914687  0.9050680360695222  0.20658079211230537  1.0000
  H   H36       1.0  0.9422210955251202  0.9713002532879217  0.2451122478375894  1.0000
  H   H37       1.0  0.002158406726614685  0.8991016865719887  0.281679439686407  1.0000
  H   H38       1.0  0.32890756712773594  0.19849516396361366  0.5284140492583662  1.0000
  H   H39       1.0  0.1476504281815423  0.26505828602460474  0.5311344825504636  1.0000
  H   H40       1.0  0.3143181552744494  0.31461963383101477  0.6108857978542093  1.0000
  H   H41       1.0  0.22886836562685176  0.2363531263022196  0.6296185639290501  1.0000
  H   H42       1.0  0.4926217679911603  0.24748705840008964  0.6081115197178024  1.0000
  H   H43       1.0  0.021421976785994404  0.3143274908942217  0.027106139281166012  1.0000
  H   H44       1.0  0.25734945097109835  0.3081578746819318  0.9820003934517634  1.0000
  H   H45       1.0  0.2926019597428678  0.42656567269145984  0.9863242909320962  1.0000
  H   H46       1.0  0.04883591010041499  0.4108226515869261  0.9653836981299267  1.0000
  H   H47       1.0  0.07176807720132673  0.4354918210557202  0.03678660395171111  1.0000
  H   H48       1.0  0.09460110105094091  0.8196005592967738  0.026043737594164906  1.0000
  H   H49       1.0  0.36851796843345147  0.5150417936709033  0.5787099733037737  1.0000
  H   H50       1.0  0.9318767881595277  0.4624379988241716  0.43725643799607655  1.0000
  H   H51       1.0  0.4527245342469114  0.0113223589370151  0.9271997487799271  1.0000
  H   H52       1.0  0.8930846682089353  0.04263495909225409  0.06470564649426083  1.0000
  C   C1        1.0  0.4041882090194307  0.5749876146649839  0.4237647854999978  1.0000
  C   C2        1.0  0.43635511040724145  0.4037833775671942  0.4482302620447955  1.0000
  C   C3        1.0  0.8785204148398548  0.4292241998765221  0.5827971391938223  1.0000
  C   C4        1.0  0.8535956894664808  0.6003763249134907  0.5579770814044596  1.0000
  C   C5        1.0  0.9961715170452693  0.8371359101132327  0.9165606997130741  1.0000
  C   C6        1.0  0.83500857295693  0.6615293770336664  0.5917819575652532  1.0000
  C   C7        1.0  0.12974142086000034  0.7274210434185804  0.9032982634727137  1.0000
  C   C8        1.0  0.09841261396952207  0.7821761592233184  0.9376656131137654  1.0000
  C   C9        1.0  0.9279639883374029  0.8353595346891254  0.8631142212513158  1.0000
  C   C10       1.0  0.9650631411938304  0.7807982698022258  0.8267286740858356  1.0000
  C   C11       1.0  0.06772436933162862  0.7255343078272175  0.8480076601816366  1.0000
  C   C12       1.0  0.9051994086036287  0.7790729013855114  0.7694656807862688  1.0000
  C   C13       1.0  0.944767222119033  0.7220371003665207  0.735697031099342  1.0000
  C   C14       1.0  0.04520533283745462  0.667723585249071  0.7590239444498723  1.0000
  C   C15       1.0  0.10474986991061286  0.6693299992375686  0.8127254585169371  1.0000
  C   C16       1.0  0.8087082509290724  0.8336417867540645  0.745666829861449  1.0000
  C   C17       1.0  0.7521327687819408  0.8322796385631791  0.6915073039322056  1.0000
  C   C18       1.0  0.7845529574961745  0.77553782736657  0.657075825899746  1.0000
  C   C19       1.0  0.8821950536839934  0.7196769914290542  0.6787394231198507  1.0000
  C   C20       1.0  0.7189059891359622  0.773058775053542  0.6012981732673028  1.0000
  C   C21       1.0  0.7341343058960917  0.7158181610165  0.5703683141793194  1.0000
  C   C22       1.0  0.9131027827766616  0.6637485859797749  0.6437834786603818  1.0000
  C   C23       1.0  0.738153405771051  0.2504214830378401  0.7215549594099215  1.0000
  C   C24       1.0  0.8833267265297592  0.2979154067736546  0.7101567025151001  1.0000
  C   C25       1.0  0.051437477075914693  0.2985520242570415  0.7421735766615428  1.0000
  C   C26       1.0  0.07434285856606952  0.25301355448602453  0.7840216600375033  1.0000
  C   C27       1.0  0.929616909261789  0.20533721341704586  0.7952152887816698  1.0000
  C   C28       1.0  0.7611033213925112  0.20482202248883405  0.763376614353071  1.0000
  C   C29       1.0  0.8661127899432585  0.3436885043428433  0.666563454585493  1.0000
  C   C30       1.0  0.9491007214202655  0.15892087741850253  0.8381397153210063  1.0000
  C   C31       1.0  0.9568220865981018  0.11876299026882721  0.8754086515240903  1.0000
  C   C32       1.0  0.8631514778294475  0.3829886950446593  0.6284601831060217  1.0000
  C   C33       1.0  0.5973816835857447  0.7895174920710419  0.2399798492703483  1.0000
  C   C34       1.0  0.4257228002076446  0.7981187180014543  0.2091403437163778  1.0000
  C   C35       1.0  0.25379985100696706  0.7606016869577772  0.22266403606676738  1.0000
  C   C36       1.0  0.25263690180141657  0.7141338044016337  0.2643708657374831  1.0000
  C   C37       1.0  0.4241023327190448  0.7038184886119295  0.29429933712089723  1.0000
  C   C38       1.0  0.5961289474710227  0.741763603810668  0.2821973780486574  1.0000
  C   C39       1.0  0.4231475469407897  0.8422875122292126  0.16392738334273826  1.0000
  C   C40       1.0  0.42275969433582367  0.6573112353765396  0.3377927450425633  1.0000
  C   C41       1.0  0.41712648565232513  0.6187600823568501  0.3766518961085127  1.0000
  C   C42       1.0  0.4130552985476045  0.879595630202253  0.12450959574781004  1.0000
  C   C43       1.0  0.38027050366171267  0.16094065061364662  0.08777238871596184  1.0000
  C   C44       1.0  0.44541545908472097  0.3414218195416225  0.4157537616613639  1.0000
  C   C45       1.0  0.31949879751125115  0.2761625951413933  0.08980276521594993  1.0000
  C   C46       1.0  0.3132198543232931  0.21767322770367054  0.061490817069632414  1.0000
  C   C47       1.0  0.4343267350182033  0.1617425033410171  0.14280459605019055  1.0000
  C   C48       1.0  0.4188779666411692  0.21981464566243153  0.17494328868291126  1.0000
  C   C49       1.0  0.3727108517142312  0.2784594368270419  0.14695510909123755  1.0000
  C   C50       1.0  0.4415440541900325  0.22162078944270283  0.2353293007607889  1.0000
  C   C51       1.0  0.4350173733865504  0.28177504789387353  0.264571824037411  1.0000
  C   C52       1.0  0.4082137688776584  0.3394830013890838  0.23323186249725592  1.0000
  C   C53       1.0  0.3742911519615789  0.33802998197706546  0.17697522007978256  1.0000
  C   C54       1.0  0.45745395640425107  0.16367171872208527  0.2671587528429883  1.0000
  C   C55       1.0  0.4601879997911809  0.16470607749918287  0.325128554211915  1.0000
  C   C56       1.0  0.4526409776726226  0.2240505517844156  0.3561968911968664  1.0000
  C   C57       1.0  0.44601108957505176  0.2831633124129738  0.3255430527173503  1.0000
  C   C58       1.0  0.4496447028212601  0.22495787560636427  0.4163223510855334  1.0000
  C   C59       1.0  0.44571354229322685  0.28274739900077606  0.44607525304147816  1.0000
  C   C60       1.0  0.44333837019444644  0.3412440184181165  0.35721715610780097  1.0000
  C   C61       1.0  0.390470083977938  0.09836460417721328  0.05605631938144032  1.0000
  C   C62       1.0  0.42204471138347804  0.9248768963450541  0.07863435132712483  1.0000
  C   C63       1.0  0.9736282815085744  0.8998014456446483  0.9484743550954919  1.0000
  C   C64       1.0  0.9454454124448689  0.07232780778359428  0.9207999742804633  1.0000
  C   C65       1.0  0.6033127699372116  0.831453260421071  0.5230114512302466  1.0000
  C   C66       1.0  0.5576494314840234  0.9008252128860263  0.5077467350133491  1.0000
  C   C67       1.0  0.7523560801983465  0.752542679503719  0.3685867416397174  1.0000
  C   C68       1.0  0.9012295736857965  0.712120697486597  0.3990215071078185  1.0000
  C   C69       1.0  0.750185617207947  0.8933453319997043  0.23086390942142299  1.0000
  C   C70       1.0  0.9537659035369472  0.9184120740979222  0.24181024799013787  1.0000
  C   C71       1.0  0.30359946452115594  0.25013905765620587  0.539368782445685  1.0000
  C   C72       1.0  0.3369993569584295  0.26295129101831094  0.6008084826332338  1.0000
  C   C73       1.0  0.16973433471328286  0.3364729908137534  0.016929959936916806  1.0000
  C   C74       1.0  0.14467096170998422  0.40651283637598107  0.0004523789270010008  1.0000
  C   C75       1.0  0.15747079545828774  0.7796737247639384  0.9967637808573717  1.0000
  O   O1        1.0  0.5985793346461817  0.42170493263486725  0.4664332185065307  1.0000
  O   O2        1.0  0.22675504440761785  0.566882238488411  0.44901650300804635  1.0000
  O   O3        1.0  0.02128038932761457  0.5675122265242436  0.5559475614302587  1.0000
  O   O4        1.0  0.26521384495740824  0.4348113126611465  0.45382369805584954  1.0000
  O   O5        1.0  0.05908199251348378  0.4379650453616648  0.5601298260981553  1.0000
  O   O6        1.0  0.5703333703052209  0.5479822764116803  0.4358280510990016  1.0000
  O   O7        1.0  0.382626825033718  0.5094054049993703  0.5376671146754008  1.0000
  O   O8        1.0  0.7145736293041552  0.4569431050156539  0.5701918403252935  1.0000
  O   O9        1.0  0.69923552384153  0.584718089813144  0.5341088560147043  1.0000
  O   O10       1.0  0.9112043711498715  0.4936639128344851  0.4683743219041718  1.0000
  O   O11       1.0  0.25666224730638726  0.9533671676003053  0.06765517345060353  1.0000
  O   O12       1.0  0.5588602944086816  0.06557697036754459  0.052337694887846516  1.0000
  O   O13       1.0  0.7656322652335206  0.0621282166059558  0.943452542336431  1.0000
  O   O14       1.0  0.5989796412646627  0.9335343226393817  0.05329751397688652  1.0000
  O   O15       1.0  0.8050502307961623  0.9317760613406917  0.9497269825250927  1.0000
  O   O16       1.0  0.2295810468192556  0.08174766665950982  0.035673413967394714  1.0000
  O   O17       1.0  0.44401101688449535  0.993675164983479  0.9653460330703401  1.0000
  O   O18       1.0  0.1295936831441509  0.9180303640466504  0.9701832156524335  1.0000
  O   O19       1.0  0.1111317984585654  0.045973849286426116  0.9336330059870054  1.0000
  O   O20       1.0  0.9151009888186794  0.008953036084392399  0.035651092704092904  1.0000
  O   O21       1.0  0.6414205061539844  0.8298023549493152  0.581929333697609  1.0000
  O   O22       1.0  0.7655498898980041  0.7305105720656329  0.3096185809346467  1.0000
  O   O23       1.0  0.7698183257306044  0.8232696285159237  0.23005293013032005  1.0000
  O   O24       1.0  0.4446745151351125  0.288203547549017  0.5041964926367302  1.0000
  O   O25       1.0  0.27504050467600655  0.33471317615536833  0.06709162849565332  1.0000
  O   O26       1.0  0.26469086530082103  0.7359021669191037  0.013713911058395905  1.0000
