data_image0
_chemical_formula_structural       Cd4H24C28S8N16
_chemical_formula_sum              "Cd4 H24 C28 S8 N16"
_cell_length_a       5.853320527364268
_cell_length_b       13.570137626337527
_cell_length_c       14.148897357406753
_cell_angle_alpha    87.463243467129
_cell_angle_beta     78.07393689688222
_cell_angle_gamma    77.6158923527426

_space_group_name_H-M_alt    "P 1"
_space_group_IT_number       1

loop_
  _space_group_symop_operation_xyz
  'x, y, z'

loop_
  _atom_site_type_symbol
  _atom_site_label
  _atom_site_symmetry_multiplicity
  _atom_site_fract_x
  _atom_site_fract_y
  _atom_site_fract_z
  _atom_site_occupancy
  Cd  Cd1       1.0  0.963617634649083  0.9714801834451874  0.7390243424536181  1.0000
  Cd  Cd2       1.0  0.6748116555686605  0.028429983188559008  0.26128036934203186  1.0000
  Cd  Cd3       1.0  0.6851643991041386  0.5285031436145927  0.2387152780525525  1.0000
  Cd  Cd4       1.0  0.45394959171375865  0.4713835814240284  0.7610544412177801  1.0000
  H   H1        1.0  0.2967942732862241  0.374168223417321  0.9417203565267158  1.0000
  H   H2        1.0  0.6127149143929458  0.625841751492942  0.058079526750979944  1.0000
  H   H3        1.0  0.42004144977430974  0.1257982392784811  0.4417940379808556  1.0000
  H   H4        1.0  0.9894363510533919  0.8740911931873186  0.5582981287895521  1.0000
  H   H5        1.0  0.2761167652396637  0.3042965061353087  0.8507133220059444  1.0000
  H   H6        1.0  0.4312979060334638  0.6956372386550385  0.1490833722202538  1.0000
  H   H7        1.0  0.32975640954460783  0.19546745065244403  0.3507102055136997  1.0000
  H   H8        1.0  0.877694621101  0.8041298980060533  0.6491962574009663  1.0000
  H   H9        1.0  0.5797730721644714  0.16756311573914937  0.7774317211908652  1.0000
  H   H10       1.0  0.5255265848808219  0.8323240319520623  0.22261251218363046  1.0000
  H   H11       1.0  0.4966617934412269  0.3324048571424358  0.27744892445979025  1.0000
  H   H12       1.0  0.10814021730982395  0.6674714547981466  0.7226126093552665  1.0000
  H   H13       1.0  0.678245659540231  0.34762821517963977  0.004289507223987254  1.0000
  H   H14       1.0  0.030226274911889776  0.6524357756826047  0.995765340461574  1.0000
  H   H15       1.0  0.7751059169632484  0.15258618948865177  0.5042196156186662  1.0000
  H   H16       1.0  0.43333348511455233  0.8476620341131565  0.4958872349099508  1.0000
  H   H17       1.0  0.053259571664405286  0.22044828147957676  0.012354418241656612  1.0000
  H   H18       1.0  0.28621813098368404  0.7798588169392321  0.9877178265469836  1.0000
  H   H19       1.0  0.023183797282200665  0.2799966413772452  0.5121837551138242  1.0000
  H   H20       1.0  0.8162322783530628  0.7202930968048094  0.487631846233171  1.0000
  H   H21       1.0  0.1719457977645999  0.06996146060902932  0.9015689833364817  1.0000
  H   H22       1.0  0.14416387227985417  0.9303065792170957  0.09849209945350171  1.0000
  H   H23       1.0  0.9915801158195304  0.43044054010576366  0.401349949320661  1.0000
  H   H24       1.0  0.8241452312878578  0.5697528258380659  0.5982756002117994  1.0000
  C   C1        1.0  0.47076179411226354  0.8787773322753338  0.8235010825749568  1.0000
  C   C2        1.0  0.17394480960901856  0.12102838624657862  0.17674144114869253  1.0000
  C   C3        1.0  0.09981592958168055  0.6213328107573304  0.32314304872702587  1.0000
  C   C4        1.0  0.045550396905646696  0.37862459480892596  0.6767715712994188  1.0000
  C   C5        1.0  0.4745367825139224  0.0507803755747886  0.633317000966656  1.0000
  C   C6        1.0  0.15886371978587727  0.9493081810796371  0.36697783342977175  1.0000
  C   C7        1.0  0.27509145976745936  0.4491417136826428  0.13304810239446851  1.0000
  C   C8        1.0  0.8591741971508496  0.5505946875227749  0.8667681843250891  1.0000
  C   C9        1.0  0.6786251246119829  0.18171771495447336  0.8312168976176652  1.0000
  C   C10       1.0  0.6921601148206803  0.8182540981958936  0.16883307489152347  1.0000
  C   C11       1.0  0.6097133413853584  0.3183356194420455  0.3311790598193767  1.0000
  C   C12       1.0  0.2607254521140446  0.681642743426423  0.6688213631018911  1.0000
  C   C13       1.0  0.5980524250808298  0.2670813773478713  0.8905181932922019  1.0000
  C   C14       1.0  0.7558966801752404  0.7329192788245179  0.10947053060041165  1.0000
  C   C15       1.0  0.6143835331393959  0.23297246582163209  0.3905076905122158  1.0000
  C   C16       1.0  0.23939376103524498  0.7670265441922338  0.6095606420439665  1.0000
  C   C17       1.0  0.7355540102967878  0.2822405858375631  0.956535813792712  1.0000
  C   C18       1.0  0.9745319284125599  0.7178686840376756  0.04348468482009349  1.0000
  C   C19       1.0  0.7670266175296373  0.21797865549240214  0.45646308678981035  1.0000
  C   C20       1.0  0.44292944347007757  0.7821938494676248  0.5435527597903375  1.0000
  C   C21       1.0  0.9443234674400784  0.2114366815563429  0.9607862282865439  1.0000
  C   C22       1.0  0.11688006931493086  0.788764911571114  0.03926335003168902  1.0000
  C   C23       1.0  0.9052061184592688  0.28889386798153543  0.46065259131188435  1.0000
  C   C24       1.0  0.6558190527523493  0.7113190213594931  0.5392056758326474  1.0000
  C   C25       1.0  0.011377817129236602  0.1276786423571963  0.8999042277734404  1.0000
  C   C26       1.0  0.03953165217505012  0.8725018171775291  0.10016413356575532  1.0000
  C   C27       1.0  0.8886389456358259  0.37260355941335627  0.39975850686662545  1.0000
  C   C28       1.0  0.6619904672602317  0.6275166514430524  0.6000257264644729  1.0000
  S   S1        1.0  0.7115423614863019  0.8577823076611251  0.8685847624714144  1.0000
  S   S2        1.0  0.43931058971144676  0.1412919939323913  0.13110923665225022  1.0000
  S   S3        1.0  0.31957109306727477  0.6420749143206947  0.3684590378387895  1.0000
  S   S4        1.0  0.33118153680005946  0.3578987662460308  0.6313453626006263  1.0000
  S   S5        1.0  0.23336729754498708  0.0648899105994616  0.5892615178399438  1.0000
  S   S6        1.0  0.8873361247792884  0.9358192473845294  0.4113262517251997  1.0000
  S   S7        1.0  0.047917503298513964  0.4354279881812034  0.0888079291553225  1.0000
  S   S8        1.0  0.5740799258436342  0.5644036091185711  0.9108754192946265  1.0000
  N   N1        1.0  0.2946777086695462  0.8917848456813432  0.7919114536230438  1.0000
  N   N2        1.0  0.9789390048681456  0.10857147970421721  0.20876603169661223  1.0000
  N   N3        1.0  0.9367667209529245  0.6085052963305629  0.2913458967007969  1.0000
  N   N4        1.0  0.8379878429074312  0.39144833410203733  0.7086296956530803  1.0000
  N   N5        1.0  0.6505601514888679  0.04197879081726089  0.6643831007028353  1.0000
  N   N6        1.0  0.3574577609054615  0.9575750023010842  0.3356876276715682  1.0000
  N   N7        1.0  0.4423738674844272  0.45765441498617315  0.16428006091337014  1.0000
  N   N8        1.0  0.06614577843510012  0.5420918206243927  0.8356446892407945  1.0000
  N   N9        1.0  0.878725065057118  0.1138661146665143  0.8363765091368974  1.0000
  N   N10       1.0  0.829702080047113  0.8861995893945434  0.16370967728241234  1.0000
  N   N11       1.0  0.742048442778362  0.38629938521538076  0.3362661113313408  1.0000
  N   N12       1.0  0.4659911732272162  0.6137395910177902  0.663591726781533  1.0000
  N   N13       1.0  0.38949963297475426  0.3361995048220977  0.8793932028179298  1.0000
  N   N14       1.0  0.605078163987393  0.6637479773262243  0.12047064816451324  1.0000
  N   N15       1.0  0.47487904024389116  0.16371682418449043  0.3794329505810127  1.0000
  N   N16       1.0  0.019636365020275378  0.8361287350817863  0.6206476975908259  1.0000
