data_image0
_chemical_formula_structural       Zn2H22C28N8O10
_chemical_formula_sum              "Zn2 H22 C28 N8 O10"
_cell_length_a       9.336388985111675
_cell_length_b       9.429548245179186
_cell_length_c       9.62613509844488
_cell_angle_alpha    91.72266041746006
_cell_angle_beta     112.37396674381506
_cell_angle_gamma    98.02054802415788

_space_group_name_H-M_alt    "P 1"
_space_group_IT_number       1

loop_
  _space_group_symop_operation_xyz
  'x, y, z'

loop_
  _atom_site_type_symbol
  _atom_site_label
  _atom_site_symmetry_multiplicity
  _atom_site_fract_x
  _atom_site_fract_y
  _atom_site_fract_z
  _atom_site_occupancy
  Zn  Zn1       1.0  0.840707873056857  0.5675341221391009  0.0035666110341452  1.0000
  Zn  Zn2       1.0  0.15929545905783016  0.43246036400113025  0.9964346327737987  1.0000
  H   H1        1.0  0.43077966032146253  0.43224839398018144  0.5615552372627732  1.0000
  H   H2        1.0  0.5692182417454318  0.5677481912303649  0.4384461614849188  1.0000
  H   H3        1.0  0.36031183118159044  0.34960545760623774  0.6919588343725709  1.0000
  H   H4        1.0  0.6396902854761137  0.6503954358006895  0.3080473807036058  1.0000
  H   H5        1.0  0.34676978475251724  0.6298525182810977  0.455170034236673  1.0000
  H   H6        1.0  0.6532313512624909  0.3701494656186526  0.5448317030231281  1.0000
  H   H7        1.0  0.14329746491146983  0.7897286645416062  0.39038637173528923  1.0000
  H   H8        1.0  0.8567021451803638  0.2102711605924199  0.6096147291926785  1.0000
  H   H9        1.0  0.960874514484132  0.772587760755691  0.5284922681560432  1.0000
  H   H10       1.0  0.039126439429118406  0.2274131419863039  0.47151040325533  1.0000
  H   H11       1.0  0.1767494962770044  0.7631189962552443  0.06486460844969602  1.0000
  H   H12       1.0  0.8232575020736375  0.2368765661786938  0.9351421760817477  1.0000
  H   H13       1.0  0.016833974597176404  0.09207444419103442  0.24451164991190674  1.0000
  H   H14       1.0  0.9831544567345887  0.9079210593335321  0.7554758410568001  1.0000
  H   H15       1.0  0.27429732653448  0.1648020910231267  0.19373553022887793  1.0000
  H   H16       1.0  0.7256953183633073  0.8351977264831165  0.8062557380384734  1.0000
  H   H17       1.0  0.3390790280560907  0.0286075147217275  0.11285855306016405  1.0000
  H   H18       1.0  0.6609159413058094  0.9713922898996616  0.8871387635069611  1.0000
  H   H19       1.0  0.3189682027585903  0.17825187789565433  0.46410181147667373  1.0000
  H   H20       1.0  0.6810251797693068  0.8217522121739762  0.5358950714529486  1.0000
  H   H21       1.0  0.4894630234806668  0.1293218724923975  0.7244552453235827  1.0000
  H   H22       1.0  0.510531336615564  0.870681144440276  0.2755429983328952  1.0000
  C   C1        1.0  0.5623261207162145  0.5136003052080512  0.7959283473811071  1.0000
  C   C2        1.0  0.43768251000745545  0.4863846143430806  0.2040630826459449  1.0000
  C   C3        1.0  0.40869016104191747  0.4521659389267326  0.6638173015844588  1.0000
  C   C4        1.0  0.5913131132363033  0.5478349740715842  0.33618726200733573  1.0000
  C   C5        1.0  0.2708186214994939  0.6340403387488324  0.516789083454711  1.0000
  C   C6        1.0  0.7291823313889763  0.36596056977845853  0.4832125489268223  1.0000
  C   C7        1.0  0.1571042443934019  0.7202969122261678  0.48075443476781043  1.0000
  C   C8        1.0  0.8428947554079753  0.2797061310044385  0.5192465542196772  1.0000
  C   C9        1.0  0.05795639035397224  0.7116818479655295  0.5596375553557708  1.0000
  C   C10       1.0  0.9420424273456405  0.2883201141073215  0.440364367783282  1.0000
  C   C11       1.0  0.07674209802897282  0.6246566726147833  0.6769693925693263  1.0000
  C   C12       1.0  0.9232553778987977  0.37534420027951404  0.3230330381460007  1.0000
  C   C13       1.0  0.2022826239857451  0.5410045877773302  0.7198223253156684  1.0000
  C   C14       1.0  0.7977207714834122  0.45900385059270143  0.28018150681889165  1.0000
  C   C15       1.0  0.9617009685138311  0.6203462102849997  0.7519986346598486  1.0000
  C   C16       1.0  0.03829711770439562  0.3796514445127173  0.24800390799595828  1.0000
  C   C17       1.0  0.101104607461437  0.8223228666931491  0.09743531163830711  1.0000
  C   C18       1.0  0.8988989108541502  0.1776726774636685  0.9025691541374246  1.0000
  C   C19       1.0  0.017266559405172258  0.9886907808161355  0.19214606835817702  1.0000
  C   C20       1.0  0.9827266968078587  0.0113058128082386  0.8078463508794871  1.0000
  C   C21       1.0  0.2948133921210355  0.0531920063118179  0.19966541763458423  1.0000
  C   C22       1.0  0.7051813930895321  0.9468067287224073  0.800330755024426  1.0000
  C   C23       1.0  0.40517160146215747  0.028289343564615897  0.3547884513546364  1.0000
  C   C24       1.0  0.5948225115223452  0.9717190595654375  0.6452067730283916  1.0000
  C   C25       1.0  0.39864832490911783  0.1000788105613779  0.4811739392709742  1.0000
  C   C26       1.0  0.6013521987658662  0.8999264030055373  0.5188256079886743  1.0000
  C   C27       1.0  0.49318239920083334  0.0720132149197283  0.6259035010545376  1.0000
  C   C28       1.0  0.5068150076178242  0.9279941484708587  0.37409082011642175  1.0000
  N   N1        1.0  0.2902365515405804  0.5462570499850585  0.6291024434748638  1.0000
  N   N2        1.0  0.7097676373455784  0.45374924566085173  0.3709016054784515  1.0000
  N   N3        1.0  0.9573545601576537  0.7718286975212507  0.08757400966848641  1.0000
  N   N4        1.0  0.04264858985526841  0.22816470746123232  0.9124281682910297  1.0000
  N   N5        1.0  0.9033710031478532  0.8765622120741057  0.14839709090875888  1.0000
  N   N6        1.0  0.09662518269580997  0.1234311794953058  0.8515962934199736  1.0000
  N   N7        1.0  0.14231903584209968  0.9597265641046353  0.1610366786628959  1.0000
  N   N8        1.0  0.8576778876316736  0.040271100028157  0.8389623203281077  1.0000
  O   O1        1.0  0.663482204993514  0.42713558689193587  0.838496597794027  1.0000
  O   O2        1.0  0.33651630121511994  0.5728578149337835  0.16149867871512666  1.0000
  O   O3        1.0  0.5855790198601268  0.6397509144664184  0.8529277251692806  1.0000
  O   O4        1.0  0.41443615338690176  0.36025869105470326  0.14707839953680243  1.0000
  O   O5        1.0  0.24001349265024163  0.4600465282985906  0.8251561739368329  1.0000
  O   O6        1.0  0.7599975953952052  0.5399662481155262  0.17485271522224366  1.0000
  O   O7        1.0  0.9920659684018744  0.5595373702401786  0.8771943885970332  1.0000
  O   O8        1.0  0.007932542930689138  0.440456002659083  0.12280608306130603  1.0000
  O   O9        1.0  0.8427734168418012  0.6786084561206636  0.6932941805033792  1.0000
  O   O10       1.0  0.1572256459199721  0.3213881313253992  0.3067086838494504  1.0000
