data_image0
_chemical_formula_structural       Cu2H24C32N2O8
_chemical_formula_sum              "Cu2 H24 C32 N2 O8"
_cell_length_a       9.649710020992732
_cell_length_b       9.844127674184902
_cell_length_c       10.783148483466334
_cell_angle_alpha    89.81805164352451
_cell_angle_beta     82.4486040652661
_cell_angle_gamma    61.21268448779714

_space_group_name_H-M_alt    "P 1"
_space_group_IT_number       1

loop_
  _space_group_symop_operation_xyz
  'x, y, z'

loop_
  _atom_site_type_symbol
  _atom_site_label
  _atom_site_symmetry_multiplicity
  _atom_site_fract_x
  _atom_site_fract_y
  _atom_site_fract_z
  _atom_site_occupancy
  Cu  Cu1       1.0  0.626692676432803  0.5075315066165516  0.5086008298717174  1.0000
  Cu  Cu2       1.0  0.37331401714965295  0.4924735164705539  0.49140248697386096  1.0000
  H   H1        1.0  0.9350432242173524  0.04482394151571609  0.6103880726248646  1.0000
  H   H2        1.0  0.06495116594425811  0.9551788038349187  0.3895999065188248  1.0000
  H   H3        1.0  0.051776723424311014  0.7899390452685963  0.7074887800106922  1.0000
  H   H4        1.0  0.9482252040041244  0.2100590064569019  0.29249837997650724  1.0000
  H   H5        1.0  0.8832994400608029  0.6658094388251712  0.7672436148664302  1.0000
  H   H6        1.0  0.1167005038436102  0.3341863087771627  0.23274191248968623  1.0000
  H   H7        1.0  0.6056812352684916  0.7857754210294698  0.7168646608108842  1.0000
  H   H8        1.0  0.3943099057715499  0.21423783675571426  0.28314034901321605  1.0000
  H   H9        1.0  0.4898175352533798  0.041645280436640085  0.6214871434161963  1.0000
  H   H10       1.0  0.510176566226711  0.9583621309524444  0.3785092054306886  1.0000
  H   H11       1.0  0.531118217319772  0.6956617350169694  0.8962984221437295  1.0000
  H   H12       1.0  0.4688546279303479  0.3043632439095418  0.10370672063967129  1.0000
  H   H13       1.0  0.43579808147403987  0.770493376652027  0.12487434425901969  1.0000
  H   H14       1.0  0.5641806301337836  0.2295303775368325  0.8751264467601699  1.0000
  H   H15       1.0  0.20684964197833  0.7438167866873613  0.2287349470842059  1.0000
  H   H16       1.0  0.7931621385442114  0.2561627950915477  0.7712799149951052  1.0000
  H   H17       1.0  0.06265323344580759  0.6531824774200742  0.10324483380579608  1.0000
  H   H18       1.0  0.9373688345559399  0.34677391450652806  0.8967772883727889  1.0000
  H   H19       1.0  0.1556557537811614  0.5841847334537816  0.8737375378815314  1.0000
  H   H20       1.0  0.8443337163478262  0.4158147063548157  0.12627881032827298  1.0000
  H   H21       1.0  0.9358022054699898  0.3306419679025511  0.6310481768849456  1.0000
  H   H22       1.0  0.0642205928763389  0.6693409383929279  0.3689543397271322  1.0000
  H   H23       1.0  0.7928254586329255  0.6797263949418876  0.3841825829124517  1.0000
  H   H24       1.0  0.20719679021566856  0.3202576648869879  0.6158181370719404  1.0000
  C   C1        1.0  0.631316880649976  0.2178130779090992  0.5632896731137577  1.0000
  C   C2        1.0  0.3686839744400885  0.7821849913721548  0.43669945946195543  1.0000
  C   C3        1.0  0.7043185015563793  0.0601919100158241  0.6130172464330242  1.0000
  C   C4        1.0  0.2956844645865218  0.9398061365848206  0.38697072687865125  1.0000
  C   C5        1.0  0.8632814379392569  0.9882732152870731  0.6359514653174045  1.0000
  C   C6        1.0  0.1367174112108529  0.01172255815829  0.3640378919025621  1.0000
  C   C7        1.0  0.9277315823007508  0.8466355549399083  0.6911179567515473  1.0000
  C   C8        1.0  0.07226663465468867  0.15336368226808617  0.3088686811851744  1.0000
  C   C9        1.0  0.8333260466828916  0.7762612776932301  0.723310216786416  1.0000
  C   C10       1.0  0.1666735370510324  0.2237414420331518  0.2766818289796901  1.0000
  C   C11       1.0  0.6764175463548056  0.8446000788041912  0.6971125458057229  1.0000
  C   C12       1.0  0.3235794707334634  0.15540150276333967  0.3028788566146189  1.0000
  C   C13       1.0  0.6119431656961751  0.9864600492838418  0.6422126134990335  1.0000
  C   C14       1.0  0.388052624867818  0.013546166154270598  0.35777798756103607  1.0000
  C   C15       1.0  0.4062437620108668  0.588306784691909  0.7350010149850731  1.0000
  C   C16       1.0  0.593748884544432  0.4117076246642526  0.2650056821356371  1.0000
  C   C17       1.0  0.34814257413693633  0.6366732224715576  0.8713031828707255  1.0000
  C   C18       1.0  0.6518337852921263  0.3633424753016711  0.12870251868236693  1.0000
  C   C19       1.0  0.42709264807655967  0.6893157339175175  0.9420014182665071  1.0000
  C   C20       1.0  0.5728855743145331  0.3107068718627913  0.05800035605588497  1.0000
  C   C21       1.0  0.3742276311319727  0.729812448457615  0.06978109571758039  1.0000
  C   C22       1.0  0.6257576547583383  0.27020202992158465  0.9302273372330703  1.0000
  C   C23       1.0  0.24387443575752601  0.7160302125418453  0.12811024645183264  1.0000
  C   C24       1.0  0.7561258825582866  0.2839621666014834  0.8718993588538309  1.0000
  C   C25       1.0  0.1644771038433603  0.6641744806689117  0.057920592734660686  1.0000
  C   C26       1.0  0.8355312900290456  0.3358120554595061  0.9420909186798666  1.0000
  C   C27       1.0  0.2156571858150683  0.6254672174955261  0.929812571753473  1.0000
  C   C28       1.0  0.7843348957914456  0.3745333438973759  0.0702007052514233  1.0000
  C   C29       1.0  0.9653358396232079  0.4066449384530272  0.5730286621244927  1.0000
  C   C30       1.0  0.034683071648288474  0.593343777927039  0.42697241576366446  1.0000
  C   C31       1.0  0.8866664027532214  0.5992045124233413  0.43529855154321934  1.0000
  C   C32       1.0  0.11335526297374088  0.4007807133698478  0.5647031577264839  1.0000
  N   N1        1.0  0.8525389670423703  0.5058328476139521  0.5084823763012096  1.0000
  N   N2        1.0  0.14748214918686384  0.494153531712641  0.49151753634081524  1.0000
  O   O1        1.0  0.7149836245625991  0.28702801674810263  0.5537182402197302  1.0000
  O   O2        1.0  0.28503880633913786  0.7129605350865161  0.4462518466859321  1.0000
  O   O3        1.0  0.4895489331701698  0.27320130167814927  0.5373357594833548  1.0000
  O   O4        1.0  0.510450939554502  0.7268130883786058  0.4626803454593968  1.0000
  O   O5        1.0  0.5395655183729174  0.5792121647308478  0.6891711591025994  1.0000
  O   O6        1.0  0.4604283531872894  0.42076987655428155  0.31084288336992216  1.0000
  O   O7        1.0  0.3175586744643225  0.5585357154778094  0.6744773326085038  1.0000
  O   O8        1.0  0.6824220388422969  0.4414926157707201  0.32551581064721796  1.0000
