data_image0
_chemical_formula_structural       Cd8H24C40N16Cl8O16
_chemical_formula_sum              "Cd8 H24 C40 N16 Cl8 O16"
_cell_length_a       12.808769034420305
_cell_length_b       12.808796878752768
_cell_length_c       12.808789824659513
_cell_angle_alpha    63.26072719395995
_cell_angle_beta     84.25276015131895
_cell_angle_gamma    116.73918541078625

_space_group_name_H-M_alt    "P 1"
_space_group_IT_number       1

loop_
  _space_group_symop_operation_xyz
  'x, y, z'

loop_
  _atom_site_type_symbol
  _atom_site_label
  _atom_site_symmetry_multiplicity
  _atom_site_fract_x
  _atom_site_fract_y
  _atom_site_fract_z
  _atom_site_occupancy
  Cd  Cd1       1.0  0.859614931688398  0.9999996785190248  0.14038414689724749  1.0000
  Cd  Cd2       1.0  0.1403854264705373  4.443809232383671e-07  0.8596143445368939  1.0000
  Cd  Cd3       1.0  0.3596151429869536  2.9746473024098646e-07  0.6403846370625602  1.0000
  Cd  Cd4       1.0  0.6403842575549206  3.909335220805779e-07  0.35961509515394147  1.0000
  Cd  Cd5       1.0  0.4060676809090822  0.500000342717705  0.9060672092465794  1.0000
  Cd  Cd6       1.0  0.5939317245352383  0.49999956939373663  0.09393251806772437  1.0000
  Cd  Cd7       1.0  0.9060691215846788  0.3121382123720481  0.5939308348913458  1.0000
  Cd  Cd8       1.0  0.09393121886981957  0.6878638414741047  0.40606854657446695  1.0000
  H   H1        1.0  0.8488740893167943  0.28129052439609153  0.956436161140232  1.0000
  H   H2        1.0  0.762273367533936  0.7187088211741258  0.4324167393635677  1.0000
  H   H3        1.0  0.9564355430172357  0.8053095806868172  0.762273685694872  1.0000
  H   H4        1.0  0.4324179343689068  0.19469136804683287  0.8488735457275071  1.0000
  H   H5        1.0  0.3488739887448631  0.8053097290531  0.9324166442909672  1.0000
  H   H6        1.0  0.2622730965388342  0.19468971767318524  0.4564357873381867  1.0000
  H   H7        1.0  0.4564357892789062  0.7187093775855472  0.34887460801105874  1.0000
  H   H8        1.0  0.9324168800493737  0.28129001695689493  0.26227380508348835  1.0000
  H   H9        1.0  0.005322288509908897  0.5477954532833565  0.8223329219568427  1.0000
  H   H10       1.0  0.629871187136729  0.45220445872374176  0.5424739683084638  1.0000
  H   H11       1.0  0.8223325671756925  0.8276552781025049  0.6298711191410717  1.0000
  H   H12       1.0  0.5424737019847399  0.17234520373273207  0.005322845121710901  1.0000
  H   H13       1.0  0.5053214550002565  0.8276549627396862  0.042473893788809475  1.0000
  H   H14       1.0  0.1298702658680995  0.17234398011615334  0.3223336633786645  1.0000
  H   H15       1.0  0.32233341533596166  0.45220536669339145  0.5053216859698537  1.0000
  H   H16       1.0  0.04247342897787829  0.5477946312579789  0.1298723241882911  1.0000
  H   H17       1.0  0.22968858038984052  0.6402643689824501  0.8106159166273841  1.0000
  H   H18       1.0  0.549119565207114  0.35973614035328433  0.41057551163371653  1.0000
  H   H19       1.0  0.810616906297369  0.040306160666602975  0.5491191985338519  1.0000
  H   H20       1.0  0.4105756358224611  0.9596954872021258  0.22968900165736975  1.0000
  H   H21       1.0  0.7296895320632545  0.04030649441924108  0.9105748259340131  1.0000
  H   H22       1.0  0.049118608631253786  0.9596947912032975  0.31061660722928514  1.0000
  H   H23       1.0  0.3106165645115979  0.3597357827667197  0.7296887875687191  1.0000
  H   H24       1.0  0.9105759844160417  0.640263914614174  0.04912027814319225  1.0000
  C   C1        1.0  0.1521541275270053  0.2023970498186713  0.037066795501949905  1.0000
  C   C2        1.0  0.7605376974626878  0.7976038122756822  0.05024215298401909  1.0000
  C   C3        1.0  0.0370670834382238  0.1892196921506014  0.7605368549436378  1.0000
  C   C4        1.0  0.05024344881655201  0.8107795885472129  0.15215345615498427  1.0000
  C   C5        1.0  0.6521528131760874  0.1892211851959546  0.5502423730910095  1.0000
  C   C6        1.0  0.2605360278091879  0.8107800291046419  0.537067701463812  1.0000
  C   C7        1.0  0.5370665051936782  0.7976037184185927  0.6521534674181099  1.0000
  C   C8        1.0  0.5502425021901729  0.2023962332888162  0.26053715834024155  1.0000
  C   C9        1.0  0.10776994696635708  0.30147574165857083  0.9827382780366491  1.0000
  C   C10       1.0  0.7157857084995313  0.6985248919027074  0.19370677261031952  1.0000
  C   C11       1.0  0.9827382029612152  0.09050734123878376  0.7157848220272528  1.0000
  C   C12       1.0  0.19370684699413232  0.9094922514581971  0.10776886574641512  1.0000
  C   C13       1.0  0.6077685262376278  0.0905081074121912  0.6937066085383918  1.0000
  C   C14       1.0  0.2157852346956659  0.9094921241137185  0.48273915831654796  1.0000
  C   C15       1.0  0.482739139841442  0.698524047273068  0.6077692520651683  1.0000
  C   C16       1.0  0.6937068519318856  0.3014757366707742  0.21578495538070536  1.0000
  C   C17       1.0  0.9487443265630874  0.33148382007919286  0.9421582883927327  1.0000
  C   C18       1.0  0.7263576760407772  0.6685164009060999  0.3827391366478424  1.0000
  C   C19       1.0  0.9421586297097874  0.8909031348328968  0.7263573317842146  1.0000
  C   C20       1.0  0.38274030791739466  0.1090977343141121  0.9487436244512183  1.0000
  C   C21       1.0  0.44874426237291226  0.8909030729495626  0.8827396590084149  1.0000
  C   C22       1.0  0.22635546813715018  0.10909605132798113  0.44215976401564216  1.0000
  C   C23       1.0  0.4421587215013005  0.6685158379600367  0.448744135404347  1.0000
  C   C24       1.0  0.8827394159675634  0.3314830986231883  0.22635712227597796  1.0000
  C   C25       1.0  0.0340102889325493  0.4767562369993358  0.8702011517309386  1.0000
  C   C26       1.0  0.6530431085008103  0.5232446472531365  0.4427456364084109  1.0000
  C   C27       1.0  0.8702007037731503  0.904211072332565  0.6530425143071029  1.0000
  C   C28       1.0  0.4427465914127353  0.09578942433261527  0.03401032110367201  1.0000
  C   C29       1.0  0.5340104463407798  0.904210851130287  0.9427463260891643  1.0000
  C   C30       1.0  0.1530420111799558  0.09578866767428455  0.37020081280087425  1.0000
  C   C31       1.0  0.3702015511873782  0.5232436265901158  0.5340096850756951  1.0000
  C   C32       1.0  0.9427466986184712  0.47675590666253254  0.1530427848777976  1.0000
  C   C33       1.0  0.1578077634362955  0.527687917404194  0.8633897322354827  1.0000
  C   C34       1.0  0.6089219540645628  0.4723119537348381  0.36988042131888216  1.0000
  C   C35       1.0  0.8633900415778228  0.02119764459427414  0.6089219303718139  1.0000
  C   C36       1.0  0.36987999362794005  0.978802499736453  0.15780789037463447  1.0000
  C   C37       1.0  0.6578078836086975  0.021198377307215088  0.8698797953961305  1.0000
  C   C38       1.0  0.10892182898971471  0.9788022701186209  0.3633903630604323  1.0000
  C   C39       1.0  0.3633908012885456  0.4723121323869252  0.657806967180086  1.0000
  C   C40       1.0  0.8698801885371877  0.52768704853127  0.1089224881090729  1.0000
  N   N1        1.0  0.985739314712397  0.24495646224006853  0.9993951367610239  1.0000
  N   N2        1.0  0.7556474133503243  0.7550430335357703  0.2592172278209547  1.0000
  N   N3        1.0  0.9993951227191359  0.9851346278502578  0.7556468733868372  1.0000
  N   N4        1.0  0.2592181544390186  0.014864824771493056  0.9857394891556837  1.0000
  N   N5        1.0  0.48573946354533604  0.9851349687185122  0.7592176899678834  1.0000
  N   N6        1.0  0.2556468771512783  0.014865384958575725  0.49939596619401533  1.0000
  N   N7        1.0  0.4993951967115038  0.7550425368463178  0.48573984164488604  1.0000
  N   N8        1.0  0.7592182152985032  0.24495712494635324  0.2556464764940288  1.0000
  N   N9        1.0  0.19411990432548265  0.4399358610863116  0.9192296992417113  1.0000
  N   N10       1.0  0.6408333317285084  0.5600644777574146  0.24581581222196291  1.0000
  N   N11       1.0  0.9192301964897425  0.11334994742467344  0.6408341505961985  1.0000
  N   N12       1.0  0.24581537534781012  0.8866491400402552  0.19412066789382015  1.0000
  N   N13       1.0  0.6941202369371524  0.11335062286283934  0.7458158271601932  1.0000
  N   N14       1.0  0.14083394093481869  0.8866499072277635  0.4192302039756869  1.0000
  N   N15       1.0  0.4192309452159079  0.5600644420301324  0.6941200938838608  1.0000
  N   N16       1.0  0.7458155744338129  0.4399356325101068  0.14083349362818606  1.0000
  Cl  Cl1       1.0  0.6519332214771509  0.9999997176943723  0.15193233425952  1.0000
  Cl  Cl2       1.0  0.8480667990370276  1.2931974424182726e-07  0.348067693755617  1.0000
  Cl  Cl3       1.0  0.15193236791036208  0.8038651100011053  0.8480674046654358  1.0000
  Cl  Cl4       1.0  0.34806819855003107  0.19613523393032747  0.6519324522591037  1.0000
  Cl  Cl5       1.0  0.6099077172505076  0.5000008171304701  0.8900932126064164  1.0000
  Cl  Cl6       1.0  0.890089415912641  0.4999993783193307  0.60991030606327  1.0000
  Cl  Cl7       1.0  0.1099099816321356  0.5000009121647013  0.3900903014783168  1.0000
  Cl  Cl8       1.0  0.3900935778239543  0.5000002733031508  0.10990580340212124  1.0000
  O   O1        1.0  0.0681051917287121  0.07143932338960471  0.10744924443444151  1.0000
  O   O2        1.0  0.8211106561749445  0.9285596817352513  0.0033344476189542203  1.0000
  O   O3        1.0  0.10744839358157782  0.17555289351668094  0.8211125503121436  1.0000
  O   O4        1.0  0.0033343335018471976  0.8244454895920583  0.06810531515566962  1.0000
  O   O5        1.0  0.5681049680438691  0.17555388735425492  0.5033336950319055  1.0000
  O   O6        1.0  0.3211116879176501  0.8244466719617947  0.6074488153493292  1.0000
  O   O7        1.0  0.6074489418134091  0.9285595344582019  0.5681053421952955  1.0000
  O   O8        1.0  0.5033332210132571  0.07143935207604823  0.3211107218247947  1.0000
  O   O9        1.0  0.2696530637650127  0.25759844669394744  0.0073081173151052885  1.0000
  O   O10       1.0  0.7350942843429421  0.7424002657347092  0.9879467200226343  1.0000
  O   O11       1.0  0.0073064722250962  0.276958115490068  0.7350946898250896  1.0000
  O   O12       1.0  0.987945936184282  0.723040839148965  0.2696521879837592  1.0000
  O   O13       1.0  0.7696527412675565  0.27695887897612453  0.48794632470639243  1.0000
  O   O14       1.0  0.2350955527472038  0.723041994728874  0.5073064112304877  1.0000
  O   O15       1.0  0.5073066702489086  0.7424007973109994  0.7696525498061604  1.0000
  O   O16       1.0  0.4879457332580159  0.25759893361484393  0.23509433290487897  1.0000
