data_image0
_chemical_formula_structural       ZnH20C32Br4N8O8
_chemical_formula_sum              "Zn1 H20 C32 Br4 N8 O8"
_cell_length_a       8.509200917746492
_cell_length_b       8.785628856464998
_cell_length_c       11.515615618406327
_cell_angle_alpha    89.85302850775437
_cell_angle_beta     85.02107943417529
_cell_angle_gamma    81.90316113954125

_space_group_name_H-M_alt    "P 1"
_space_group_IT_number       1

loop_
  _space_group_symop_operation_xyz
  'x, y, z'

loop_
  _atom_site_type_symbol
  _atom_site_label
  _atom_site_symmetry_multiplicity
  _atom_site_fract_x
  _atom_site_fract_y
  _atom_site_fract_z
  _atom_site_occupancy
  Zn  Zn1       1.0  0.49999884780489606  0.5000006473076724  0.4999999852263741  1.0000
  H   H1        1.0  0.24757875713338245  0.6346396134264864  0.4171072524042927  1.0000
  H   H2        1.0  0.7524213013202542  0.36536165594838366  0.5828925626952639  1.0000
  H   H3        1.0  0.1722307212461516  0.6107899058576294  0.54818688294759  1.0000
  H   H4        1.0  0.8277671280960276  0.38921023092910184  0.4518122177568387  1.0000
  H   H5        1.0  0.25522196256975593  0.34841138966193336  0.659146812430329  1.0000
  H   H6        1.0  0.744779432561984  0.6515887174528529  0.340852923492271  1.0000
  H   H7        1.0  0.5168428239005325  0.22256215213764818  0.34567513022293633  1.0000
  H   H8        1.0  0.48315517917404804  0.7774368268204697  0.6543231007331656  1.0000
  H   H9        1.0  0.396402041437554  0.9802643545262626  0.3329510770823916  1.0000
  H   H10       1.0  0.6035983260046578  0.019734607380144098  0.6670478667684777  1.0000
  H   H11       1.0  0.19521800903088146  0.9220739074400937  0.49347840120307757  1.0000
  H   H12       1.0  0.8047810232570145  0.07792622491515998  0.5065214900727213  1.0000
  H   H13       1.0  0.7660298973693928  0.9756886519078872  0.9959359577322857  1.0000
  H   H14       1.0  0.2339740204337204  0.024310304892850392  0.004066226080674101  1.0000
  H   H15       1.0  0.7252803729631268  0.2900655409099571  0.26782117681865  1.0000
  H   H16       1.0  0.2747199990504258  0.7099334455627326  0.7321803717761314  1.0000
  H   H17       1.0  0.8598717628369742  0.4742878011931779  0.1455839862572788  1.0000
  H   H18       1.0  0.1401257790404173  0.5257146512507731  0.8544168539437962  1.0000
  H   H19       1.0  0.9599193576733783  0.39950869109809156  0.9378635234399367  1.0000
  H   H20       1.0  0.04007700125830377  0.6004937657773368  0.06213652618977511  1.0000
  C   C1        1.0  0.20555572265088531  0.13324278003040746  0.5867372721939788  1.0000
  C   C2        1.0  0.7944444910589398  0.8667573397046127  0.4132625414052242  1.0000
  C   C3        1.0  0.28060050419334454  0.265245168693795  0.5875798956035253  1.0000
  C   C4        1.0  0.7194010461945766  0.7347537887811413  0.4124198388187211  1.0000
  C   C5        1.0  0.4290847209191995  0.19330714356387801  0.41321660362287105  1.0000
  C   C6        1.0  0.5709144651010901  0.8066918309627623  0.5867824179046011  1.0000
  C   C7        1.0  0.36120426680680134  0.058843424417190676  0.40652819744329355  1.0000
  C   C8        1.0  0.6387937377915593  0.9411555627296834  0.5934709017607744  1.0000
  C   C9        1.0  0.2483910421126581  0.027511631059979898  0.49405477316273755  1.0000
  C   C10       1.0  0.7516079871276702  0.9724884849177541  0.5059433816171222  1.0000
  C   C11       1.0  0.0858293077999477  0.100867847967308  0.6772782412141964  1.0000
  C   C12       1.0  0.9141725546241092  0.8991288184166846  0.32272235845530167  1.0000
  C   C13       1.0  0.9356427592966697  0.1223506596295252  0.837598670096824  1.0000
  C   C14       1.0  0.06435982030456698  0.8776494512425471  0.1624027246451121  1.0000
  C   C15       1.0  0.8740640788272457  0.17963956776893034  0.9527599244996096  1.0000
  C   C16       1.0  0.1259362916625264  0.8203594105149958  0.0472407558471986  1.0000
  C   C17       1.0  0.7897992602391709  0.08645360796661089  0.027362339014779007  1.0000
  C   C18       1.0  0.21020434552781342  0.9135476399250706  0.9726389795509219  1.0000
  C   C19       1.0  0.7669372948731092  0.26084202997593303  0.17747911285274404  1.0000
  C   C20       1.0  0.2330649742157647  0.7391603801758393  0.8225222848899136  1.0000
  C   C21       1.0  0.8447360313729391  0.3635438099920377  0.1091113047559205  1.0000
  C   C22       1.0  0.15526490103783167  0.6364597624198184  0.8908901721636866  1.0000
  C   C23       1.0  0.8996572495478079  0.3227411882860878  0.9947206596156093  1.0000
  C   C24       1.0  0.10034162596012652  0.6772600855202597  0.005278364912570102  1.0000
  C   C25       1.0  0.447269703768832  0.5262839529028935  0.11927804757648629  1.0000
  C   C26       1.0  0.5527316883153544  0.4737161378343727  0.8807199518501747  1.0000
  C   C27       1.0  0.5305897733916963  0.6309026535438705  0.05663107955619039  1.0000
  C   C28       1.0  0.46941280163819954  0.3690974327619188  0.9433677104418408  1.0000
  C   C29       1.0  0.5850817250433024  0.604272959233917  0.9388759939985789  1.0000
  C   C30       1.0  0.41491966704088407  0.3957271315033494  0.06112200542808211  1.0000
  C   C31       1.0  0.40072240304471757  0.550734136717729  0.2494023431897148  1.0000
  C   C32       1.0  0.5992778091413271  0.44926597482852765  0.750596602161515  1.0000
  Br  Br1       1.0  0.5669143957453784  0.8122441224367163  0.1334832463024469  1.0000
  Br  Br2       1.0  0.43308432298260163  0.1877582928207175  0.8665149114781272  1.0000
  Br  Br3       1.0  0.708177739773319  0.7417423235609987  0.8581920320286329  1.0000
  Br  Br4       1.0  0.2918224708889454  0.2582577797965015  0.1418060450746239  1.0000
  N   N1        1.0  0.39006318134118356  0.29452219174095257  0.5021027109151673  1.0000
  N   N2        1.0  0.6099346695247759  0.705477953234535  0.4978972580372271  1.0000
  N   N3        1.0  0.0008239012787071428  0.9872511777088633  0.6791216736362671  1.0000
  N   N4        1.0  0.9991776521567743  0.012747796143592898  0.32087979728191124  1.0000
  N   N5        1.0  0.9040607712988447  0.0010451718118673976  0.7824724888722442  1.0000
  N   N6        1.0  0.09594196508233918  0.9989537976091117  0.21752977261731132  1.0000
  N   N7        1.0  0.7372044803431664  0.12512648161856527  0.1374899218195651  1.0000
  N   N8        1.0  0.2627977902694952  0.8748759367219703  0.8625123441710513  1.0000
  O   O1        1.0  0.0499552438925051  0.19221956449552374  0.7749496721084838  1.0000
  O   O2        1.0  0.9500474894411256  0.8077793885479351  0.22505085288512558  1.0000
  O   O3        1.0  0.2612658123398576  0.6135112756685998  0.2816934173686931  1.0000
  O   O4        1.0  0.7387269992784836  0.38649120269001  0.7183051287948673  1.0000
  O   O5        1.0  0.5114281502208583  0.5041021180870757  0.3144283122893299  1.0000
  O   O6        1.0  0.48856599807558604  0.4958991980114433  0.685570154697281  1.0000
  O   O7        1.0  0.2633067837942775  0.6450466024882147  0.5041808916467829  1.0000
  O   O8        1.0  0.7366946082899091  0.3549534882490519  0.49581710777987814  1.0000
