data_image0
_chemical_formula_structural       Ca2H16C10Br2O16
_chemical_formula_sum              "Ca2 H16 C10 Br2 O16"
_cell_length_a       6.819875551353987
_cell_length_b       7.6763801783596906
_cell_length_c       9.922070845082132
_cell_angle_alpha    75.61499435669583
_cell_angle_beta     72.75904095687673
_cell_angle_gamma    78.8408509665138

_space_group_name_H-M_alt    "P 1"
_space_group_IT_number       1

loop_
  _space_group_symop_operation_xyz
  'x, y, z'

loop_
  _atom_site_type_symbol
  _atom_site_label
  _atom_site_symmetry_multiplicity
  _atom_site_fract_x
  _atom_site_fract_y
  _atom_site_fract_z
  _atom_site_occupancy
  Ca  Ca1       1.0  0.1977291500949576  0.4913509394869351  0.12445056448229515  1.0000
  Ca  Ca2       1.0  0.8022628009728409  0.5086488775234486  0.8755503750075635  1.0000
  H   H1        1.0  0.2850451553279214  0.16564801230792628  0.9814598979501028  1.0000
  H   H2        1.0  0.7149570527179493  0.8343547353075849  0.01854036481922346  1.0000
  H   H3        1.0  0.2519164270823282  0.08065234937172511  0.14931030233051254  1.0000
  H   H4        1.0  0.7480851677152317  0.9193449582098836  0.8506880974963241  1.0000
  H   H5        1.0  0.12135579773566722  0.3191167172458548  0.4596239766381134  1.0000
  H   H6        1.0  0.8786450952983245  0.6808846525620922  0.5403748058399389  1.0000
  H   H7        1.0  0.20795005387002163  0.16429861277470081  0.3721680369155394  1.0000
  H   H8        1.0  0.7920523691113814  0.8357027898507569  0.6278304207215373  1.0000
  H   H9        1.0  0.2539305200632214  0.8874101684293764  0.9295939140231372  1.0000
  H   H10       1.0  0.7460813431038106  0.11259006430612568  0.070404815632287  1.0000
  H   H11       1.0  0.039710273948522  0.8217641288236308  0.953610810795269  1.0000
  H   H12       1.0  0.9603010796076747  0.1782388320506172  0.046384483280888796  1.0000
  H   H13       1.0  0.8866127978020445  0.7597376918615028  0.27775843677635953  1.0000
  H   H14       1.0  0.1133815569626009  0.24026623120530388  0.7222462618791995  1.0000
  H   H15       1.0  0.09394847227036962  0.7826949092501607  0.308681716296178  1.0000
  H   H16       1.0  0.9060511399259144  0.2173050663965199  0.691318605537923  1.0000
  C   C1        1.0  0.48068458813454373  0.662678189211974  0.39772604883218327  1.0000
  C   C2        1.0  0.5193099701742341  0.33732439431600614  0.6022758381420135  1.0000
  C   C3        1.0  0.6630293797461775  0.5052724742915942  0.1950532245707137  1.0000
  C   C4        1.0  0.3369650293595469  0.4947219628686669  0.8049462088438164  1.0000
  C   C5        1.0  0.6033865947235598  0.340682784829312  0.45515814620694073  1.0000
  C   C6        1.0  0.3966110234800554  0.659319864333682  0.5448430910853119  1.0000
  C   C7        1.0  0.4696948122542182  0.8333504785074695  0.28328693668579774  1.0000
  C   C8        1.0  0.530305014877598  0.16664815214915762  0.716711580016046  1.0000
  C   C9        1.0  0.5835961315748435  0.5010101254457666  0.3537484041932757  1.0000
  C   C10       1.0  0.41639973035442074  0.49899384134101143  0.646253956523097  1.0000
  Br  Br1       1.0  0.7301815563037054  0.12385869120027584  0.3886883709514706  1.0000
  Br  Br2       1.0  0.2698233588898162  0.8761373152213494  0.6113116002576079  1.0000
  O   O1        1.0  0.6403292727367501  0.8787991690442284  0.19854078291823643  1.0000
  O   O2        1.0  0.35966859457658273  0.12120211877500958  0.8014616688890898  1.0000
  O   O3        1.0  0.8551598543378206  0.4904028439719211  0.13779992885082493  1.0000
  O   O4        1.0  0.14483585838839025  0.5095929764471379  0.8621999783058742  1.0000
  O   O5        1.0  0.5305524133420505  0.528553342648344  0.12315269031048369  1.0000
  O   O6        1.0  0.4694352892392856  0.47145318818964904  0.8768478590314858  1.0000
  O   O7        1.0  0.2903767329358971  0.9168038408927331  0.27944040669273573  1.0000
  O   O8        1.0  0.7096204869549467  0.0831920232462977  0.72055716252477  1.0000
  O   O9        1.0  0.21089742573484932  0.1899025382909088  0.07810627667377192  1.0000
  O   O10       1.0  0.7891052463562788  0.8100975029907858  0.9218933954783781  1.0000
  O   O11       1.0  0.1848068037762829  0.2961848119763033  0.36151863083765085  1.0000
  O   O12       1.0  0.8151973982622636  0.7038152621229016  0.6384807164735238  1.0000
  O   O13       1.0  0.15731882685157225  0.8061428148857958  0.9969861546261787  1.0000
  O   O14       1.0  0.8426949961339504  0.19385476068709548  0.0030086399237631606  1.0000
  O   O15       1.0  0.995856397300102  0.6942468170069276  0.325178422373881  1.0000
  O   O16       1.0  0.004138398726993808  0.3057544106285306  0.6748236725662836  1.0000
