data_image0
_chemical_formula_structural       Al2H9C16S2N3O12
_chemical_formula_sum              "Al2 H9 C16 S2 N3 O12"
_cell_length_a       6.745113932158666
_cell_length_b       11.179004194097455
_cell_length_c       12.831370630023844
_cell_angle_alpha    58.53148168874725
_cell_angle_beta     67.71729219049166
_cell_angle_gamma    71.13338514049202

_space_group_name_H-M_alt    "P 1"
_space_group_IT_number       1

loop_
  _space_group_symop_operation_xyz
  'x, y, z'

loop_
  _atom_site_type_symbol
  _atom_site_label
  _atom_site_symmetry_multiplicity
  _atom_site_fract_x
  _atom_site_fract_y
  _atom_site_fract_z
  _atom_site_occupancy
  Al  Al1       1.0  0.5011728470285416  0.5006536390601043  0.4993395609552209  1.0000
  Al  Al2       1.0  0.003969864263858349  0.5000035358633071  0.49828150932586357  1.0000
  H   H1        1.0  0.2251138112188471  0.6865221487576392  0.39868063398802883  1.0000
  H   H2        1.0  0.7801102054920649  0.31489109331914744  0.6027098826596172  1.0000
  H   H3        1.0  0.11522851159045185  0.1017681150327833  0.5498699906831063  1.0000
  H   H4        1.0  0.7868157141767327  0.12623592400289146  0.46345843945442045  1.0000
  H   H5        1.0  0.22762317072044175  0.8653550813429975  0.5469067436938743  1.0000
  H   H6        1.0  0.5393725422114032  0.41483728546580073  0.8911618327396907  1.0000
  H   H7        1.0  0.5063336113078734  0.4048950272862158  0.7678236948526872  1.0000
  H   H8        1.0  0.4625166358520902  0.5857713526926318  0.10737275614430078  1.0000
  H   H9        1.0  0.4957725638813813  0.597048807069619  0.2301481109509638  1.0000
  C   C1        1.0  0.8805624307061496  0.5458057441203863  0.2861124648966822  1.0000
  C   C2        1.0  0.627286281722718  0.7272879582997619  0.494999737951623  1.0000
  C   C3        1.0  0.12280824214730758  0.45291953115338424  0.7127949113542512  1.0000
  C   C4        1.0  0.3779459465897546  0.2703849265466547  0.5057538139992487  1.0000
  C   C5        1.0  0.5646111688598693  0.8655417605617475  0.5006252423157347  1.0000
  C   C6        1.0  0.4434815006558497  0.13019803894022172  0.5038285113900898  1.0000
  C   C7        1.0  0.7180972483881547  0.9395939130097237  0.48106576009110547  1.0000
  C   C8        1.0  0.2857275927011074  0.056050375956587614  0.5285161716649326  1.0000
  C   C9        1.0  0.6631268635506798  0.07085358855175637  0.48003883319070434  1.0000
  C   C10       1.0  0.3466284665956607  0.9261137152030727  0.5261452064941351  1.0000
  C   C11       1.0  0.22384380114461072  0.4486657039198931  0.8862668246752534  1.0000
  C   C12       1.0  0.7781776572996152  0.5488296483218774  0.11355958083909452  1.0000
  C   C13       1.0  0.07234785879008145  0.46838485921361456  0.8248073772466354  1.0000
  C   C14       1.0  0.9297770123245286  0.5291153503289863  0.17492427645714057  1.0000
  C   C15       1.0  0.8891622820687674  0.5189013997864507  0.008004766815588447  1.0000
  C   C16       1.0  0.11275234195082362  0.4775134758136019  0.992361229416957  1.0000
  S   S1        1.0  0.8055079894602314  0.5259987732747862  0.8933408871011749  1.0000
  S   S2        1.0  0.196801264357255  0.4709165539927583  0.10676240695031682  1.0000
  N   N1        1.0  0.9445520700798794  0.869775186325434  0.4763209655308528  1.0000
  N   N2        1.0  0.44034512925234287  0.40747414845557733  0.8524405784642183  1.0000
  N   N3        1.0  0.5621216934708074  0.5909727813534361  0.1470255237650235  1.0000
  O   O1        1.0  0.6778886155969771  0.582657332350479  0.3336150082293513  1.0000
  O   O2        1.0  0.8295360314532091  0.6823655054255509  0.46554446587750686  1.0000
  O   O3        1.0  0.9705693691962695  0.47358307014570045  0.6655069529616923  1.0000
  O   O4        1.0  0.5287769142675318  0.33208238367068793  0.48361296954188754  1.0000
  O   O5        1.0  0.3261889539611645  0.41722119859098683  0.6653467323231863  1.0000
  O   O6        1.0  0.1753020352403779  0.31655761155668244  0.5300510300058858  1.0000
  O   O7        1.0  0.03444585251468627  0.5239710113730496  0.33277106092711495  1.0000
  O   O8        1.0  0.47545578659534743  0.6663967740328475  0.5182487103175288  1.0000
  O   O9        1.0  0.25509660445324306  0.5833748184818931  0.4332801796957425  1.0000
  O   O10       1.0  0.7499892901426436  0.4177532121265203  0.564264452546645  1.0000
  O   O11       1.0  0.9793493895507341  0.7833564755101605  0.5810298662435968  1.0000
  O   O12       1.0  0.08284993054792983  0.903629329964204  0.3732126746566351  1.0000
