data_image0
_chemical_formula_structural       Hg2P4H36Au4C60Cl8F32
_chemical_formula_sum              "Hg2 P4 H36 Au4 C60 Cl8 F32"
_cell_length_a       10.96936935705341
_cell_length_b       11.348404507282476
_cell_length_c       18.488913984079243
_cell_angle_alpha    72.17280217359537
_cell_angle_beta     72.73249897089129
_cell_angle_gamma    61.076196831027936

_space_group_name_H-M_alt    "P 1"
_space_group_IT_number       1

loop_
  _space_group_symop_operation_xyz
  'x, y, z'

loop_
  _atom_site_type_symbol
  _atom_site_label
  _atom_site_symmetry_multiplicity
  _atom_site_fract_x
  _atom_site_fract_y
  _atom_site_fract_z
  _atom_site_occupancy
  Hg  Hg1       1.0  0.4999992912241567  3.6392951158999808e-06  1.1148727593615015e-06  1.0000
  Hg  Hg2       1.0  0.49999448484184933  0.499996247052131  0.5000016097561755  1.0000
  P   P1        1.0  0.19936624517745835  0.3694528672049486  0.8546320156208154  1.0000
  P   P2        1.0  0.4228720974520926  0.13082048092933013  0.6454831456670219  1.0000
  P   P3        1.0  0.8006368632661277  0.6305447546486533  0.14536760804542573  1.0000
  P   P4        1.0  0.5771275101698805  0.8691843258378141  0.3545169412899155  1.0000
  H   H1        1.0  0.005120876457432619  0.5118837018929057  0.7837405207266102  1.0000
  H   H2        1.0  0.30001144883462394  0.9884129510191358  0.7161114026854065  1.0000
  H   H3        1.0  0.9948802043168499  0.4881149465732123  0.2162586518154582  1.0000
  H   H4        1.0  0.6999957420013629  0.011590827812277398  0.28388836075979634  1.0000
  H   H5        1.0  0.1199142167671566  0.35614524059541  0.7490833605187319  1.0000
  H   H6        1.0  0.22419924108798753  0.14397297997157213  0.7508963468739437  1.0000
  H   H7        1.0  0.8800881923440969  0.6438534075116776  0.25091544091188206  1.0000
  H   H8        1.0  0.7758062073450277  0.8560287468451405  0.2491043836455801  1.0000
  H   H9        1.0  0.17310770926882663  0.4914786364417694  0.723549200928737  1.0000
  H   H10       1.0  0.3872019001801164  0.008557047641858202  0.7764936910410609  1.0000
  H   H11       1.0  0.8268940005100947  0.5085210379187969  0.2764487782662569  1.0000
  H   H12       1.0  0.612805263397668  0.9914457045973748  0.22350476521000928  1.0000
  H   H13       1.0  0.12810709556470817  0.2550295308434515  0.9814002944764368  1.0000
  H   H14       1.0  0.36434372563343254  0.24556203441960633  0.5186597197303299  1.0000
  H   H15       1.0  0.87189294193454  0.7449732229651288  0.01859859771206361  1.0000
  H   H16       1.0  0.6356474003148308  0.7544417476837351  0.4813398670813526  1.0000
  H   H17       1.0  0.09269772132203276  0.20989169381888223  0.9083175319358928  1.0000
  H   H18       1.0  0.2105001906430034  0.2907152651412517  0.591638212901742  1.0000
  H   H19       1.0  0.9073017731071504  0.7901110602256624  0.09168190071329003  1.0000
  H   H20       1.0  0.7894951741643302  0.709286464311738  0.4083649460487209  1.0000
  H   H21       1.0  0.9790869896039781  0.37334495415059626  0.9351946146732216  1.0000
  H   H22       1.0  0.28721159430161697  0.1274164402439908  0.5646424733109683  1.0000
  H   H23       1.0  0.02091359096533553  0.62665779942202  0.06480373705458932  1.0000
  H   H24       1.0  0.7127863412450709  0.8725842623605189  0.4353605963029778  1.0000
  H   H25       1.0  0.04359498760371858  0.585749751265645  0.8957197558293617  1.0000
  H   H26       1.0  0.524877388351968  0.914508037919255  0.6043085446277772  1.0000
  H   H27       1.0  0.9564059369082971  0.4142499232179874  0.10427805401640454  1.0000
  H   H28       1.0  0.47511269432126824  0.08549984952655618  0.39569076183033747  1.0000
  H   H29       1.0  0.21288114290999272  0.5802908300532152  0.8463742964901256  1.0000
  H   H30       1.0  0.6391445979312355  0.9201332614006077  0.6536954650649064  1.0000
  H   H31       1.0  0.787118953265626  0.41971192329359763  0.1536226356178431  1.0000
  H   H32       1.0  0.3608550841783893  0.0798674395724674  0.3463020630059219  1.0000
  H   H33       1.0  0.19349643076598963  0.4910282106794953  0.9437036407044346  1.0000
  H   H34       1.0  0.6277686233274693  0.009469913729468298  0.5564240128120517  1.0000
  H   H35       1.0  0.8065044506765418  0.5089745425442517  0.056293460752769336  1.0000
  H   H36       1.0  0.37223003131840215  0.9905307872537749  0.4435726360996242  1.0000
  Au  Au1       1.0  0.436741412244736  0.22200711305614357  0.8371627720107141  1.0000
  Au  Au2       1.0  0.4955892805740378  0.277887251482106  0.6630765408212085  1.0000
  Au  Au3       1.0  0.5632617120101245  0.7779864034651567  0.1628362528499352  1.0000
  Au  Au4       1.0  0.5044134135991527  0.7221155016084139  0.3369216091443831  1.0000
  C   C1        1.0  0.6535014770648925  0.09767172720675887  0.8243690765321857  1.0000
  C   C2        1.0  0.5753580422345125  0.40215222708413717  0.6757323155953685  1.0000
  C   C3        1.0  0.3464959197760962  0.9023197383769386  0.17563202873714087  1.0000
  C   C4        1.0  0.4246459919269583  0.5978484739611858  0.3242694389219878  1.0000
  C   C5        1.0  0.7435588272056393  0.14284653124849458  0.8348174966486965  1.0000
  C   C6        1.0  0.72111332757099  0.35702629495656885  0.6652679136080337  1.0000
  C   C7        1.0  0.2564368112167089  0.8571541712634385  0.1651831048370198  1.0000
  C   C8        1.0  0.27889398082214006  0.6429702993406609  0.3347299993396219  1.0000
  C   C9        1.0  0.8906298368177303  0.0719707280289512  0.8208163599601263  1.0000
  C   C10       1.0  0.7831749939904288  0.4280919253123158  0.6791776503169656  1.0000
  C   C11       1.0  0.109362656377023  0.9280320286213808  0.1791881385974676  1.0000
  C   C12       1.0  0.21683475613799894  0.5719056947461354  0.3208201177920031  1.0000
  C   C13       1.0  0.9530816801033597  0.9477824300998987  0.7957649335119041  1.0000
  C   C14       1.0  0.6961857757828654  0.5523797293151844  0.7040924199471659  1.0000
  C   C15       1.0  0.04692131078308392  0.0522223762878866  0.20423654065188399  1.0000
  C   C16       1.0  0.30382604508434236  0.4476137853906366  0.2959065076745233  1.0000
  C   C17       1.0  0.8669531493506852  0.8977822058195315  0.7853878180356658  1.0000
  C   C18       1.0  0.5496144985459855  0.6022893961788541  0.7145214995282103  1.0000
  C   C19       1.0  0.13305864009835505  0.10221233594024427  0.21461437686068757  1.0000
  C   C20       1.0  0.4503949779674271  0.3977092508206468  0.2854788260455051  1.0000
  C   C21       1.0  0.7204817549767952  0.9734753255371803  0.7993789921058294  1.0000
  C   C22       1.0  0.49298492802548605  0.5263682699069108  0.7006696675289915  1.0000
  C   C23       1.0  0.27952603801441717  0.02651408537520439  0.20062241012516313  1.0000
  C   C24       1.0  0.5070218370931842  0.4736355082369315  0.29932671621585166  1.0000
  C   C25       1.0  0.1162511011112031  0.4389565161083624  0.7695665369129187  1.0000
  C   C26       1.0  0.3239763939249729  0.06122809259738199  0.7304004278240085  1.0000
  C   C27       1.0  0.8837505227331448  0.5610421321217842  0.23043209516846722  1.0000
  C   C28       1.0  0.6760285973725572  0.9387746605857149  0.2696001902698129  1.0000
  C   C29       1.0  0.08888749043936886  0.2949213697358389  0.9266821535730188  1.0000
  C   C30       1.0  0.3101400555471231  0.20565557180088223  0.5732948494469027  1.0000
  C   C31       1.0  0.9111116758584005  0.7050803580653877  0.07331722215263163  1.0000
  C   C32       1.0  0.6898595092097608  0.7943451300957349  0.4267065987849818  1.0000
  C   C33       1.0  0.1584709388812799  0.5214401644519313  0.8884067607162152  1.0000
  C   C34       1.0  0.5678803306278797  0.9789400568835445  0.6116849992101051  1.0000
  C   C35       1.0  0.841530071565309  0.47856053616212074  0.11159039624315878  1.0000
  C   C36       1.0  0.4321168939351665  0.0210637236606104  0.3883132725049946  1.0000
  C   C37       1.0  0.5220042696895606  0.14573847673864296  0.03552412234110137  1.0000
  C   C38       1.0  0.7030769290427233  0.3540415498956264  0.46446073633534707  1.0000
  C   C39       1.0  0.47799901062317246  0.8542611973757985  0.9644741955523628  1.0000
  C   C40       1.0  0.296915224573688  0.6459550485869059  0.5355417992989899  1.0000
  C   C41       1.0  0.40790070083862423  0.2632565270232448  0.05716123503255228  1.0000
  C   C42       1.0  0.7282450987843558  0.23665777685516085  0.44268324725229036  1.0000
  C   C43       1.0  0.5920952459483004  0.7367441770997942  0.9428466663145868  1.0000
  C   C44       1.0  0.2717465390201994  0.7633398484555229  0.5573211360368759  1.0000
  C   C45       1.0  0.4220990457833339  0.3634220613150845  0.07836368923243238  1.0000
  C   C46       1.0  0.8639642370093343  0.13642542984594289  0.4215658900247944  1.0000
  C   C47       1.0  0.5778981475659392  0.6365755626723768  0.9216399194208335  1.0000
  C   C48       1.0  0.13603137415481098  0.8635742460738103  0.5784334042667822  1.0000
  C   C49       1.0  0.5590671313803456  0.3423935559911726  0.07768539418815114  1.0000
  C   C50       1.0  0.9792147048885769  0.15738963588582777  0.4223391419148823  1.0000
  C   C51       1.0  0.4409316208514232  0.6576061194363234  0.9223145775003658  1.0000
  C   C52       1.0  0.020778034662988804  0.8426110672312679  0.5776614919838252  1.0000
  C   C53       1.0  0.6781481721529019  0.22576538067672652  0.05637387032398066  1.0000
  C   C54       1.0  0.9601932392007484  0.27405260042318247  0.4436534439948402  1.0000
  C   C55       1.0  0.3218450988174059  0.774237373890564  0.9436222474508185  1.0000
  C   C56       1.0  0.03979818762073261  0.7259511813312969  0.5563448925462353  1.0000
  C   C57       1.0  0.6550333701372181  0.1306522153880962  0.035687744790159515  1.0000
  C   C58       1.0  0.8211916396839243  0.3690965682886116  0.46436238492336906  1.0000
  C   C59       1.0  0.34496028764088027  0.8693515649607518  0.9643064698276405  1.0000
  C   C60       1.0  0.17879539971197306  0.6309031104830608  0.5356416365781556  1.0000
  Cl  Cl1       1.0  0.2787001923179632  0.5089133572383487  0.10255931550116772  1.0000
  Cl  Cl2       1.0  0.8903808014798715  0.9908844225570022  0.39738181265531836  1.0000
  Cl  Cl3       1.0  0.721299087376984  0.49108323967483597  0.8974427841957391  1.0000
  Cl  Cl4       1.0  0.10961066841109364  0.0091162804573628  0.6026172322743122  1.0000
  Cl  Cl5       1.0  0.8458547382515036  0.2020203759180959  0.05249218605301545  1.0000
  Cl  Cl6       1.0  0.10023997786060342  0.2978592610366277  0.4475243829902666  1.0000
  Cl  Cl7       1.0  0.15414238872565272  0.7979844301818062  0.9475027628852501  1.0000
  Cl  Cl8       1.0  0.8997481318641365  0.702144522595411  0.5524791563954636  1.0000
  F   F1        1.0  0.6881935652060492  0.2638055518283053  0.8591374665117683  1.0000
  F   F2        1.0  0.811170782384913  0.23600882638305623  0.6410358242554252  1.0000
  F   F3        1.0  0.3117927906687968  0.7361910478645514  0.14086513394854447  1.0000
  F   F4        1.0  0.1888335998792314  0.7639867419271483  0.35896081391107504  1.0000
  F   F5        1.0  0.9735075945980471  0.122429143204613  0.8302856853518957  1.0000
  F   F6        1.0  0.9260120013883082  0.3777942638594638  0.6696305755240458  1.0000
  F   F7        1.0  0.02648068283588141  0.8775787463344005  0.16972112272986098  1.0000
  F   F8        1.0  0.07399369360591361  0.6221982258133566  0.3303683600000866  1.0000
  F   F9        1.0  0.09525249835574111  0.877056077806003  0.7805478603539768  1.0000
  F   F10       1.0  0.7523169376896421  0.623276492586939  0.7192032470096379  1.0000
  F   F11       1.0  0.9047506485885746  0.12295488617491664  0.2194529068426262  1.0000
  F   F12       1.0  0.2476944807628811  0.3767129180589848  0.2808002522381301  1.0000
  F   F13       1.0  0.9276302338731953  0.7770498999683896  0.7609451330881994  1.0000
  F   F14       1.0  0.46498088705027396  0.72310256565423  0.7388679822182381  1.0000
  F   F15       1.0  0.072388681654374  0.2229446402220319  0.2390566258707238  1.0000
  F   F16       1.0  0.5350316173379781  0.2768940281304141  0.26113236644465576  1.0000
  F   F17       1.0  0.6421701958265588  0.92014768950461  0.7864095953410125  1.0000
  F   F18       1.0  0.34828651479413975  0.5796875059480229  0.7136865144114353  1.0000
  F   F19       1.0  0.3578430395165882  0.07983966736194498  0.21359037794633903  1.0000
  F   F20       1.0  0.6517175622324276  0.42031729996783435  0.28631387883098114  1.0000
  F   F21       1.0  0.27413469815667213  0.2840903043618681  0.05741481842464681  1.0000
  F   F22       1.0  0.6155949287503192  0.21588710042460948  0.4423261180868181  1.0000
  F   F23       1.0  0.7258629483725234  0.7159011632946956  0.9425955467866274  1.0000
  F   F24       1.0  0.3843973224519887  0.7841084725021759  0.5576797403243603  1.0000
  F   F25       1.0  0.5761619747895497  0.4380269954960029  0.09717805129780292  1.0000
  F   F26       1.0  0.11156125711329425  0.0617273518101626  0.4028908654035134  1.0000
  F   F27       1.0  0.42383783216417503  0.5619737065135126  0.9028241067439992  1.0000
  F   F28       1.0  0.8884334984562512  0.9382743763805835  0.5971062439561335  1.0000
  F   F29       1.0  0.7709272413648378  0.0182640756366155  0.013250310483783738  1.0000
  F   F30       1.0  0.8021429631280839  0.48142575704113  0.4868741116325878  1.0000
  F   F31       1.0  0.22907320646022833  0.9817530421608893  0.9867307218140269  1.0000
  F   F32       1.0  0.19784866302515522  0.5185739199557203  0.5131262959933522  1.0000
