data_image0
_chemical_formula_structural       Cd2H38C58N16O8
_chemical_formula_sum              "Cd2 H38 C58 N16 O8"
_cell_length_a       10.558270041272385
_cell_length_b       10.562346405290722
_cell_length_c       12.145110781547164
_cell_angle_alpha    96.35629725161839
_cell_angle_beta     100.29793538086561
_cell_angle_gamma    89.67951368428356

_space_group_name_H-M_alt    "P 1"
_space_group_IT_number       1

loop_
  _space_group_symop_operation_xyz
  'x, y, z'

loop_
  _atom_site_type_symbol
  _atom_site_label
  _atom_site_symmetry_multiplicity
  _atom_site_fract_x
  _atom_site_fract_y
  _atom_site_fract_z
  _atom_site_occupancy
  Cd  Cd1       1.0  0.35693352285890256  0.0338502658289954  0.10848628736177089  1.0000
  Cd  Cd2       1.0  0.6431007671536335  0.9660851562773305  0.8915260686409852  1.0000
  H   H1        1.0  0.5972922467587906  0.9214111768186802  0.2661992456052432  1.0000
  H   H2        1.0  0.40274197851964993  0.07857369086660533  0.733848830973173  1.0000
  H   H3        1.0  0.41858461420046217  0.32034714995052144  0.21309702679473472  1.0000
  H   H4        1.0  0.5813859083774701  0.6795894449097873  0.7868924353622403  1.0000
  H   H5        1.0  0.9715420546898983  0.41255131611356427  0.8330729084435973  1.0000
  H   H6        1.0  0.0284312812356688  0.5875020319793763  0.16696918422626794  1.0000
  H   H7        1.0  0.8958103112447802  0.422063671877126  0.5999906109001998  1.0000
  H   H8        1.0  0.10429239947198002  0.5776125438919312  0.39995512384553683  1.0000
  H   H9        1.0  0.028773071869373692  0.34414006509238254  0.6409327321835434  1.0000
  H   H10       1.0  0.9714207989111615  0.6557895924529121  0.3592992467769136  1.0000
  H   H11       1.0  0.4104010651506228  0.3654675030537364  0.49856426844532115  1.0000
  H   H12       1.0  0.5896340568996266  0.6345814823493895  0.5014011821055249  1.0000
  H   H13       1.0  0.5579003056619101  0.4404143762611099  0.6753608804871193  1.0000
  H   H14       1.0  0.4421160653555348  0.5596428639535632  0.32461775716221564  1.0000
  H   H15       1.0  0.8333646033852135  0.1545935213352649  0.5922825925482655  1.0000
  H   H16       1.0  0.16664207179614013  0.8454119605132748  0.4077550501636865  1.0000
  H   H17       1.0  0.5934655743378484  0.22196941114200544  0.7918464754276116  1.0000
  H   H18       1.0  0.4065658000062982  0.7780072583148298  0.20816311692606604  1.0000
  H   H19       1.0  0.8716115739317587  0.5179253138929312  0.9479596335606573  1.0000
  H   H20       1.0  0.128245534915628  0.482219039363244  0.05201620362591092  1.0000
  H   H21       1.0  0.7637544571485151  0.5443181991224223  0.11422149811883742  1.0000
  H   H22       1.0  0.23609668440220585  0.45577042663354217  0.8857623053692907  1.0000
  H   H23       1.0  0.3598013965818082  0.9099391087101341  0.845871690582122  1.0000
  H   H24       1.0  0.6402410287742343  0.0900153911728481  0.15414086452767614  1.0000
  H   H25       1.0  0.23364463682830913  0.7534041997410199  0.6973079459696407  1.0000
  H   H26       1.0  0.7663772156916976  0.2465903789141493  0.30268354760801236  1.0000
  H   H27       1.0  0.020825073495196  0.6718581067837023  0.7289583697000453  1.0000
  H   H28       1.0  0.9791666669168889  0.3281834930488047  0.2710066203483876  1.0000
  H   H29       1.0  0.8507127016180221  0.6862757395696591  0.8495927027899556  1.0000
  H   H30       1.0  0.1492694634231668  0.31377687221677775  0.15035992500713047  1.0000
  H   H31       1.0  0.7886060763189063  0.747886532519935  0.03496068059984483  1.0000
  H   H32       1.0  0.21138726619709297  0.2521396663637745  0.9650067648555734  1.0000
  H   H33       1.0  0.839814313728418  0.8656173769119135  0.23071938468106618  1.0000
  H   H34       1.0  0.1601849458454367  0.13437132361034543  0.7692525336889275  1.0000
  H   H35       1.0  0.9884585335930539  0.010053340676662999  0.3702624624203282  1.0000
  H   H36       1.0  0.011536298673760801  0.9899446729157834  0.6297173870382125  1.0000
  H   H37       1.0  0.197005780245064  0.0810101292623813  0.3190490306068483  1.0000
  H   H38       1.0  0.8029918251143755  0.9189810720128193  0.6809336707176001  1.0000
  C   C1        1.0  0.5024967281661432  0.31949109323156943  0.5213877178296898  1.0000
  C   C2        1.0  0.4975363033962594  0.6805382312021709  0.4785931477709725  1.0000
  C   C3        1.0  0.5870236557485597  0.3627300703491656  0.6186174928927883  1.0000
  C   C4        1.0  0.4129953910690603  0.6373075442424465  0.38137476765990647  1.0000
  C   C5        1.0  0.7090448648078933  0.3058039596261324  0.6457614220335159  1.0000
  C   C6        1.0  0.2909511185114368  0.694227841497174  0.3542367443864834  1.0000
  C   C7        1.0  0.7418346249392157  0.20254497917036232  0.5735978909397873  1.0000
  C   C8        1.0  0.2581696692931886  0.7974594008667498  0.4264170349265727  1.0000
  C   C9        1.0  0.6525760150531497  0.15292422592639815  0.479446470451407  1.0000
  C   C10       1.0  0.3474385250981271  0.8470978535633479  0.5205803183421339  1.0000
  C   C11       1.0  0.5333777051899773  0.21369270544747823  0.4508911983716716  1.0000
  C   C12       1.0  0.4666487889754264  0.7863243087210494  0.5491144173911736  1.0000
  C   C13       1.0  0.44524587940613  0.16908605805515015  0.3465650031301166  1.0000
  C   C14       1.0  0.5547734672896071  0.8309098187719074  0.6534444199089862  1.0000
  C   C15       1.0  0.680951037339284  0.03491258448025291  0.4115007321145043  1.0000
  C   C16       1.0  0.3190755997859398  0.9650941544446141  0.5885250628286159  1.0000
  C   C17       1.0  0.6296355353070169  0.29532324486326184  0.8602254120968027  1.0000
  C   C18       1.0  0.3703445555105134  0.7046836738552856  0.13977568700357784  1.0000
  C   C19       1.0  0.7369893410612037  0.3717367916002488  0.8529960112955949  1.0000
  C   C20       1.0  0.2629691349329235  0.6283125292925079  0.14702700486814282  1.0000
  C   C21       1.0  0.7878516571085681  0.45865616726982966  0.9493290964469454  1.0000
  C   C22       1.0  0.2120381796370197  0.5414416552230537  0.050658845431527814  1.0000
  C   C23       1.0  0.7285153754830347  0.47458293253406947  0.04215353523927942  1.0000
  C   C24       1.0  0.27137936869008433  0.5254864932233191  0.957825024439167  1.0000
  C   C25       1.0  0.6194203726130851  0.4002366396156703  0.04713437510810791  1.0000
  C   C26       1.0  0.3805076422084142  0.5997780516162552  0.9528446486957947  1.0000
  C   C27       1.0  0.5746837505002418  0.3059723938706399  0.9562372415918717  1.0000
  C   C28       1.0  0.42528888637503565  0.6940149769197604  0.04374969150504171  1.0000
  C   C29       1.0  0.48236419272342335  0.20941357686820805  0.9718170408922333  1.0000
  C   C30       1.0  0.5176472546736903  0.7905366076496567  0.02818730116905504  1.0000
  C   C31       1.0  0.5596846043092043  0.41249113905688256  0.1471985876438495  1.0000
  C   C32       1.0  0.4402441631607417  0.587497944218029  0.8528012908291561  1.0000
  C   C33       1.0  0.7913667943398295  0.3541168935975847  0.7525579403611858  1.0000
  C   C34       1.0  0.20861820251896293  0.6459189523918527  0.24746305857824075  1.0000
  C   C35       1.0  0.27012603675967733  0.8685598414079083  0.8580873119896566  1.0000
  C   C36       1.0  0.7299013581222411  0.1314161198076818  0.1419158627033141  1.0000
  C   C37       1.0  0.19741092060145599  0.7827417217159792  0.7745579752693601  1.0000
  C   C38       1.0  0.8026011990125993  0.21725117144069375  0.22542863732913077  1.0000
  C   C39       1.0  0.0805129707865149  0.7384277635165192  0.7920458754161217  1.0000
  C   C40       1.0  0.9194889140446064  0.2615895698681143  0.20792745858336298  1.0000
  C   C41       1.0  0.03856765198771941  0.7789116184473529  0.8943183793716829  1.0000
  C   C42       1.0  0.9614342381029886  0.22110470479092473  0.10565647908103411  1.0000
  C   C43       1.0  0.9170362689562879  0.741079384526735  0.9170338617181458  1.0000
  C   C44       1.0  0.0829619287753758  0.2589526788746569  0.08292922440200813  1.0000
  C   C45       1.0  0.8822678239344555  0.7763510194379889  0.019304408877509557  1.0000
  C   C46       1.0  0.11772837677847289  0.22366920349473676  0.9806692986385245  1.0000
  C   C47       1.0  0.9648827438918702  0.8550330674318548  0.10558592820434856  1.0000
  C   C48       1.0  0.03511970616405341  0.1449660186537471  0.8943893648783716  1.0000
  C   C49       1.0  0.9312379710101624  0.8959375104566049  0.21124017911832743  1.0000
  C   C50       1.0  0.0687625107120695  0.10405568018507695  0.7887398784061688  1.0000
  C   C51       1.0  0.013486436964392109  0.9766870602687878  0.2888630731343725  1.0000
  C   C52       1.0  0.9865151162997279  0.023310910125807997  0.7111168991313762  1.0000
  C   C53       1.0  0.1300724870603105  0.015670635231039395  0.2610247175236182  1.0000
  C   C54       1.0  0.8699328068500163  0.9843195023912089  0.7389597660967696  1.0000
  C   C55       1.0  0.1216449156067441  0.8606562835525652  0.9769929281662115  1.0000
  C   C56       1.0  0.8783624173990532  0.13933761336748773  0.022993129684166957  1.0000
  C   C57       1.0  0.08441058591981941  0.8989105972808178  0.08440977618543141  1.0000
  C   C58       1.0  0.915594683128802  0.1010785881217657  0.915574587005537  1.0000
  N   N1        1.0  0.47293044202125856  0.06078180642957422  0.28775419644801303  1.0000
  N   N2        1.0  0.527091902240592  0.9392128265814534  0.712262913240103  1.0000
  N   N3        1.0  0.5837337754731989  0.9964643568357804  0.32385207841385016  1.0000
  N   N4        1.0  0.41630331875407484  0.003532514789512202  0.6761805771562592  1.0000
  N   N5        1.0  0.4308149770888861  0.2214002782727321  0.06449864229404774  1.0000
  N   N6        1.0  0.5691924313215253  0.7785463123815436  0.9354997432596194  1.0000
  N   N7        1.0  0.4614921924621527  0.3258313659473587  0.14346906886898841  1.0000
  N   N8        1.0  0.5384708600606629  0.6741158726891997  0.8565181704035469  1.0000
  N   N9        1.0  0.9179825494062755  0.38075244695802  0.7570525832499727  1.0000
  N   N10       1.0  0.0820049803428375  0.6193253697069496  0.24299864328835954  1.0000
  N   N11       1.0  0.9705269054747702  0.4158268016953812  0.6655966633661238  1.0000
  N   N12       1.0  0.029516689302383298  0.5840751281378544  0.334441733837899  1.0000
  N   N13       1.0  0.2347747863335456  0.9050473937429122  0.9568387358571119  1.0000
  N   N14       1.0  0.7652486735499621  0.0949307738171044  0.04315673758075887  1.0000
  N   N15       1.0  0.1642139177018223  0.9775989122568094  0.16236660629849814  1.0000
  N   N16       1.0  0.8357991498636964  0.02239099807874819  0.8376230698125441  1.0000
  O   O1        1.0  0.34639853299284334  0.23255787284895052  0.30784462763644177  1.0000
  O   O2        1.0  0.6536204151974374  0.7674257699392655  0.6921591176136419  1.0000
  O   O3        1.0  0.7821591695725659  0.972552647181253  0.4305619860178426  1.0000
  O   O4        1.0  0.21786607175636874  0.027467095876161817  0.5694750941619732  1.0000
  O   O5        1.0  0.4579688851173458  0.10669049825153824  0.9023140822443028  1.0000
  O   O6        1.0  0.5420906377752033  0.8932552460971127  0.0976998196398355  1.0000
  O   O7        1.0  0.5912716856665696  0.4936839880013864  0.23064375856855432  1.0000
  O   O8        1.0  0.4086499104228237  0.5063000044203818  0.7693388256942769  1.0000
