data_image0
_chemical_formula_structural       Zn8H48C42O26
_chemical_formula_sum              "Zn8 H48 C42 O26"
_cell_length_a       15.935821838554583
_cell_length_b       16.305394513492253
_cell_length_c       16.29991377424035
_cell_angle_alpha    90.61114554192746
_cell_angle_beta     118.833823367561
_cell_angle_gamma    116.56207052165638

_space_group_name_H-M_alt    "P 1"
_space_group_IT_number       1

loop_
  _space_group_symop_operation_xyz
  'x, y, z'

loop_
  _atom_site_type_symbol
  _atom_site_label
  _atom_site_symmetry_multiplicity
  _atom_site_fract_x
  _atom_site_fract_y
  _atom_site_fract_z
  _atom_site_occupancy
  Zn  Zn1       1.0  0.043734399999117095  0.0649211888872401  0.11250920366551748  1.0000
  Zn  Zn2       1.0  0.029685938196394097  0.004079070053698801  0.9159556586391842  1.0000
  Zn  Zn3       1.0  0.8525722505755339  0.051635103334255895  0.902347577642011  1.0000
  Zn  Zn4       1.0  0.8462652692326599  0.860262932573562  0.9552433018682719  1.0000
  Zn  Zn5       1.0  0.8536367790155878  0.49163371989201465  0.3291051755052905  1.0000
  Zn  Zn6       1.0  0.8414230450881912  0.4307968088063844  0.5104550095768656  1.0000
  Zn  Zn7       1.0  0.03229978749785552  0.6398573166640775  0.5420704763849713  1.0000
  Zn  Zn8       1.0  0.03727498443009139  0.45119349414744664  0.488179198688904  1.0000
  H   H1        1.0  0.36492493265303233  0.09058193728793641  0.10814699859614758  1.0000
  H   H2        1.0  0.3729164481299136  0.1062961342575548  0.2991374281511766  1.0000
  H   H3        1.0  0.37800020813963175  0.018344783815479097  0.24045121620087423  1.0000
  H   H4        1.0  0.5688982943577513  0.20073095698462137  0.3870415217830823  1.0000
  H   H5        1.0  0.576749614434142  0.12207644613435778  0.3194181644996661  1.0000
  H   H6        1.0  0.5640842024566338  0.2047383738021225  0.19842578647732262  1.0000
  H   H7        1.0  0.43526774295390414  0.2638742687441109  0.13531046576556344  1.0000
  H   H8        1.0  0.4364478775423207  0.2709848544801545  0.2456144252194078  1.0000
  H   H9        1.0  0.9819844134174927  0.3407152432636664  0.046759301451977736  1.0000
  H   H10       1.0  0.1804425257356072  0.35170423551515734  0.22575621179397123  1.0000
  H   H11       1.0  0.17761007256377329  0.4336376430158495  0.15564060553174383  1.0000
  H   H12       1.0  0.1620030257230241  0.4292661665610709  0.3323893635294652  1.0000
  H   H13       1.0  0.19112213475253972  0.5263885843034544  0.2818834556496269  1.0000
  H   H14       1.0  0.9910077537442985  0.46006802677701597  0.16202778854696473  1.0000
  H   H15       1.0  0.8590059396457544  0.2842263891066921  0.10649389584757768  1.0000
  H   H16       1.0  0.9589242734882217  0.27222329257294586  0.21274189412993388  1.0000
  H   H17       1.0  0.794009280132286  0.8544196621138269  0.20447587226126265  1.0000
  H   H18       1.0  0.04546548736855261  0.9560804843361551  0.35941697924589977  1.0000
  H   H19       1.0  0.9534128885992315  0.9926501186389132  0.35067458995126777  1.0000
  H   H20       1.0  0.003320247085000061  0.8725168945227537  0.4659483121850058  1.0000
  H   H21       1.0  0.8767723612795063  0.8709117506715456  0.41782168647911505  1.0000
  H   H22       1.0  0.7734521820811436  0.7241821776198163  0.302634625754095  1.0000
  H   H23       1.0  0.8028104119209585  0.7110025762552609  0.17342652621594815  1.0000
  H   H24       1.0  0.9505280987698296  0.7770306872016731  0.25484931634144176  1.0000
  H   H25       1.0  0.8021249990586551  0.0356727384626794  0.6083676036214738  1.0000
  H   H26       1.0  0.04457918930662431  0.1062510887027557  0.6812047456312482  1.0000
  H   H27       1.0  0.9230240718727953  0.0103550633799543  0.5793864353393017  1.0000
  H   H28       1.0  0.048670349592150296  0.2131017713366745  0.5861175854775027  1.0000
  H   H29       1.0  0.931597497344782  0.11829346922192488  0.4805228755438191  1.0000
  H   H30       1.0  0.8023776202578431  0.1429803763233721  0.498876708147371  1.0000
  H   H31       1.0  0.8398051909707077  0.1956116830255965  0.6601290780845374  1.0000
  H   H32       1.0  0.9860686960130989  0.24573481467103866  0.7151877200038609  1.0000
  H   H33       1.0  0.9779791740873518  0.6787197287898221  0.9348259367661667  1.0000
  H   H34       1.0  0.14366790454762676  0.8335215694834942  0.8969837464225845  1.0000
  H   H35       1.0  0.17864232114546744  0.7918769846603126  0.0019913331462930828  1.0000
  H   H36       1.0  0.16627768467294152  0.7193772379323207  0.834680843056766  1.0000
  H   H37       1.0  0.15082742612153066  0.65173830323279  0.9159920752783035  1.0000
  H   H38       1.0  0.9584815436885207  0.5534489686378166  0.8061073900605817  1.0000
  H   H39       1.0  0.8416660002134788  0.6219806874746183  0.7551261501522217  1.0000
  H   H40       1.0  0.938565224344188  0.7223855234575892  0.7413717277204196  1.0000
  H   H41       1.0  0.5596241891149346  0.76504224661889  0.6547475882030652  1.0000
  H   H42       1.0  0.5186799764526099  0.9261859930188052  0.6828051426757114  1.0000
  H   H43       1.0  0.5480906300445056  0.8995853497370946  0.5981082410250806  1.0000
  H   H44       1.0  0.3271177152168788  0.8253093980507273  0.5651727105482037  1.0000
  H   H45       1.0  0.35299880985560605  0.7833188117636425  0.4845308062414516  1.0000
  H   H46       1.0  0.35358133999544344  0.6539441021810575  0.5491980731064245  1.0000
  H   H47       1.0  0.45244899853052795  0.6748028329714373  0.7241970878510741  1.0000
  H   H48       1.0  0.4335803718578576  0.7709316062900414  0.7464568724325459  1.0000
  C   C1        1.0  0.23912474037052783  0.09927253347136399  0.11121612201156945  1.0000
  C   C2        1.0  0.3593769332398863  0.12421643709102881  0.16281220431746135  1.0000
  C   C3        1.0  0.4051933913433244  0.09465865371493004  0.2567403405397569  1.0000
  C   C4        1.0  0.5341455771649847  0.1614890025152675  0.31272043721446596  1.0000
  C   C5        1.0  0.5545390574199869  0.2327354003487088  0.2530689449089322  1.0000
  C   C6        1.0  0.4441336913242323  0.2324922112231178  0.19610739521143458  1.0000
  C   C7        1.0  0.6575671000786371  0.33147224337893993  0.3116962268036189  1.0000
  C   C8        1.0  0.9846922110849402  0.21562119059363738  0.0744879567970852  1.0000
  C   C9        1.0  0.01203322633983112  0.31556767548980963  0.11148710833172967  1.0000
  C   C10       1.0  0.13627088299981688  0.38906880622261747  0.18980476813099043  1.0000
  C   C11       1.0  0.13553500261915727  0.44891783426785276  0.2637187152183244  1.0000
  C   C12       1.0  0.01234873687905487  0.42051666729033593  0.21530073114917053  1.0000
  C   C13       1.0  0.948652972141886  0.3140147216228614  0.15978479089733366  1.0000
  C   C14       1.0  0.981961507742518  0.43729834898708475  0.2860285012233985  1.0000
  C   C15       1.0  0.906101591113156  0.9043041082063538  0.15857812853398892  1.0000
  C   C16       1.0  0.8783972796693859  0.8668448300809715  0.23223407091520426  1.0000
  C   C17       1.0  0.9592130683015652  0.9294824032312192  0.3388686622816336  1.0000
  C   C18       1.0  0.9288681754460125  0.860817254258535  0.397688474592904  1.0000
  C   C19       1.0  0.8628256762457479  0.758115383630006  0.32943450014055725  1.0000
  C   C20       1.0  0.8721684476188469  0.7705712886482419  0.23970120527152955  1.0000
  C   C21       1.0  0.8957558641604845  0.6873914305149639  0.37262694818760855  1.0000
  C   C22       1.0  0.919880673219289  0.07297215455733409  0.7579149181974072  1.0000
  C   C23       1.0  0.8915952903554967  0.0901843557052615  0.6592711138440136  1.0000
  C   C24       1.0  0.9600061268846358  0.0841483747395486  0.6199110742169011  1.0000
  C   C25       1.0  0.9629495366376017  0.15338778448641924  0.5553245108998296  1.0000
  C   C26       1.0  0.8913806011594685  0.19225852777636726  0.5563430439051799  1.0000
  C   C27       1.0  0.902399506189482  0.1883596747005143  0.6551899025563795  1.0000
  C   C28       1.0  0.9174944753489525  0.2898880180408839  0.540672763444867  1.0000
  C   C29       1.0  0.9700036258986342  0.8028162076567753  0.9064747181483026  1.0000
  C   C30       1.0  0.9982322293539664  0.7284729072995616  0.8932836938311649  1.0000
  C   C31       1.0  0.11967499066462746  0.7696971019777264  0.9223994939061411  1.0000
  C   C32       1.0  0.11688676426041403  0.6898502765289577  0.8672630749742892  1.0000
  C   C33       1.0  0.9920277181181018  0.6195803126014423  0.7865583501146244  1.0000
  C   C34       1.0  0.9307244653991514  0.6716257979984518  0.7849940638608285  1.0000
  C   C35       1.0  0.9673373606024213  0.5897280684579159  0.6853851747492994  1.0000
  C   C36       1.0  0.6543080903420773  0.8613129071900829  0.7938334353921873  1.0000
  C   C37       1.0  0.5454195565446937  0.8070021720078486  0.6947767669521027  1.0000
  C   C38       1.0  0.5032416368789682  0.8670460235101698  0.6340263525991501  1.0000
  C   C39       1.0  0.37605656564371504  0.7969936223575331  0.5606906550701963  1.0000
  C   C40       1.0  0.348635804937217  0.7033270026492531  0.5907865845932604  1.0000
  C   C41       1.0  0.4448240553147116  0.7344986165186853  0.6985820245211015  1.0000
  C   C42       1.0  0.2338507255870467  0.6469115252793783  0.5751200069347036  1.0000
  O   O1        1.0  0.9433521726059126  0.9959602367480969  0.9725740558784536  1.0000
  O   O2        1.0  0.18909947402683258  0.0849958492115448  0.01867422376210468  1.0000
  O   O3        1.0  0.19755612779226783  0.09539779836806161  0.16223121779820096  1.0000
  O   O4        1.0  0.6854792969161421  0.36875020802818165  0.3967208776787671  1.0000
  O   O5        1.0  0.7093782766186646  0.37069094706182426  0.2699271001846809  1.0000
  O   O6        1.0  0.8986956555729788  0.16833579893258124  0.9875710340280647  1.0000
  O   O7        1.0  0.04604203724247209  0.18594644526071144  0.1322908344595604  1.0000
  O   O8        1.0  0.012026348670616525  0.406278860935636  0.3604883173418044  1.0000
  O   O9        1.0  0.9270151722445302  0.4801103897657554  0.2646355762510025  1.0000
  O   O10       1.0  0.8388937175842129  0.8480334117069647  0.07145590257759692  1.0000
  O   O11       1.0  0.991875862132609  0.9872200666379526  0.18815500862950774  1.0000
  O   O12       1.0  0.9743723480400985  0.7144449273075395  0.46227875699563714  1.0000
  O   O13       1.0  0.839608892177644  0.6044148894958782  0.3126408024246528  1.0000
  O   O14       1.0  0.8685789584780392  0.08602308610029748  0.7923771838790041  1.0000
  O   O15       1.0  0.9906983896701573  0.0461189215526616  0.7979790828809852  1.0000
  O   O16       1.0  0.004231545966597062  0.3395697249440132  0.5377897726392289  1.0000
  O   O17       1.0  0.848945197755043  0.31451290634087303  0.5324626026705271  1.0000
  O   O18       1.0  0.9086806123994574  0.7842684076303498  0.9409330010852553  1.0000
  O   O19       1.0  0.00798282429868641  0.877151945856049  0.8801115665719619  1.0000
  O   O20       1.0  0.028974837778605374  0.6506592397116719  0.660955960740324  1.0000
  O   O21       1.0  0.8831365619704312  0.5057871278158002  0.6316936457326036  1.0000
  O   O22       1.0  0.6991463520720556  0.8126891471088696  0.834060937791065  1.0000
  O   O23       1.0  0.6933779808908367  0.9496140631048675  0.8292274957871512  1.0000
  O   O24       1.0  0.18697031932428843  0.6925330366207306  0.576767763286  1.0000
  O   O25       1.0  0.19398489491431553  0.556922249087556  0.562647811441117  1.0000
  O   O26       1.0  0.9426984770855853  0.5041547234589245  0.4692200662761437  1.0000
