data_image0
_chemical_formula_structural       Al2H10C22S2N2Cl2O10
_chemical_formula_sum              "Al2 H10 C22 S2 N2 Cl2 O10"
_cell_length_a       6.6733741633051835
_cell_length_b       12.823372383277194
_cell_length_c       16.91739759694408
_cell_angle_alpha    84.87055337127428
_cell_angle_beta     82.78815210610436
_cell_angle_gamma    73.84907135381009

_space_group_name_H-M_alt    "P 1"
_space_group_IT_number       1

loop_
  _space_group_symop_operation_xyz
  'x, y, z'

loop_
  _atom_site_type_symbol
  _atom_site_label
  _atom_site_symmetry_multiplicity
  _atom_site_fract_x
  _atom_site_fract_y
  _atom_site_fract_z
  _atom_site_occupancy
  Al  Al1       1.0  0.5000034606991549  0.5000001662181006  0.49999749817386885  1.0000
  Al  Al2       1.0  0.9999979314586154  0.5000012364912366  0.4999988343430887  1.0000
  H   H1        1.0  0.2000245576710071  0.6280373466675828  0.4487694257118662  1.0000
  H   H2        1.0  0.799972864722427  0.37196692969114054  0.5512311652503357  1.0000
  H   H3        1.0  0.8553984191175914  0.49723497949889156  0.7356590014934101  1.0000
  H   H4        1.0  0.7912604870059565  0.4983050955841791  0.8859001552713225  1.0000
  H   H5        1.0  0.42659840646312824  0.5063203641142949  0.8955361609259642  1.0000
  H   H6        1.0  0.4890709173090356  0.5074266277772638  0.7446429078992551  1.0000
  H   H7        1.0  0.5734135568728574  0.4936790388778436  0.10446217508125955  1.0000
  H   H8        1.0  0.20874378533424215  0.5016975653958512  0.1140989899297864  1.0000
  H   H9        1.0  0.14460817798963882  0.5027660664154184  0.2643395204795809  1.0000
  H   H10       1.0  0.5109338777022997  0.4925720069627532  0.25535524460632086  1.0000
  C   C1        1.0  0.6513594415232761  0.6945866880200099  0.5054819014633054  1.0000
  C   C2        1.0  0.7878183775847061  0.5001372660398218  0.35645592245172963  1.0000
  C   C3        1.0  0.34864014122393155  0.30541032664636  0.494517195825992  1.0000
  C   C4        1.0  0.21218497812405698  0.49986129139063723  0.6435452639609451  1.0000
  C   C5        1.0  0.17558286428034342  0.5020823696684503  0.7322586925355594  1.0000
  C   C6        1.0  0.9783184150885448  0.49950102397905743  0.7717234544426717  1.0000
  C   C7        1.0  0.9428466067538394  0.4999078068724502  0.8541687698900731  1.0000
  C   C8        1.0  0.10647909559283157  0.502000410998683  0.8986163997749588  1.0000
  C   C9        1.0  0.30346636523058373  0.5047569432526374  0.859302870240285  1.0000
  C   C10       1.0  0.3377496933690195  0.5052062980494938  0.7764779176088936  1.0000
  C   C11       1.0  0.6965407841580741  0.4952400432442872  0.14069584177837413  1.0000
  C   C12       1.0  0.8935291243918757  0.4979974160519873  0.10138102985006733  1.0000
  C   C13       1.0  0.057161200108929174  0.500090833188473  0.1458286371366526  1.0000
  C   C14       1.0  0.021692462846239307  0.5004975550480212  0.2282755725875845  1.0000
  C   C15       1.0  0.8244272821546018  0.49791463873807373  0.2677386826336489  1.0000
  C   C16       1.0  0.6622608069672892  0.49478996370152845  0.2235171146762411  1.0000
  C   C17       1.0  0.5802748634423978  0.11267818117985233  0.5298502954685205  1.0000
  C   C18       1.0  0.4197178693580526  0.8873204488652106  0.4701502475818701  1.0000
  C   C19       1.0  0.41267798910952547  0.18597217886971862  0.49622043512083985  1.0000
  C   C20       1.0  0.5873082476455237  0.8140273198985356  0.5037792108065631  1.0000
  C   C21       1.0  0.41709339775348986  0.9963146711984268  0.47961198056705023  1.0000
  C   C22       1.0  0.5828978809392424  0.003683898125771603  0.5203910050198531  1.0000
  S   S1        1.0  0.2574884889468763  0.1217743160653981  0.4537129420164447  1.0000
  S   S2        1.0  0.7425062251678792  0.8782323551919122  0.5462894323167475  1.0000
  N   N1        1.0  0.08917650431828138  0.5015488146901391  0.9827166940171426  1.0000
  N   N2        1.0  0.9108313765702148  0.49844974242734014  0.017283669862557402  1.0000
  Cl  Cl1       1.0  0.7600114462784402  0.14380128463611191  0.5806680263300379  1.0000
  Cl  Cl2       1.0  0.24000324014137675  0.8561957068687392  0.4193291176767815  1.0000
  O   O1        1.0  0.5149183505794426  0.6475247632388276  0.4930402671597208  1.0000
  O   O2        1.0  0.9316685507392607  0.5185204627127219  0.3918130356882443  1.0000
  O   O3        1.0  0.15936333091497085  0.3519817395326046  0.4810885011711576  1.0000
  O   O4        1.0  0.38483777083155946  0.5146313012976266  0.6099976626655917  1.0000
  O   O5        1.0  0.4850699385368598  0.35247651616905534  0.50695326575687  1.0000
  O   O6        1.0  0.06833419346749992  0.48148222048988737  0.6081855951963958  1.0000
  O   O7        1.0  0.8406259473018096  0.6480177313791845  0.518911582018589  1.0000
  O   O8        1.0  0.615160129817582  0.4853689985871485  0.3900001614892973  1.0000
  O   O9        1.0  0.23326575233406996  0.5514120491432024  0.46569932395201624  1.0000
  O   O10       1.0  0.766735862056059  0.44858985986041944  0.5342982238438694  1.0000
