data_image0
_chemical_formula_structural       Dy2P2H22C18S2N2O18
_chemical_formula_sum              "Dy2 P2 H22 C18 S2 N2 O18"
_cell_length_a       6.7500347382524035
_cell_length_b       7.520374748032255
_cell_length_c       13.33570429223984
_cell_angle_alpha    90.65268227804341
_cell_angle_beta     93.262411597
_cell_angle_gamma    101.85504107803649

_space_group_name_H-M_alt    "P 1"
_space_group_IT_number       1

loop_
  _space_group_symop_operation_xyz
  'x, y, z'

loop_
  _atom_site_type_symbol
  _atom_site_label
  _atom_site_symmetry_multiplicity
  _atom_site_fract_x
  _atom_site_fract_y
  _atom_site_fract_z
  _atom_site_occupancy
  Dy  Dy1       1.0  0.28519761018663564  0.7687748195616352  0.45492052568405217  1.0000
  Dy  Dy2       1.0  0.7148010621914767  0.23122384916599975  0.5450793473356511  1.0000
  P   P1        1.0  0.25079243284911007  0.38644288948849953  0.6207076185080636  1.0000
  P   P2        1.0  0.7492065594026728  0.6135571349054845  0.3792915206982455  1.0000
  H   H1        1.0  0.16778599057659704  0.10668410913579154  0.7742910176095846  1.0000
  H   H2        1.0  0.8322115201240124  0.8933159286481785  0.22570957853012164  1.0000
  H   H3        1.0  0.16659794802750846  0.12571639005467725  0.9613439347373569  1.0000
  H   H4        1.0  0.8334004044769261  0.8742809230066017  0.0386566720957404  1.0000
  H   H5        1.0  0.2144996779887762  0.3197554042549058  0.12026635654006405  1.0000
  H   H6        1.0  0.7855026003958727  0.6802459761780427  0.87973513416577  1.0000
  H   H7        1.0  0.2736149007070098  0.6276902285072837  0.19927845962972404  1.0000
  H   H8        1.0  0.7263844129968648  0.3723111651293466  0.8007229453530442  1.0000
  H   H9        1.0  0.329496543224515  0.8998371806220294  0.09602653464497728  1.0000
  H   H10       1.0  0.6705009674760947  0.10016285716194061  0.9039740614947217  1.0000
  H   H11       1.0  0.33489129630163467  0.871678256024296  0.907778375501962  1.0000
  H   H12       1.0  0.6651073764710845  0.12832041609740946  0.09222224741520077  1.0000
  H   H13       1.0  0.31053657908410065  0.6785605944150177  0.7663481907017197  1.0000
  H   H14       1.0  0.689462734619781  0.3214407992216054  0.23365321428105545  1.0000
  H   H15       1.0  0.23139227582454686  0.3911579878551237  0.3444520422101362  1.0000
  H   H16       1.0  0.7686073557799918  0.6088447444774944  0.6555448794719323  1.0000
  H   H17       1.0  0.024209979114850497  0.417484646478755  0.3862610013407917  1.0000
  H   H18       1.0  0.9757893318268035  0.5825167233993582  0.6137351543597374  1.0000
  H   H19       1.0  0.22997520085648662  0.9216894499747853  0.6449251664087327  1.0000
  H   H20       1.0  0.7700234719162327  0.0783092221469133  0.35507545650843036  1.0000
  H   H21       1.0  0.10956910280734183  0.03952182928674832  0.5761120461955471  1.0000
  H   H22       1.0  0.890432854519823  0.9604781852976249  0.423887928631295  1.0000
  C   C1        1.0  0.23915663428475403  0.39686930415840055  0.7582116389584285  1.0000
  C   C2        1.0  0.7608426798137276  0.6031320928723077  0.24179051592180656  1.0000
  C   C3        1.0  0.19726032643399802  0.23705391780511323  0.8140538635435205  1.0000
  C   C4        1.0  0.8027389868752765  0.7629474724374391  0.18594679154178803  1.0000
  C   C5        1.0  0.19674330346675364  0.24859063934106024  0.9171887584006055  1.0000
  C   C6        1.0  0.8032568524355527  0.7514080329669496  0.0828134071730204  1.0000
  C   C7        1.0  0.23429498720249603  0.41933120973185833  0.9679639735919846  1.0000
  C   C8        1.0  0.7657084536488628  0.5806688084328969  0.03203829378877289  1.0000
  C   C9        1.0  0.23714018226431224  0.4398319943749416  0.07379684357518809  1.0000
  C   C10       1.0  0.7628662224786142  0.5601680037979833  0.9262040097337161  1.0000
  C   C11       1.0  0.271909315531353  0.6107205418479822  0.11808090185657247  1.0000
  C   C12       1.0  0.7280944444044765  0.38928082519498025  0.8819191319158716  1.0000
  C   C13       1.0  0.30462098220260003  0.7670734564212226  0.05832316857988929  1.0000
  C   C14       1.0  0.6953809763083785  0.23292656834537695  0.9416790559393389  1.0000
  C   C15       1.0  0.30594590829896623  0.753052855978389  0.9549830628662048  1.0000
  C   C16       1.0  0.6940563692964759  0.2469485176664108  0.04501692804470279  1.0000
  C   C17       1.0  0.2711636909461603  0.5784086631497801  0.9090098310398814  1.0000
  C   C18       1.0  0.7288397495105983  0.42159135162090433  0.09099168644341656  1.0000
  S   S1        1.0  0.39621996232656914  0.08002480648256242  0.3092176404026644  1.0000
  S   S2        1.0  0.6037790303198207  0.9199752213054924  0.6907822487011115  1.0000
  N   N1        1.0  0.272579408875643  0.5580933926802275  0.8065887847484345  1.0000
  N   N2        1.0  0.727419263897069  0.44190527944147834  0.19341183816873544  1.0000
  O   O1        1.0  0.24783077882202068  0.5801288347146427  0.5877907622069711  1.0000
  O   O2        1.0  0.7521702157272898  0.4198670857180887  0.412205414880347  1.0000
  O   O3        1.0  0.4433285685229151  0.3200624476187103  0.6035940275227103  1.0000
  O   O4        1.0  0.5566733884096495  0.6799375635715919  0.39640519740667196  1.0000
  O   O5        1.0  0.0583512417641998  0.24991156461147312  0.584793078312998  1.0000
  O   O6        1.0  0.9416497543635248  0.7500843693975486  0.415206098364166  1.0000
  O   O7        1.0  0.2670267456946363  0.8968643562269281  0.2874909177409321  1.0000
  O   O8        1.0  0.7329740491658185  0.10313702062563833  0.7125082804109792  1.0000
  O   O9        1.0  0.4333090659241066  0.0859339026002033  0.4229141125733945  1.0000
  O   O10       1.0  0.5666889655228433  0.9140620446125071  0.5770849783807036  1.0000
  O   O11       1.0  0.2983877230666964  0.2271581638112324  0.27477526309353095  1.0000
  O   O12       1.0  0.7016109493114159  0.7728405049164025  0.7252246099261724  1.0000
  O   O13       1.0  0.5950938099932231  0.09657302619611133  0.2617255380211175  1.0000
  O   O14       1.0  0.40490518265316683  0.9034270015919434  0.7382743510826585  1.0000
  O   O15       1.0  0.16017750598422256  0.48362435074336235  0.3706497072866525  1.0000
  O   O16       1.0  0.8398158755958891  0.5163770455421145  0.6293462769677445  1.0000
  O   O17       1.0  0.1410112134145295  0.9160300885714893  0.5825271154215415  1.0000
  O   O18       1.0  0.8589912646589756  0.08396583544162445  0.4174713542196925  1.0000
