data_image0
_chemical_formula_structural       Ag8H12C32O16
_chemical_formula_sum              "Ag8 H12 C32 O16"
_cell_length_a       8.434788829997704
_cell_length_b       9.762081633249018
_cell_length_c       9.9137957970213
_cell_angle_alpha    84.98067327706066
_cell_angle_beta     80.47332295068433
_cell_angle_gamma    68.15944682753286

_space_group_name_H-M_alt    "P 1"
_space_group_IT_number       1

loop_
  _space_group_symop_operation_xyz
  'x, y, z'

loop_
  _atom_site_type_symbol
  _atom_site_label
  _atom_site_symmetry_multiplicity
  _atom_site_fract_x
  _atom_site_fract_y
  _atom_site_fract_z
  _atom_site_occupancy
  Ag  Ag1       1.0  0.275778441191541  0.5678519808948225  0.6164121770351727  1.0000
  Ag  Ag2       1.0  0.7242214553286315  0.43214983045974253  0.383588318572997  1.0000
  Ag  Ag3       1.0  0.21634894741913518  0.7642326802962388  0.056928058920675484  1.0000
  Ag  Ag4       1.0  0.7836494228636113  0.23576698336205482  0.9430707951823935  1.0000
  Ag  Ag5       1.0  0.41703332782005026  0.5411793097295854  0.2328545368556405  1.0000
  Ag  Ag6       1.0  0.5829667190207528  0.4588192201490744  0.7671451664278948  1.0000
  Ag  Ag7       1.0  0.7727577597666411  0.0009103149856528987  0.16401203920133164  1.0000
  Ag  Ag8       1.0  0.22724110551892104  0.9990881903007034  0.8359898540743061  1.0000
  H   H1        1.0  0.5838305402314247  0.8552077537499798  0.8191960176835028  1.0000
  H   H2        1.0  0.41617026972809157  0.14479184997681932  0.18080450635257966  1.0000
  H   H3        1.0  0.08062592759360851  0.8498715816352772  0.6244051155159056  1.0000
  H   H4        1.0  0.9193710980522096  0.1501313570926257  0.3755957125843636  1.0000
  H   H5        1.0  0.9831154728854228  0.5351653901652256  0.32895315068115144  1.0000
  H   H6        1.0  0.016885630712096165  0.4648364094096066  0.6710471715739814  1.0000
  H   H7        1.0  0.5060672352370689  0.9134805946683713  0.3525056507341304  1.0000
  H   H8        1.0  0.4939318854033417  0.086520161024076  0.6474930158019491  1.0000
  H   H9        1.0  0.4527433309548243  0.8501638755505779  0.13248087703331632  1.0000
  H   H10       1.0  0.5472579102022763  0.14983466073437776  0.8675176445776529  1.0000
  H   H11       1.0  0.9132604467054577  0.4576670271168196  0.1203074607433123  1.0000
  H   H12       1.0  0.08673918169881736  0.5423325520176688  0.8796952532848722  1.0000
  C   C1        1.0  0.8782405817953106  0.881386126975798  0.8709119673540116  1.0000
  C   C2        1.0  0.12176022816420581  0.11861347675099412  0.12908855668207053  1.0000
  C   C3        1.0  0.4879829871363767  0.7644406758676467  0.6100612374833077  1.0000
  C   C4        1.0  0.5120206554143536  0.2355578550438651  0.3899359291020588  1.0000
  C   C5        1.0  0.6803104237867784  0.8393456721080456  0.7281967464243098  1.0000
  C   C6        1.0  0.31968565013655587  0.16065952880568093  0.2718010282894383  1.0000
  C   C7        1.0  0.774583254124778  0.7739189510593932  0.4885651554052686  1.0000
  C   C8        1.0  0.22541783671168497  0.22608286670146077  0.511434158530328  1.0000
  C   C9        1.0  0.8370507771076491  0.8538487641999452  0.7362871733080851  1.0000
  C   C10       1.0  0.1629504768105008  0.14614975389898888  0.2637123566224133  1.0000
  C   C11       1.0  0.9286241753084996  0.7964257408883527  0.495826573261283  1.0000
  C   C12       1.0  0.0713747950112804  0.20357829627999283  0.5041728855994307  1.0000
  C   C13       1.0  0.9602842678427663  0.8336496404556328  0.6193029548691769  1.0000
  C   C14       1.0  0.039714878319742276  0.16635107886477843  0.38069772830597515  1.0000
  C   C15       1.0  0.742399748865992  0.72702545350014  0.3609128460674925  1.0000
  C   C16       1.0  0.2576001348931313  0.27297637604043967  0.6390866412211411  1.0000
  C   C17       1.0  0.649720047005708  0.7969047233189743  0.6068514100745335  1.0000
  C   C18       1.0  0.3502810310697129  0.2030971126278942  0.393146895541534  1.0000
  C   C19       1.0  0.8577003173365583  0.5954443054790061  0.2957159935366534  1.0000
  C   C20       1.0  0.1423000103811987  0.4045564384337084  0.7042824996463963  1.0000
  C   C21       1.0  0.5957148686100667  0.8135547597256689  0.3020580946685031  1.0000
  C   C22       1.0  0.4042830321919624  0.18644602593252563  0.6979397369010769  1.0000
  C   C23       1.0  0.06834323776138966  0.7707569245607078  0.3748480435232437  1.0000
  C   C24       1.0  0.9316561892780655  0.22924600879375842  0.6251514295514298  1.0000
  C   C25       1.0  0.5616354391713543  0.7743566405268042  0.18025756169370774  1.0000
  C   C26       1.0  0.4383650643891313  0.2256407855379763  0.8197421558037804  1.0000
  C   C27       1.0  0.6720460618243534  0.6432990298709529  0.11635391378174383  1.0000
  C   C28       1.0  0.3279561055331399  0.35669728060021555  0.8836456445766742  1.0000
  C   C29       1.0  0.6466841591010634  0.5992598083604221  0.9822271882704428  1.0000
  C   C30       1.0  0.3533148820272202  0.4007353790779931  0.017775929319626044  1.0000
  C   C31       1.0  0.820594997462507  0.5530255968879845  0.17565330895053688  1.0000
  C   C32       1.0  0.1794050749003944  0.44697289661863965  0.824348410972064  1.0000
  O   O1        1.0  0.035859823079718585  0.8302092967839982  0.886859109968782  1.0000
  O   O2        1.0  0.964140798276027  0.1697936429767566  0.11313918143332564  1.0000
  O   O3        1.0  0.5112409796152023  0.6338090501502691  0.5738817374195051  1.0000
  O   O4        1.0  0.48876071826157386  0.3661883823208001  0.42611679840541694  1.0000
  O   O5        1.0  0.34185935484047303  0.8593991679706079  0.6491701741849027  1.0000
  O   O6        1.0  0.6581458139476837  0.1406015106371754  0.3508286339055644  1.0000
  O   O7        1.0  0.21787907268257103  0.6829242100774807  0.3979120780584893  1.0000
  O   O8        1.0  0.7821208238376087  0.3170776012770773  0.6020884175496803  1.0000
  O   O9        1.0  0.03313923270950886  0.8322661575424917  0.259855505085909  1.0000
  O   O10       1.0  0.9668615644889657  0.16773346437032902  0.740144010630637  1.0000
  O   O11       1.0  0.7490577606865756  0.9522605322553159  0.9575922962638759  1.0000
  O   O12       1.0  0.2509425797922232  0.0477401934713839  0.04240720523871742  1.0000
  O   O13       1.0  0.7762200557118959  0.507733173287619  0.912690652226246  1.0000
  O   O14       1.0  0.22378062369131152  0.4922609349292274  0.08731028958568032  1.0000
  O   O15       1.0  0.49635260843871976  0.6523068448837321  0.9430074600466372  1.0000
  O   O16       1.0  0.5036476397669034  0.3476883307749503  0.056995484190402124  1.0000
