data_image0
_chemical_formula_structural       Cd2H36C44N8O12
_chemical_formula_sum              "Cd2 H36 C44 N8 O12"
_cell_length_a       9.46663436206478
_cell_length_b       9.702483445974767
_cell_length_c       11.130063540000311
_cell_angle_alpha    90.00002559658039
_cell_angle_beta     90.0000060489515
_cell_angle_gamma    104.17448382849442

_space_group_name_H-M_alt    "P 1"
_space_group_IT_number       1

loop_
  _space_group_symop_operation_xyz
  'x, y, z'

loop_
  _atom_site_type_symbol
  _atom_site_label
  _atom_site_symmetry_multiplicity
  _atom_site_fract_x
  _atom_site_fract_y
  _atom_site_fract_z
  _atom_site_occupancy
  Cd  Cd1       1.0  0.4999994072291402  0.9999987884180969  0.4999991712982562  1.0000
  Cd  Cd2       1.0  0.4999995247228598  0.5000001101798047  1.2659406679999994e-07  1.0000
  H   H1        1.0  0.06499845620403019  0.9844712633219359  0.3036399803847232  1.0000
  H   H2        1.0  0.9350053102495793  0.515529929647812  0.8036424633509753  1.0000
  H   H3        1.0  0.9350041542388968  0.015530295200669304  0.6963572593439764  1.0000
  H   H4        1.0  0.0649930742609968  0.4844716266169229  0.19635926871485052  1.0000
  H   H5        1.0  0.807920271172975  0.7680087835186029  0.0088213499921039  1.0000
  H   H6        1.0  0.1920797194731989  0.7319901204684597  0.5088211535562195  1.0000
  H   H7        1.0  0.19208022630372312  0.23199277387494283  0.9911776866714207  1.0000
  H   H8        1.0  0.8079183903515387  0.2680061212193579  0.49117878157356637  1.0000
  H   H9        1.0  0.9903727391642083  0.6303650711453344  0.9740036014073752  1.0000
  H   H10       1.0  0.009624722635713578  0.8696319600555782  0.4740028630275858  1.0000
  H   H11       1.0  0.009625636894298928  0.3696322335707195  0.0259963337226452  1.0000
  H   H12       1.0  0.990373919656449  0.13036640768847016  0.5259961736351997  1.0000
  H   H13       1.0  0.21075790410008466  0.6653740546121795  0.1063724051450947  1.0000
  H   H14       1.0  0.7892402558108387  0.8346217130748669  0.6063741058680279  1.0000
  H   H15       1.0  0.789240205724653  0.33462218707563807  0.8936275299846982  1.0000
  H   H16       1.0  0.21075945141695485  0.1653809067833691  0.39362942313300653  1.0000
  H   H17       1.0  0.783199063531832  0.0230998786879297  0.9989152746408578  1.0000
  H   H18       1.0  0.21680141024710767  0.4769022102871787  0.49891549879468755  1.0000
  H   H19       1.0  0.21680565987766443  0.9769016809644737  0.0010828635554034  1.0000
  H   H20       1.0  0.7831953937644301  0.5231014709042369  0.5010853348040243  1.0000
  H   H21       1.0  0.5069688048640233  0.146407266492588  0.24162221524573368  1.0000
  H   H22       1.0  0.49303345116254604  0.3535936198744167  0.7416211994188372  1.0000
  H   H23       1.0  0.4930319503944818  0.8535911023807614  0.758375922949682  1.0000
  H   H24       1.0  0.5069673125478078  0.6464090005471235  0.2583769387774524  1.0000
  H   H25       1.0  0.7919127148749967  0.9191799048985061  0.3756422868672047  1.0000
  H   H26       1.0  0.20808736770696612  0.5808191996967338  0.8756429286615841  1.0000
  H   H27       1.0  0.20808804038350814  0.0808184639748504  0.624355851328211  1.0000
  H   H28       1.0  0.7919099518686468  0.419178104455284  0.1243597018707874  1.0000
  H   H29       1.0  0.5594889418856185  0.7453387108014128  0.6191170404987716  1.0000
  H   H30       1.0  0.4405158348042662  0.7546623818201115  0.11911719562896649  1.0000
  H   H31       1.0  0.4405091679390056  0.2546575308861562  0.3808819961635521  1.0000
  H   H32       1.0  0.5594880983558854  0.24534024029600218  0.8808818410349417  1.0000
  H   H33       1.0  0.5589839893908036  0.7035191570985049  0.4824772010272298  1.0000
  H   H34       1.0  0.44102087836747483  0.796482134238495  0.9824779537126672  1.0000
  H   H35       1.0  0.44101703210147053  0.29648027480309486  0.5175209371684204  1.0000
  H   H36       1.0  0.5589838450422492  0.20351942541439877  0.0175219814185255  1.0000
  C   C1        1.0  0.28767792597778913  0.8541263677513837  0.28977301771509895  1.0000
  C   C2        1.0  0.7123239818156081  0.6458716279847891  0.7897737353033917  1.0000
  C   C3        1.0  0.7123238857640574  0.1458720016869961  0.7102260189478358  1.0000
  C   C4        1.0  0.28767598319377197  0.35412780335276756  0.2102270982946095  1.0000
  C   C5        1.0  0.1522498711086868  0.8286265296901262  0.21275727306378658  1.0000
  C   C6        1.0  0.8477514933669286  0.671373549419684  0.7127598112260074  1.0000
  C   C7        1.0  0.8477506263680116  0.1713750277034194  0.787241763599738  1.0000
  C   C8        1.0  0.15224927034420693  0.3286290710035757  0.2872446162425462  1.0000
  C   C9        1.0  0.04708165004367966  0.9053276835768854  0.2324462996898404  1.0000
  C   C10       1.0  0.9529199856003246  0.5946734693287397  0.7324488167582999  1.0000
  C   C11       1.0  0.9529188474330115  0.09467387381666009  0.7675527369736841  1.0000
  C   C12       1.0  0.0470789313781239  0.4053302129932064  0.2675556107103887  1.0000
  C   C13       1.0  0.9230126553876165  0.8849250914931235  0.15952582013745337  1.0000
  C   C14       1.0  0.07698975222968583  0.6150749590695953  0.6595264631437131  1.0000
  C   C15       1.0  0.07698968882176871  0.11507540400173613  0.8404732165259432  1.0000
  C   C16       1.0  0.9230094225304628  0.3849255347319128  0.3404761673894043  1.0000
  C   C17       1.0  0.9053818574769468  0.7872980720234111  0.0644841136931618  1.0000
  C   C18       1.0  0.09461814711988127  0.7127008624046383  0.5644838998620969  1.0000
  C   C19       1.0  0.09461916401555473  0.21270135987867894  0.93551582143742  1.0000
  C   C20       1.0  0.9053807614064983  0.28729856836863377  0.4355187306707862  1.0000
  C   C21       1.0  0.008443230026145375  0.7085901774949335  0.0460600799613502  1.0000
  C   C22       1.0  0.9915543907530022  0.7914076826998196  0.5460608842909167  1.0000
  C   C23       1.0  0.9915556784996727  0.2914092532771093  0.9539380582341935  1.0000
  C   C24       1.0  0.0084437275238045  0.2085928105366719  0.45394084777467464  1.0000
  C   C25       1.0  0.1309322639424906  0.7281011757527907  0.1197398130510905  1.0000
  C   C26       1.0  0.8690674882694511  0.7718967258659148  0.6197414959204008  1.0000
  C   C27       1.0  0.8690677010666692  0.2718982555842757  0.8802592236119722  1.0000
  C   C28       1.0  0.13093354167533994  0.2281069575853465  0.3802620330809248  1.0000
  C   C29       1.0  0.809166122419427  0.9610423344800194  0.1835391701410316  1.0000
  C   C30       1.0  0.1908368236837177  0.5389598552714147  0.6835388946717629  1.0000
  C   C31       1.0  0.19083622179006454  0.03895816101508841  0.8164607649898343  1.0000
  C   C32       1.0  0.8091626173100865  0.46104170155809504  0.3164628373941127  1.0000
  C   C33       1.0  0.7467057455525536  0.025390836053972497  0.09174075777337258  1.0000
  C   C34       1.0  0.2532954164263757  0.4746099677809709  0.5917406664937204  1.0000
  C   C35       1.0  0.2532976551400594  0.9746096600056618  0.9082582788900806  1.0000
  C   C36       1.0  0.7467019116008587  0.5253915879187403  0.4082601671045794  1.0000
  C   C37       1.0  0.5944700066719337  0.09362223133225459  0.2262368518147539  1.0000
  C   C38       1.0  0.40553013253217074  0.40637864549122327  0.7262358490286118  1.0000
  C   C39       1.0  0.4055310148204541  0.9063772005695866  0.7737621848483585  1.0000
  C   C40       1.0  0.5944679857441885  0.5936218477442878  0.2737622891671094  1.0000
  C   C41       1.0  0.7526758053007757  0.9690295158432181  0.29882961595789226  1.0000
  C   C42       1.0  0.24732425802965008  0.5309695467442667  0.7988293427346207  1.0000
  C   C43       1.0  0.24732521619161227  0.030969916058623394  0.7011694207052271  1.0000
  C   C44       1.0  0.7526730615457354  0.46902775740726105  0.2011714908628122  1.0000
  N   N1        1.0  0.6424986709479231  0.0939933135742095  0.1133030874603236  1.0000
  N   N2        1.0  0.35750302890266283  0.4060096281092669  0.6133029783041123  1.0000
  N   N3        1.0  0.3575039394952313  0.9060082449488861  0.8866959492033075  1.0000
  N   N4        1.0  0.6424945653582201  0.593992990618439  0.3866969568269525  1.0000
  N   N5        1.0  0.6447713954282153  0.0329806818073379  0.3198634412415871  1.0000
  N   N6        1.0  0.35523088020782023  0.46702024734843667  0.8198624583379015  1.0000
  N   N7        1.0  0.3552306825474005  0.9670187506592782  0.6801355954215822  1.0000
  N   N8        1.0  0.6447667056012281  0.5329781198310855  0.1801374767922965  1.0000
  O   O1        1.0  0.5175383070866533  0.7624287263812589  0.5397706845030896  1.0000
  O   O2        1.0  0.48246803866755533  0.737574449468383  0.0397708367406153  1.0000
  O   O3        1.0  0.482460335205616  0.2375696413630308  0.46022925062716513  1.0000
  O   O4        1.0  0.5175369509760445  0.26242817321299583  0.9602299968582811  1.0000
  O   O5        1.0  0.29277277234032795  0.9367408611813206  0.38048141188428986  1.0000
  O   O6        1.0  0.707227045220698  0.5632571830321284  0.8804820952023391  1.0000
  O   O7        1.0  0.7072269264350624  0.06325750712750988  0.6195176247785454  1.0000
  O   O8        1.0  0.29277107305599515  0.4367433102041217  0.119518738395783  1.0000
  O   O9        1.0  0.3868487102346592  0.7937415555534386  0.2606824305533948  1.0000
  O   O10       1.0  0.6131521337845882  0.7062564237088294  0.7606831631506524  1.0000
  O   O11       1.0  0.6131512547744934  0.20625787578362778  0.7393166061096749  1.0000
  O   O12       1.0  0.3868443870893828  0.2937376913577339  0.239316771978622  1.0000
