data_image0
_chemical_formula_structural       Cd2H22C24N12Cl2
_chemical_formula_sum              "Cd2 H22 C24 N12 Cl2"
_cell_length_a       8.537796010129844
_cell_length_b       8.526674588420175
_cell_length_c       10.481050880678444
_cell_angle_alpha    88.0475138011585
_cell_angle_beta     78.81212001278324
_cell_angle_gamma    67.74556520770385

_space_group_name_H-M_alt    "P 1"
_space_group_IT_number       1

loop_
  _space_group_symop_operation_xyz
  'x, y, z'

loop_
  _atom_site_type_symbol
  _atom_site_label
  _atom_site_symmetry_multiplicity
  _atom_site_fract_x
  _atom_site_fract_y
  _atom_site_fract_z
  _atom_site_occupancy
  Cd  Cd1       1.0  0.6177474645891151  0.8688148424255787  0.8387817397651817  1.0000
  Cd  Cd2       1.0  0.38225032995003977  0.13118480037963556  0.1612092836822256  1.0000
  H   H1        1.0  0.5844707359796714  0.3537055958953205  0.7107909697947363  1.0000
  H   H2        1.0  0.4155304803808093  0.6462940855245236  0.2892090867626891  1.0000
  H   H3        1.0  0.5830152790178571  0.47463068800070835  0.5694891468153784  1.0000
  H   H4        1.0  0.4169888178078124  0.5253677636209846  0.4305105104334501  1.0000
  H   H5        1.0  0.49290276942691236  0.5791665024298356  0.72690065495825  1.0000
  H   H6        1.0  0.5070972606266011  0.42083315977433955  0.2730995780676722  1.0000
  H   H7        1.0  0.2634975394155247  0.42255713705559833  0.8403807398396168  1.0000
  H   H8        1.0  0.7365014612255366  0.5774450597043312  0.1596205421810808  1.0000
  H   H9        1.0  0.815481328837748  0.9527123165340613  0.047034802915661096  1.0000
  H   H10       1.0  0.1845188032704499  0.04728989182859071  0.9529701276427431  1.0000
  H   H11       1.0  0.10219261102121634  0.8400467490684849  0.11773118800119418  1.0000
  H   H12       1.0  0.8978051758929549  0.15995542466930607  0.8822721829910948  1.0000
  H   H13       1.0  0.30710802544943766  0.2445596309186939  0.6945988706128858  1.0000
  H   H14       1.0  0.6928911869259694  0.7554451272256132  0.30539945892788  1.0000
  H   H15       1.0  0.293543829952057  0.43803816726885003  0.6190531484003544  1.0000
  H   H16       1.0  0.7064537156850503  0.5619678436957545  0.38094349147741724  1.0000
  H   H17       1.0  0.2783656623350196  0.27163639519413624  0.5307511984979101  1.0000
  H   H18       1.0  0.7216351323961306  0.7283735011281038  0.4692429621176187  1.0000
  H   H19       1.0  0.3306908860444863  0.5726191259758764  0.0055744551643926304  1.0000
  H   H20       1.0  0.6693065910428256  0.42738687547254295  0.9944269659711369  1.0000
  H   H21       1.0  0.9645106076355247  0.2637290055990107  0.5427179422926258  1.0000
  H   H22       1.0  0.03549012829362391  0.7362719478568068  0.45728024813331564  1.0000
  C   C1        1.0  0.597103609961188  0.4705334445799495  0.6715535333806456  1.0000
  C   C2        1.0  0.40289526120527336  0.5294662022150335  0.3284449636106714  1.0000
  C   C3        1.0  0.16889524941764467  0.5439603766960559  0.881982455309469  1.0000
  C   C4        1.0  0.8310999942781192  0.45603920293574174  0.11802135234508876  1.0000
  C   C5        1.0  0.9202404114854513  0.8379930884393475  0.0012398838832509917  1.0000
  C   C6        1.0  0.07975481850035487  0.16200648928920464  0.998764880022854  1.0000
  C   C7        1.0  0.0784420940919758  0.774971955652106  0.0404881391898186  1.0000
  C   C8        1.0  0.921553149603781  0.22502762397968476  0.9595156684647392  1.0000
  C   C9        1.0  0.327564053079456  0.8992163406450616  0.6547669030404819  1.0000
  C   C10       1.0  0.6724456654541979  0.10078603476559783  0.34522992200910346  1.0000
  C   C11       1.0  0.24301408199256255  0.33671679911979174  0.6266272355404539  1.0000
  C   C12       1.0  0.7569856519440493  0.6632866926982504  0.3733700913771613  1.0000
  C   C13       1.0  0.7682654676941283  0.4700921472053779  0.6821869000129227  1.0000
  C   C14       1.0  0.23173338976237542  0.5299074976863665  0.3178125532299489  1.0000
  C   C15       1.0  0.20505324126543892  0.6266510152062709  0.9778858551268926  1.0000
  C   C16       1.0  0.7949426945960026  0.3733498537739238  0.022116866179224808  1.0000
  C   C17       1.0  0.9340370009557049  0.36090388319995986  0.6179157664309756  1.0000
  C   C18       1.0  0.06596236435204617  0.6390944934622881  0.3820836404402783  1.0000
  C   C19       1.0  0.25968496133170765  0.9749503953583131  0.4545391686335378  1.0000
  C   C20       1.0  0.7403145980382604  0.025041605531591002  0.545458446813555  1.0000
  C   C21       1.0  0.05165325826951059  0.40588639798732373  0.6663951585978793  1.0000
  C   C22       1.0  0.9483469423884755  0.5941158198915206  0.33360499070277416  1.0000
  C   C23       1.0  0.006840863246232198  0.6171488525807405  0.8480683879065865  1.0000
  C   C24       1.0  0.9931555667564992  0.38285074626671906  0.15193524327947464  1.0000
  N   N1        1.0  0.9551314396378245  0.5380165737472635  0.7564858771389495  1.0000
  N   N2        1.0  0.044866190381831844  0.4619830462191032  0.2435166213270676  1.0000
  N   N3        1.0  0.8866989626367  0.7626180795230725  0.9052779653149301  1.0000
  N   N4        1.0  0.11329626734910649  0.23738149820547966  0.09472679859118222  1.0000
  N   N5        1.0  0.3815307482922845  0.9017529743841097  0.7499932847146482  1.0000
  N   N6        1.0  0.6184720601717332  0.09824291186343001  0.2500018514701948  1.0000
  N   N7        1.0  0.2639126482699367  0.8835707796790402  0.5561265565536431  1.0000
  N   N8        1.0  0.7361034173429175  0.11641894407175361  0.44386389080203503  1.0000
  N   N9        1.0  0.24738735233650994  0.05301750067683741  0.3593424722448049  1.0000
  N   N10       1.0  0.7526164483722584  0.9469847805587152  0.6406542788957026  1.0000
  N   N11       1.0  0.7817597296478167  0.578050668785423  0.7649772984942729  1.0000
  N   N12       1.0  0.21824131610819103  0.4219464569597662  0.23502284178842814  1.0000
  Cl  Cl1       1.0  0.5291328017367859  0.18223634655218043  0.9251220592829341  1.0000
  Cl  Cl2       1.0  0.4708742188067487  0.8177544785633944  0.07488592600018511  1.0000
