data_image0
_chemical_formula_structural       Cu4H28C40I4N8Cl2
_chemical_formula_sum              "Cu4 H28 C40 I4 N8 Cl2"
_cell_length_a       8.962516684665394
_cell_length_b       9.245815529135339
_cell_length_c       13.436436240824525
_cell_angle_alpha    72.7422100012873
_cell_angle_beta     77.90639109187418
_cell_angle_gamma    85.39661330857831

_space_group_name_H-M_alt    "P 1"
_space_group_IT_number       1

loop_
  _space_group_symop_operation_xyz
  'x, y, z'

loop_
  _atom_site_type_symbol
  _atom_site_label
  _atom_site_symmetry_multiplicity
  _atom_site_fract_x
  _atom_site_fract_y
  _atom_site_fract_z
  _atom_site_occupancy
  Cu  Cu1       1.0  0.33321928666753564  0.3777532879615108  0.11365688433254917  1.0000
  Cu  Cu2       1.0  0.6667505309184135  0.6222293355986749  0.8863505439606596  1.0000
  Cu  Cu3       1.0  0.045996195784290705  0.14090057519574364  0.4408947065046716  1.0000
  Cu  Cu4       1.0  0.9539978035536196  0.8590731218070783  0.5591149049092293  1.0000
  H   H1        1.0  0.42808143437760293  0.07651746704720347  0.05857091840875479  1.0000
  H   H2        1.0  0.5719212350180172  0.9234276410460395  0.9414564321468432  1.0000
  H   H3        1.0  0.6197379047036904  0.8646333973364331  0.11136604590858927  1.0000
  H   H4        1.0  0.3802989185420316  0.13535038326254065  0.888655949632081  1.0000
  H   H5        1.0  0.7746526494127793  0.8805450125045976  0.24291040542772177  1.0000
  H   H6        1.0  0.22538086559838183  0.11947266373840648  0.7571077377861994  1.0000
  H   H7        1.0  0.7399483897077418  0.10519857262887908  0.31338401467501587  1.0000
  H   H8        1.0  0.2600450143233744  0.8948291844535556  0.6866271702744908  1.0000
  H   H9        1.0  0.7394109194161943  0.3384256352558521  0.32676616070282444  1.0000
  H   H10       1.0  0.2606048935028511  0.6615943675850245  0.6732018133397799  1.0000
  H   H11       1.0  0.43861577564867826  0.7318512069148322  0.3093938935294958  1.0000
  H   H12       1.0  0.5613788885589203  0.26814318069645526  0.6906004757806271  1.0000
  H   H13       1.0  0.23936447637977662  0.8444861722035026  0.24250951006314383  1.0000
  H   H14       1.0  0.7606627612844932  0.1555230823261908  0.7574843042654674  1.0000
  H   H15       1.0  0.04189557833418432  0.9665453497223733  0.1394191646616251  1.0000
  H   H16       1.0  0.9581387517161913  0.03349094783305159  0.8605766711608137  1.0000
  H   H17       1.0  0.9675184613609885  0.8381740562089701  0.01309590326430774  1.0000
  H   H18       1.0  0.0324691135962851  0.16185698460459713  0.9869176676276366  1.0000
  H   H19       1.0  0.1043880090044169  0.599186098245418  0.9943760233512432  1.0000
  H   H20       1.0  0.8955433033628212  0.40081715092480147  0.005652717922387838  1.0000
  H   H21       1.0  0.9114364196705438  0.5201138705807933  0.32338208322022405  1.0000
  H   H22       1.0  0.08857709510955661  0.47990243842385616  0.6765973335763176  1.0000
  H   H23       1.0  0.04574864461370959  0.647500073325645  0.4188242779992422  1.0000
  H   H24       1.0  0.9542586099118894  0.3524921118312391  0.5811710521197354  1.0000
  H   H25       1.0  0.6393705043322201  0.810142900555128  0.5618963046325616  1.0000
  H   H26       1.0  0.360629073521011  0.18984145573971736  0.43809486914712886  1.0000
  H   H27       1.0  0.4881232718155745  0.6962845179139094  0.4713562473727038  1.0000
  H   H28       1.0  0.5118872629590284  0.3037194761740451  0.5286192445561609  1.0000
  C   C1        1.0  0.5030147731972008  0.07850627844570109  0.1124089030845994  1.0000
  C   C2        1.0  0.4969893847331264  0.9214672633291697  0.8876090461482489  1.0000
  C   C3        1.0  0.6070878548255505  0.961591445846693  0.14333843261727008  1.0000
  C   C4        1.0  0.3929307076007619  0.03839334948422387  0.8566835951496043  1.0000
  C   C5        1.0  0.6939296216420844  0.970990093593819  0.21602331177577133  1.0000
  C   C6        1.0  0.30609072147799316  0.029012922902452894  0.7839919875048121  1.0000
  C   C7        1.0  0.6761499751522067  0.09663840396667207  0.2547143964010985  1.0000
  C   C8        1.0  0.3238519819010435  0.9033713879043003  0.7452961200872535  1.0000
  C   C9        1.0  0.5747110818577569  0.21242954146330106  0.21634333858533233  1.0000
  C   C10       1.0  0.42528113394584477  0.7875668542142545  0.7836599062840576  1.0000
  C   C11       1.0  0.5511291167091629  0.3542842841243114  0.24601504869425372  1.0000
  C   C12       1.0  0.4488641395790083  0.6457203637087044  0.7539745558168318  1.0000
  C   C13       1.0  0.6404652412828042  0.4047339199130135  0.3020236614147862  1.0000
  C   C14       1.0  0.35954496797589997  0.5952802083708446  0.6979521547759829  1.0000
  C   C15       1.0  0.5990040545451691  0.5411771572946832  0.3270665991823023  1.0000
  C   C16       1.0  0.4010051558613555  0.458831238471795  0.6729126893389078  1.0000
  C   C17       1.0  0.47260211965131294  0.6249122503170736  0.29179833635797786  1.0000
  C   C18       1.0  0.5273936101858611  0.3750856047146697  0.7081929880798935  1.0000
  C   C19       1.0  0.39599470655837615  0.5737158522805925  0.22893614803882661  1.0000
  C   C20       1.0  0.6039908064074099  0.4262783883120347  0.7710617159846006  1.0000
  C   C21       1.0  0.2773775200651513  0.6577375849219531  0.17260306149995602  1.0000
  C   C22       1.0  0.7226032211808402  0.34226096550453616  0.8274013145231646  1.0000
  C   C23       1.0  0.2089074620860886  0.7935081412368274  0.186026894594697  1.0000
  C   C24       1.0  0.7911014897729772  0.20650085841571544  0.8139724106113416  1.0000
  C   C25       1.0  0.09681922297259861  0.8612889068792381  0.12813142861070043  1.0000
  C   C26       1.0  0.9031937578431055  0.1387358359502784  0.8718702551399387  1.0000
  C   C27       1.0  0.05686597447013499  0.7925843334941757  0.05823949107017514  1.0000
  C   C28       1.0  0.9431242409159352  0.2074366735134347  0.9417704467391272  1.0000
  C   C29       1.0  0.1309795463491668  0.6576535286207627  0.04795538004204763  1.0000
  C   C30       1.0  0.868978028866529  0.3423524548277469  0.9520611069454857  1.0000
  C   C31       1.0  0.6867036393548531  0.5995832966003292  0.3876320532436352  1.0000
  C   C32       1.0  0.31330789430377587  0.4004252191361885  0.6123431771822465  1.0000
  C   C33       1.0  0.8460262230665097  0.5829688301693136  0.37581416341109264  1.0000
  C   C34       1.0  0.15398416984594124  0.4170384636635872  0.6241644337034344  1.0000
  C   C35       1.0  0.9216225923586878  0.6531166515014274  0.4290071163452112  1.0000
  C   C36       1.0  0.07838460369688251  0.3468790292012897  0.5709838262135278  1.0000
  C   C37       1.0  0.6952769533223775  0.7443614578644354  0.508847965253203  1.0000
  C   C38       1.0  0.30472816147748466  0.2556286163467262  0.4911413605750423  1.0000
  C   C39       1.0  0.611753317623581  0.6807311117493454  0.4573380977355297  1.0000
  C   C40       1.0  0.3882537364106184  0.31927392304240937  0.5426398958715879  1.0000
  I   I1        1.0  0.05612528812928019  0.2363210233017127  0.23854068500356354  1.0000
  I   I2        1.0  0.9438673450170965  0.7636618209544533  0.7614636260658114  1.0000
  I   I3        1.0  0.23516069345840404  0.8940095158921861  0.45583076407404366  1.0000
  I   I4        1.0  0.7648364360226766  0.10597563760011036  0.544172496092372  1.0000
  N   N1        1.0  0.4886072968196444  0.20159582335750764  0.1468219718897643  1.0000
  N   N2        1.0  0.5113865940129613  0.7983812517106155  0.8531877476114429  1.0000
  N   N3        1.0  0.43351138186028493  0.43901339995924343  0.2107366514987774  1.0000
  N   N4        1.0  0.5664729569387817  0.5609819621470463  0.7892611546567492  1.0000
  N   N5        1.0  0.23830227058666514  0.5922204140914075  0.10361923622862432  1.0000
  N   N6        1.0  0.7616579033299189  0.40777664851952256  0.8963941532217631  1.0000
  N   N7        1.0  0.8489950485048184  0.7345426935409946  0.49398893645108877  1.0000
  N   N8        1.0  0.1510077848026867  0.26544493686292714  0.5060071227544539  1.0000
  Cl  Cl1       1.0  0.28362999048399473  0.34842930565106645  0.9646821720685066  1.0000
  Cl  Cl2       1.0  0.7163612431140151  0.6515626075381034  0.0353198357546916  1.0000
