data_image0
_chemical_formula_structural       Zn4H108C112N20O16
_chemical_formula_sum              "Zn4 H108 C112 N20 O16"
_cell_length_a       7.769027201868649
_cell_length_b       17.670568171681975
_cell_length_c       23.010790487138944
_cell_angle_alpha    89.99967977610177
_cell_angle_beta     90.00026836633955
_cell_angle_gamma    94.71714078133712

_space_group_name_H-M_alt    "P 1"
_space_group_IT_number       1

loop_
  _space_group_symop_operation_xyz
  'x, y, z'

loop_
  _atom_site_type_symbol
  _atom_site_label
  _atom_site_symmetry_multiplicity
  _atom_site_fract_x
  _atom_site_fract_y
  _atom_site_fract_z
  _atom_site_occupancy
  Zn  Zn1       1.0  0.5423559449354941  0.08011815707995852  0.22579824228912324  1.0000
  Zn  Zn2       1.0  0.45764448462541907  0.9198772389533972  0.7257978738724304  1.0000
  Zn  Zn3       1.0  0.04685759316191713  0.5811344296734903  0.2738398767072923  1.0000
  Zn  Zn4       1.0  0.9531344202016709  0.4188658681220759  0.7738376844115892  1.0000
  H   H1        1.0  0.6195893360915009  0.9937110188047671  0.3321229726779293  1.0000
  H   H2        1.0  0.38041040268320353  0.006285955198286802  0.8321207708075705  1.0000
  H   H3        1.0  0.8682592958099136  0.98377300134203  0.4013620146264998  1.0000
  H   H4        1.0  0.13174526860106536  0.016229148743711605  0.901358066802814  1.0000
  H   H5        1.0  0.1608605232270648  0.15163511538338537  0.29626298374829224  1.0000
  H   H6        1.0  0.8391376274725315  0.8483626848367438  0.7962644055770696  1.0000
  H   H7        1.0  0.9046670438346779  0.1533468852600066  0.23195896331662166  1.0000
  H   H8        1.0  0.09533075419170699  0.8466479311193069  0.7319618054960556  1.0000
  H   H9        1.0  0.5957138228831553  0.2129478259049975  0.3864195993421689  1.0000
  H   H10       1.0  0.4042936843793895  0.7870566663977954  0.8864201526629926  1.0000
  H   H11       1.0  0.8986052513929365  0.26166592638379166  0.4037233586092768  1.0000
  H   H12       1.0  0.1014119015038659  0.7383349230816522  0.9037218973140995  1.0000
  H   H13       1.0  0.9672735050862544  0.09746386445169723  0.5277781762002789  1.0000
  H   H14       1.0  0.03272477548953386  0.9025288886688613  0.027780263417433598  1.0000
  H   H15       1.0  0.6716447944076405  0.0384383938111554  0.5138815421985683  1.0000
  H   H16       1.0  0.3283517262785765  0.96155845707699  0.013881676711832802  1.0000
  H   H17       1.0  0.425669437313452  0.1205449109778129  0.5683277978235424  1.0000
  H   H18       1.0  0.5743260062165093  0.8794601293544633  0.06832477023760931  1.0000
  H   H19       1.0  0.4652668857493224  0.06815668792152252  0.668043334864393  1.0000
  H   H20       1.0  0.5347450600273049  0.9318469280743643  0.1680421906593992  1.0000
  H   H21       1.0  0.2941790917097933  0.8507564270626135  0.6159181375807208  1.0000
  H   H22       1.0  0.7058494832891923  0.14924449590758124  0.1159180358439187  1.0000
  H   H23       1.0  0.24306191228016163  0.8945335102544336  0.5137311606474669  1.0000
  H   H24       1.0  0.7569572495743483  0.10547161739326333  0.0137313297853012  1.0000
  H   H25       1.0  0.25368800401384556  0.3897264134265441  0.2504153584999216  1.0000
  H   H26       1.0  0.7463030191377624  0.6102712053249564  0.7504159197633412  1.0000
  H   H27       1.0  0.179517557845152  0.2976320166028685  0.22658928433557432  1.0000
  H   H28       1.0  0.82048302153882  0.7023639416902016  0.7265904367001923  1.0000
  H   H29       1.0  0.24038795616940686  0.31193844487698646  0.3005220080192146  1.0000
  H   H30       1.0  0.7596149629278273  0.6880575637764749  0.8005213860165342  1.0000
  H   H31       1.0  0.37745476496840513  0.3573877793033232  0.1562705654410976  1.0000
  H   H32       1.0  0.6225463673481072  0.6426092094955109  0.6562733959553385  1.0000
  H   H33       1.0  0.528983104717689  0.2887750879912118  0.1489533984909102  1.0000
  H   H34       1.0  0.4710234926737868  0.7112235937503116  0.6489504748054031  1.0000
  H   H35       1.0  0.7677577316077728  0.38119962356080356  0.1708105279110157  1.0000
  H   H36       1.0  0.23224056910763835  0.6188007170780451  0.6708102268341422  1.0000
  H   H37       1.0  0.6248484426094193  0.4437519822944154  0.14228453073791772  1.0000
  H   H38       1.0  0.37514880470561  0.5562457139626037  0.6422873364155777  1.0000
  H   H39       1.0  0.5055642926495664  0.46363185549868297  0.24125708932229634  1.0000
  H   H40       1.0  0.4944233491530241  0.5363630171294816  0.7412606068776171  1.0000
  H   H41       1.0  0.8141072583349497  0.30529510319426834  0.23800963711398276  1.0000
  H   H42       1.0  0.1858944426128488  0.6947047509807549  0.7380102379844828  1.0000
  H   H43       1.0  0.8677575822325776  0.35856821930144633  0.3015423674958839  1.0000
  H   H44       1.0  0.1322476135464257  0.6414317409629291  0.80154354654249  1.0000
  H   H45       1.0  0.7454813982766951  0.26969610609068445  0.30687561107161093  1.0000
  H   H46       1.0  0.25451987176377605  0.7303032950868983  0.8068752994645506  1.0000
  H   H47       1.0  0.43153490239374287  0.41585576612619946  0.33814602514864595  1.0000
  H   H48       1.0  0.5684649110082417  0.5841411669397801  0.8381472826558181  1.0000
  H   H49       1.0  0.5041761295638026  0.3283013135651985  0.3625652508576138  1.0000
  H   H50       1.0  0.4958256902800357  0.6716971415699291  0.8625660141042318  1.0000
  H   H51       1.0  0.647107845805671  0.4126307163291685  0.36128187280537827  1.0000
  H   H52       1.0  0.35289409816275  0.5873683151626639  0.8612836393606358  1.0000
  H   H53       1.0  0.7071833408263115  0.7903179671067447  0.2829435109900871  1.0000
  H   H54       1.0  0.2928080614738632  0.20968455429957805  0.7829472445044986  1.0000
  H   H55       1.0  0.8680429491884138  0.8011380908743819  0.3378487275675965  1.0000
  H   H56       1.0  0.13195270494828998  0.19886287739927871  0.837851814843397  1.0000
  H   H57       1.0  0.8081152734631657  0.8817072922123047  0.2981566924050725  1.0000
  H   H58       1.0  0.19188187301806883  0.1182967690319998  0.7981593542339098  1.0000
  H   H59       1.0  0.9527498502203784  0.8030553387953105  0.1537369069676942  1.0000
  H   H60       1.0  0.04725136691874351  0.19694735855770062  0.6537363898486745  1.0000
  H   H61       1.0  0.7670116569520572  0.8336828329250069  0.1863809418957203  1.0000
  H   H62       1.0  0.23298566895175546  0.1663231081610945  0.686383897191476  1.0000
  H   H63       1.0  0.8913832713935717  0.9621203177504397  0.1801571628762844  1.0000
  H   H64       1.0  0.10862768053783607  0.03788379849545011  0.6801582994796149  1.0000
  H   H65       1.0  0.06737796114424566  0.9284792615988243  0.1438996707076328  1.0000
  H   H66       1.0  0.932630697686278  0.07152284538009468  0.6439002472176938  1.0000
  H   H67       1.0  0.024221907802790228  0.9606239533789639  0.2716444176448007  1.0000
  H   H68       1.0  0.9757846216178477  0.0393778980216908  0.7716469404070453  1.0000
  H   H69       1.0  0.26082595368204403  0.8292453960544607  0.17632395872783493  1.0000
  H   H70       1.0  0.7391641517291843  0.17075272612702017  0.676325969487138  1.0000
  H   H71       1.0  0.41144033679084663  0.8595272269573828  0.23171759159922797  1.0000
  H   H72       1.0  0.5885611700109123  0.14046697863324917  0.7317212294112921  1.0000
  H   H73       1.0  0.3060845334716831  0.7667450501763541  0.23374110562056669  1.0000
  H   H74       1.0  0.6939021513415893  0.2332515913758187  0.733742774148709  1.0000
  H   H75       1.0  0.3250985612748067  0.8927872621858272  0.3283373385634221  1.0000
  H   H76       1.0  0.6749002905333653  0.1072063316917564  0.8283377818472957  1.0000
  H   H77       1.0  0.10786331410366765  0.8847668122146006  0.352029109796888  1.0000
  H   H78       1.0  0.8921405230500239  0.11522998172695513  0.8520320402484742  1.0000
  H   H79       1.0  0.2152520629424117  0.8009202785794827  0.3400097984451378  1.0000
  H   H80       1.0  0.7847473535043079  0.19907493890064396  0.8400117602478048  1.0000
  H   H81       1.0  0.1818834789073449  0.6451858228119889  0.39030955288626507  1.0000
  H   H82       1.0  0.8181215325005622  0.35481354921655855  0.8903139386783465  1.0000
  H   H83       1.0  0.23266260612951586  0.5921506905741725  0.4899977218409646  1.0000
  H   H84       1.0  0.7673437800821999  0.4078485717462428  0.989998755307205  1.0000
  H   H85       1.0  0.10314683818715761  0.36861445997960374  0.4192538983241364  1.0000
  H   H86       1.0  0.8968486803651883  0.6313865377417969  0.9192541757147978  1.0000
  H   H87       1.0  0.06729788822953961  0.4306087481878508  0.3222231709443406  1.0000
  H   H88       1.0  0.9326982961932017  0.5693900407857841  0.8222216003844594  1.0000
  H   H89       1.0  0.6387257241326978  0.4926913351924115  0.5900921727162043  1.0000
  H   H90       1.0  0.3612640132265597  0.507310211113996  0.0900943191635974  1.0000
  H   H91       1.0  0.8785184155932908  0.4920638606885816  0.6638629744078629  1.0000
  H   H92       1.0  0.12147452337239878  0.5079360192195707  0.16386647137697  1.0000
  H   H93       1.0  0.5782458784257329  0.3484868206678301  0.7723434534929795  1.0000
  H   H94       1.0  0.42175641159089855  0.651508244178757  0.2723411639636879  1.0000
  H   H95       1.0  0.3307348021472762  0.341344710809338  0.7037515370282961  1.0000
  H   H96       1.0  0.6692664744555754  0.6586553761417165  0.20375222164599896  1.0000
  H   H97       1.0  0.9041021440810368  0.27331173136052916  0.6110482450096981  1.0000
  H   H98       1.0  0.09588698895912981  0.72669139041129  0.11104771540642132  1.0000
  H   H99       1.0  0.6013342154467766  0.22512559395812565  0.5952242252545901  1.0000
  H   H100      1.0  0.39865829333783864  0.774876455264675  0.09522484322637581  1.0000
  H   H101      1.0  0.5363544486465912  0.3818296557177733  0.4653773615419041  1.0000
  H   H102      1.0  0.4636332138238188  0.6181734036570957  0.965380042260456  1.0000
  H   H103      1.0  0.8344694734966253  0.4389339808792557  0.47617893200055766  1.0000
  H   H104      1.0  0.1655181827477605  0.5610684374652024  0.9761805110847421  1.0000
  H   H105      1.0  0.3765541588725866  0.13671976326128296  0.35611119827395754  1.0000
  H   H106      1.0  0.6234476972553011  0.8632844270540334  0.8561122093740892  1.0000
  H   H107      1.0  0.12495786756886669  0.3458233837498383  0.6372986255024601  1.0000
  H   H108      1.0  0.8750303066903911  0.654179574591602  0.1372961832549535  1.0000
  C   C1        1.0  0.7428277167044044  0.027043455652879807  0.326245305982539  1.0000
  C   C2        1.0  0.2571705253436249  0.972953005566268  0.8262461250322063  1.0000
  C   C3        1.0  0.8797986090126811  0.021620108681574407  0.3640390010930544  1.0000
  C   C4        1.0  0.12020077744820405  0.9783840576323825  0.8640374038764663  1.0000
  C   C5        1.0  0.0353478506164819  0.0664961456064077  0.3543723262436488  1.0000
  C   C6        1.0  0.9646542639802149  0.933509191816299  0.8543696712330444  1.0000
  C   C7        1.0  0.0441094039345487  0.11544938158180434  0.3061170406288625  1.0000
  C   C8        1.0  0.9558921367403315  0.8845511600296875  0.8061167555747347  1.0000
  C   C9        1.0  0.9014917631432693  0.1167159974966481  0.2701167901609907  1.0000
  C   C10       1.0  0.09850734760493647  0.8832819654584583  0.7701164374027343  1.0000
  C   C11       1.0  0.1766754378166552  0.0621823001766515  0.3949434150939126  1.0000
  C   C12       1.0  0.8233243314566039  0.9378216561441165  0.8949431219882413  1.0000
  C   C13       1.0  0.4259712197557732  0.08997100494650573  0.4404130928068001  1.0000
  C   C14       1.0  0.574038240235268  0.9100331055529411  0.9404138229361223  1.0000
  C   C15       1.0  0.6029949510013424  0.12163436518158482  0.449673170154071  1.0000
  C   C16       1.0  0.39700951177830746  0.8783646184257918  0.949673752557004  1.0000
  C   C17       1.0  0.6728927252397411  0.18508069469384483  0.418245225203016  1.0000
  C   C18       1.0  0.3271261714938375  0.8149211764480383  0.9182442306733732  1.0000
  C   C19       1.0  0.8433340672483141  0.21267176404636962  0.428388370016215  1.0000
  C   C20       1.0  0.1566790031423366  0.7873215683523611  0.9283906974048008  1.0000
  C   C21       1.0  0.8811153875905475  0.12230556285994959  0.49692035647480276  1.0000
  C   C22       1.0  0.11887784884991957  0.8776869751091781  0.9969196259745274  1.0000
  C   C23       1.0  0.713721164004191  0.08931939781924572  0.48939208593288447  1.0000
  C   C24       1.0  0.2862916343455453  0.9106797939649314  0.9893953932065642  1.0000
  C   C25       1.0  0.31523687401524103  0.03896379727969191  0.4732264151203367  1.0000
  C   C26       1.0  0.6847707045943068  0.9610412554035862  0.9732253647823655  1.0000
  C   C27       1.0  0.3369129671439879  0.010827685596574098  0.5323222465908444  1.0000
  C   C28       1.0  0.663099445306109  0.9891751198132326  0.0323223650069409  1.0000
  C   C29       1.0  0.39691552464960717  0.0602351108987378  0.5770698904257046  1.0000
  C   C30       1.0  0.6030945941942605  0.9397662850394469  0.0770696909859581  1.0000
  C   C31       1.0  0.4177827886500295  0.031602337297407204  0.6323731537812876  1.0000
  C   C32       1.0  0.5822345748598605  0.9683991758638583  0.13237279734922683  1.0000
  C   C33       1.0  0.3198150630277894  0.9101449849774215  0.6033382797375921  1.0000
  C   C34       1.0  0.6802113483518608  0.08985832389070231  0.10333708921640292  1.0000
  C   C35       1.0  0.29347026781425717  0.9344814295983783  0.5468360185448873  1.0000
  C   C36       1.0  0.7065486040199076  0.06552063491245971  0.046835409864492306  1.0000
  C   C37       1.0  0.4746994363699599  0.22815839940339808  0.2508378603100425  1.0000
  C   C38       1.0  0.5253014433452917  0.771837394141798  0.7508343277986926  1.0000
  C   C39       1.0  0.45728254206738944  0.31272189312139886  0.2394208462791241  1.0000
  C   C40       1.0  0.5427176124034291  0.6872768311147156  0.7394211830632004  1.0000
  C   C41       1.0  0.27192278997451774  0.3291349769880653  0.2557443081307653  1.0000
  C   C42       1.0  0.7280808584073098  0.6708613209868589  0.7557450133856065  1.0000
  C   C43       1.0  0.4951856029494052  0.3370172187874446  0.1752165980142166  1.0000
  C   C44       1.0  0.5048096244330934  0.662980851210385  0.6752165441267834  1.0000
  C   C45       1.0  0.6393997257110086  0.40187526483339303  0.17658897357019043  1.0000
  C   C46       1.0  0.3605970826293046  0.5981239161887546  0.6765894023779496  1.0000
  C   C47       1.0  0.6252117346604322  0.43454693366430774  0.23772629597009137  1.0000
  C   C48       1.0  0.37478468706449064  0.5654524145096077  0.7377273230460446  1.0000
  C   C49       1.0  0.5985321066560089  0.36210971085976956  0.27661427341185174  1.0000
  C   C50       1.0  0.4014672246048646  0.6378887755779986  0.7766163346698107  1.0000
  C   C51       1.0  0.76594480127018  0.3215200794020775  0.2806269607375711  1.0000
  C   C52       1.0  0.23405614363949917  0.6784795001272386  0.780627274349861  1.0000
  C   C53       1.0  0.5411038959713536  0.38051563453051074  0.3381366286041612  1.0000
  C   C54       1.0  0.4588990452234042  0.6194835393023226  0.8381375577340648  1.0000
  C   C55       1.0  0.7690584647438569  0.49213110139923805  0.2573192691356354  1.0000
  C   C56       1.0  0.23093535180384345  0.5078670082165216  0.757322051864179  1.0000
  C   C57       1.0  0.9895909646161059  0.7231380801006397  0.24785947296260247  1.0000
  C   C58       1.0  0.010398299124446503  0.276862991710246  0.7478611594812392  1.0000
  C   C59       1.0  0.968024415610614  0.8084437208954399  0.24853504161191614  1.0000
  C   C60       1.0  0.03196856825537959  0.19155673390064004  0.7485362615147507  1.0000
  C   C61       1.0  0.8305970459100037  0.8213215344285701  0.2950222243256846  1.0000
  C   C62       1.0  0.16939964170064303  0.17868084519376026  0.795025024202836  1.0000
  C   C63       1.0  0.9088064727615189  0.8382801231206543  0.18910759276243988  1.0000
  C   C64       1.0  0.0911853311689796  0.16172415623457678  0.6891103401700676  1.0000
  C   C65       1.0  0.9883712880594617  0.9207413645654162  0.1833380116747065  1.0000
  C   C66       1.0  0.011635151413201998  0.07925993665838861  0.6833379449084163  1.0000
  C   C67       1.0  0.10213221047803962  0.9360423209243863  0.2375422714732451  1.0000
  C   C68       1.0  0.8978720525306512  0.0639575065689755  0.737542824789024  1.0000
  C   C69       1.0  0.14531292978864493  0.8568451457582925  0.2602818087311931  1.0000
  C   C70       1.0  0.8546849152268476  0.14315346659173397  0.7602815165616263  1.0000
  C   C71       1.0  0.2885805320870248  0.8261649929916147  0.2230755323549403  1.0000
  C   C72       1.0  0.7114151481132394  0.1738321841655761  0.7230783544209275  1.0000
  C   C73       1.0  0.20122487564645303  0.8586762605708318  0.3240888710333181  1.0000
  C   C74       1.0  0.7987742035732951  0.1413184974507118  0.8240902352937526  1.0000
  C   C75       1.0  0.2497608288008877  0.9964887276942846  0.22699633774038122  1.0000
  C   C76       1.0  0.7502492106981363  0.0034985788904791032  0.7269934380657689  1.0000
  C   C77       1.0  0.1682198554524064  0.5842633645427426  0.39886174802362007  1.0000
  C   C78       1.0  0.8317846780278231  0.41573880251016965  0.8988641546934844  1.0000
  C   C79       1.0  0.1940888717563993  0.5547407341918459  0.45384734026607293  1.0000
  C   C80       1.0  0.8059159227628357  0.44525935632996294  0.9538487089150324  1.0000
  C   C81       1.0  0.16570416856927034  0.4761434643394011  0.4629093225413143  1.0000
  C   C82       1.0  0.8342918907328141  0.523857236751674  0.9629099632162976  1.0000
  C   C83       1.0  0.12041295944592181  0.4301570758038481  0.41467505802840066  1.0000
  C   C84       1.0  0.8795812184497862  0.5698439679665626  0.9146729656356315  1.0000
  C   C85       1.0  0.10084050317436072  0.46396081883795404  0.36101709961626227  1.0000
  C   C86       1.0  0.8991551578971835  0.5360388567401274  0.8610177919196218  1.0000
  C   C87       1.0  0.1890318373474926  0.4432501378026146  0.5204776213766138  1.0000
  C   C88       1.0  0.8109594655352623  0.5567512840307886  0.0204772347288795  1.0000
  C   C89       1.0  0.32765641758929576  0.41813694787629874  0.5983599439545984  1.0000
  C   C90       1.0  0.6723341460243617  0.5818622567755085  0.0983587918021129  1.0000
  C   C91       1.0  0.4655576595228367  0.41659485264947455  0.6406728156080064  1.0000
  C   C92       1.0  0.5344365561344089  0.5834063051894135  0.1406740428144886  1.0000
  C   C93       1.0  0.6225049419882395  0.4598941516076138  0.6300013330818004  1.0000
  C   C94       1.0  0.37749243320391196  0.540104763393366  0.1300033641442866  1.0000
  C   C95       1.0  0.7544156164201609  0.45969118543727217  0.6702390836235637  1.0000
  C   C96       1.0  0.2455736897512679  0.5403092635798431  0.1702404673812694  1.0000
  C   C97       1.0  0.588020796079995  0.3785587293785754  0.7309458616938187  1.0000
  C   C98       1.0  0.41198424909956094  0.6214394250881058  0.2309462936273761  1.0000
  C   C99       1.0  0.45016814194379867  0.37461819741302094  0.6924764161493684  1.0000
  C   C100      1.0  0.5498329949835463  0.6253819661575691  0.1924748795706606  1.0000
  C   C101      1.0  0.07857648346021046  0.39129641210083577  0.5524613351684593  1.0000
  C   C102      1.0  0.9214142117008279  0.6087059426187836  0.052460901839225506  1.0000
  C   C103      1.0  0.9011261585674147  0.35996123178902906  0.5437713578723304  1.0000
  C   C104      1.0  0.09886284120860012  0.6400451853139658  0.043770772160812  1.0000
  C   C105      1.0  0.8290158837134598  0.29906589227537955  0.5775703570716219  1.0000
  C   C106      1.0  0.1709669750712877  0.7009398021795408  0.077568320798548  1.0000
  C   C107      1.0  0.658063447250683  0.2718092298239371  0.5684380412421746  1.0000
  C   C108      1.0  0.34192942978548063  0.728195839621684  0.06843355449445451  1.0000
  C   C109      1.0  0.6220951966295659  0.35811995852362344  0.4968583643834279  1.0000
  C   C110      1.0  0.3778972914075282  0.6418799890328443  0.9968603705849404  1.0000
  C   C111      1.0  0.7909575757248604  0.39018335275683574  0.5028195472103292  1.0000
  C   C112      1.0  0.20903007671392254  0.6098199367587824  0.0028210070844849997  1.0000
  N   N1        1.0  0.7527892800405525  0.07359522382930091  0.2796105705767644  1.0000
  N   N2        1.0  0.2472100883173027  0.926403242258779  0.7796098360769861  1.0000
  N   N3        1.0  0.3333585248915796  0.1034028355570697  0.39116913578879314  1.0000
  N   N4        1.0  0.6666473372336981  0.8965999364815717  0.8911700725770045  1.0000
  N   N5        1.0  0.16458550855459458  0.021383244668804504  0.44395615117095844  1.0000
  N   N6        1.0  0.835423855298096  0.978620274121973  0.9439552669544325  1.0000
  N   N7        1.0  0.9479679855899619  0.1833297645640357  0.4672993926417419  1.0000
  N   N8        1.0  0.05204341896605061  0.8166650362252028  0.9673001217086394  1.0000
  N   N9        1.0  0.3823934849219199  0.957639330203819  0.6454854106734018  1.0000
  N   N10       1.0  0.6176284528538003  0.04236431962930712  0.1454869319545864  1.0000
  N   N11       1.0  0.12126305921029261  0.5396625769283505  0.3531575965246176  1.0000
  N   N12       1.0  0.8787327845346694  0.4603382873349773  0.8531577133541292  1.0000
  N   N13       1.0  0.3399212015448896  0.459958081635321  0.5498026443181702  1.0000
  N   N14       1.0  0.6600731962340305  0.5400385550351103  0.04980252199970181  1.0000
  N   N15       1.0  0.1715308882550275  0.37677558460059396  0.6014497625186124  1.0000
  N   N16       1.0  0.8284560018742366  0.6232242114808955  0.1014491172876077  1.0000
  N   N17       1.0  0.7380783909260413  0.4198494935550627  0.7203634666052564  1.0000
  N   N18       1.0  0.2619159717456654  0.5801477169641488  0.22036470478302309  1.0000
  N   N19       1.0  0.5536669503962841  0.29932624542496467  0.5285865943809115  1.0000
  N   N20       1.0  0.44632258516451623  0.700677989361651  0.0285876089060153  1.0000
  O   O1        1.0  0.5409760575882602  0.18939326342265161  0.2103626383741855  1.0000
  O   O2        1.0  0.4590298765486763  0.8106044483306506  0.7103640471863457  1.0000
  O   O3        1.0  0.42521874425217726  0.20030034972569413  0.2991778105907628  1.0000
  O   O4        1.0  0.5747895501679351  0.799701867296797  0.7991820598066469  1.0000
  O   O5        1.0  0.9197412594042477  0.49018159379971854  0.23318419566159324  1.0000
  O   O6        1.0  0.08025510604136343  0.5098177852464334  0.7331823822065787  1.0000
  O   O7        1.0  0.7422894401194852  0.5404645259112328  0.2958119540168695  1.0000
  O   O8        1.0  0.25769756972527347  0.45953511464472996  0.7958154227553038  1.0000
  O   O9        1.0  0.9523499424445631  0.6832437413152804  0.2032004809507555  1.0000
  O   O10       1.0  0.04765317133752229  0.3167586050003024  0.7032042281236387  1.0000
  O   O11       1.0  0.043548763687233844  0.6927049308880415  0.294579903131158  1.0000
  O   O12       1.0  0.9564253916209112  0.3072948673399408  0.7945795010488724  1.0000
  O   O13       1.0  0.23903318082293618  0.04423700945204699  0.18721226565464383  1.0000
  O   O14       1.0  0.7609874774487865  0.955753853825243  0.6872213557892906  1.0000
  O   O15       1.0  0.3845430211940766  0.9978839150823121  0.26115302703731663  1.0000
  O   O16       1.0  0.615458826388881  0.0021152142097094  0.7611503514740506  1.0000
