data_image0
_chemical_formula_structural       U2H20C22N4O18
_chemical_formula_sum              "U2 H20 C22 N4 O18"
_cell_length_a       6.501609582492509
_cell_length_b       11.014883523526658
_cell_length_c       10.857111334509499
_cell_angle_alpha    94.101914933683
_cell_angle_beta     103.63318407496868
_cell_angle_gamma    106.17551541224047

_space_group_name_H-M_alt    "P 1"
_space_group_IT_number       1

loop_
  _space_group_symop_operation_xyz
  'x, y, z'

loop_
  _atom_site_type_symbol
  _atom_site_label
  _atom_site_symmetry_multiplicity
  _atom_site_fract_x
  _atom_site_fract_y
  _atom_site_fract_z
  _atom_site_occupancy
  U   U1        1.0  0.7891962935141519  0.11678499525013561  0.35940772212762073  1.0000
  U   U2        1.0  0.21084402228175503  0.8832124441392679  0.6406239574542667  1.0000
  H   H1        1.0  0.7992899613576087  0.40965886122693024  0.5586035646999291  1.0000
  H   H2        1.0  0.2007281655236994  0.5903357908111742  0.44141286961676224  1.0000
  H   H3        1.0  0.2253804197292197  0.9920650440602754  0.2586515933873414  1.0000
  H   H4        1.0  0.774636420461391  0.007933504095959198  0.7413447019904282  1.0000
  H   H5        1.0  0.2459880460477422  0.2483913603461332  0.713670529341165  1.0000
  H   H6        1.0  0.7540316770690011  0.7516004308570743  0.28634221877787513  1.0000
  H   H7        1.0  0.5528514525706427  0.6570141958855585  0.7714735960083131  1.0000
  H   H8        1.0  0.4471479190773877  0.34298726821993597  0.22851683570439718  1.0000
  H   H9        1.0  0.2369311529023222  0.8684310952615276  0.9699099067133117  1.0000
  H   H10       1.0  0.7630401172895347  0.13157714415152807  0.030069811999588556  1.0000
  H   H11       1.0  0.36711425085356814  0.8860272156906389  0.13770071214849364  1.0000
  H   H12       1.0  0.6328875546447037  0.11398192733701508  0.8622814389648781  1.0000
  H   H13       1.0  0.1798190483583185  0.7351282718503426  0.054183698640976295  1.0000
  H   H14       1.0  0.8201812842695941  0.2648751280649505  0.9457996467880249  1.0000
  H   H15       1.0  0.8303249156846206  0.8127071507523949  0.9039774089935406  1.0000
  H   H16       1.0  0.1696616925719283  0.18730579037651296  0.09602044431108679  1.0000
  H   H17       1.0  0.7344702395751384  0.7213209104821771  0.019753562353003025  1.0000
  H   H18       1.0  0.2655223200741759  0.2786824526746159  0.9802443682305011  1.0000
  H   H19       1.0  0.7033338152012047  0.8766473799532829  0.011934409996065612  1.0000
  H   H20       1.0  0.296661387775174  0.12336072778579422  0.9880743840525312  1.0000
  C   C1        1.0  0.5056139729087832  0.1844077991913267  0.5743975993747057  1.0000
  C   C2        1.0  0.49438966097331166  0.8155898361770468  0.42559128038288924  1.0000
  C   C3        1.0  0.5207536976832046  0.3154896150197927  0.6305612454107602  1.0000
  C   C4        1.0  0.47924050450338734  0.6845080172779133  0.36943278295363763  1.0000
  C   C5        1.0  0.683570415374014  0.42181001737297663  0.6131101389883895  1.0000
  C   C6        1.0  0.3164307231350847  0.5781856668710076  0.3868911410468386  1.0000
  C   C7        1.0  0.054901233269319547  0.9507517523159021  0.1974745873384265  1.0000
  C   C8        1.0  0.9451082367302701  0.0492477576132444  0.8025235309634908  1.0000
  C   C9        1.0  0.8822911560144532  0.6580251597382015  0.6594604657256297  1.0000
  C   C10       1.0  0.11767606110059602  0.3419811224238245  0.34053420153226444  1.0000
  C   C11       1.0  0.3718476983097929  0.330974066274301  0.7000733469484501  1.0000
  C   C12       1.0  0.6281561602700234  0.6690177769806167  0.29993077321671535  1.0000
  C   C13       1.0  0.7002104688336104  0.5443330361234826  0.6675580427220282  1.0000
  C   C14       1.0  0.2997959942220874  0.4556635670269813  0.3324523313639745  1.0000
  C   C15       1.0  0.5475606448861967  0.5617686117247871  0.7335336467630711  1.0000
  C   C16       1.0  0.45242679905420147  0.43822519488909245  0.26646283888497624  1.0000
  C   C17       1.0  0.3865141815579065  0.45463994463866436  0.7483648818214802  1.0000
  C   C18       1.0  0.6134732853736296  0.5453510011389823  0.2516286220785701  1.0000
  C   C19       1.0  0.214979219402892  0.8392173599940591  0.0617209916689063  1.0000
  C   C20       1.0  0.7850084806492886  0.16078605828645456  0.9382624579042583  1.0000
  C   C21       1.0  0.8109295970490963  0.8182114254647389  0.0015470623324774224  1.0000
  C   C22       1.0  0.18907027903873092  0.1817967006542602  0.9984540869140375  1.0000
  N   N1        1.0  0.029801139373631824  0.8747013442575805  0.09121522101266775  1.0000
  N   N2        1.0  0.9701913658840267  0.12530204033777176  0.9087762562088811  1.0000
  N   N3        1.0  0.22884175782638758  0.47304225272245765  0.8196859416879504  1.0000
  N   N4        1.0  0.7711378581046017  0.5269458352749223  0.1803071808035455  1.0000
  O   O1        1.0  0.4377843801179607  0.0905349794944144  0.631056236025394  1.0000
  O   O2        1.0  0.5621877183070723  0.9094569801145409  0.36892694059662995  1.0000
  O   O3        1.0  0.8924967304981237  0.9758520464237463  0.22709551284477666  1.0000
  O   O4        1.0  0.10751991703442339  0.0241608365401689  0.7729064721844808  1.0000
  O   O5        1.0  0.03496154108882635  0.6474701209293983  0.6074375879051175  1.0000
  O   O6        1.0  0.9650294767167226  0.35253608162373234  0.39257048223800695  1.0000
  O   O7        1.0  0.5926326941396524  0.12549576627709766  0.21340886354417418  1.0000
  O   O8        1.0  0.40738313843611  0.8744883000628361  0.7866266982566258  1.0000
  O   O9        1.0  0.8865649615433356  0.7685750968229073  0.7077307561576802  1.0000
  O   O10       1.0  0.11342728824167385  0.23142437940236962  0.2922852520878578  1.0000
  O   O11       1.0  0.564063815136876  0.174989335840543  0.47098141552136497  1.0000
  O   O12       1.0  0.435955652520761  0.8250111113750053  0.529018152029245  1.0000
  O   O13       1.0  0.9780594597026562  0.12115087286165503  0.5120972530107935  1.0000
  O   O14       1.0  0.022022305347142935  0.8788800358865527  0.487922463738343  1.0000
  O   O15       1.0  0.057845570951585004  0.38240316559268445  0.8076087145307865  1.0000
  O   O16       1.0  0.9421206839052871  0.6175897741664257  0.1923700491126112  1.0000
  O   O17       1.0  0.2758165733480098  0.5771110887596151  0.8884826338094597  1.0000
  O   O18       1.0  0.7241700562882869  0.4228721689092508  0.11152121196681715  1.0000
