data_image0
_chemical_formula_structural       Hg4H36C48I8N8Cl4
_chemical_formula_sum              "Hg4 H36 C48 I8 N8 Cl4"
_cell_length_a       4.804179926056578
_cell_length_b       16.95269392710318
_cell_length_c       18.12450580631317
_cell_angle_alpha    89.99959573719221
_cell_angle_beta     90.00054574988559
_cell_angle_gamma    89.99999329364839

_space_group_name_H-M_alt    "P 1"
_space_group_IT_number       1

loop_
  _space_group_symop_operation_xyz
  'x, y, z'

loop_
  _atom_site_type_symbol
  _atom_site_label
  _atom_site_symmetry_multiplicity
  _atom_site_fract_x
  _atom_site_fract_y
  _atom_site_fract_z
  _atom_site_occupancy
  Hg  Hg1       1.0  0.0017326503852146  0.8586397120954813  0.5223286833725853  1.0000
  Hg  Hg2       1.0  0.4982727297234747  0.14135855527316474  0.022326305535301606  1.0000
  Hg  Hg3       1.0  0.5017214776525947  0.641358177668124  0.47767226615090425  1.0000
  Hg  Hg4       1.0  0.9982645867106615  0.3586448473967394  0.9776692532997517  1.0000
  H   H1        1.0  0.6328129394033226  0.012821186787064698  0.5575894924441018  1.0000
  H   H2        1.0  0.8671957808556743  0.9871750141911594  0.057586222649710826  1.0000
  H   H3        1.0  0.13281295127868023  0.4871733880495841  0.4424145059173912  1.0000
  H   H4        1.0  0.3671989143022643  0.5128275742508137  0.9424107013117511  1.0000
  H   H5        1.0  0.2737517717872322  0.10438206515259203  0.505348962646444  1.0000
  H   H6        1.0  0.22625300966996056  0.8956157418315341  0.005348134853285602  1.0000
  H   H7        1.0  0.773755734643885  0.3956130917175287  0.4946537430402389  1.0000
  H   H8        1.0  0.7262600697875357  0.604385674689688  0.994652840480818  1.0000
  H   H9        1.0  0.37678538209927137  0.9855260024253527  0.2961658954894447  1.0000
  H   H10       1.0  0.12323589769107461  0.0144760752452555  0.7961658194155351  1.0000
  H   H11       1.0  0.876757222088969  0.5144789449819951  0.7038332600483063  1.0000
  H   H12       1.0  0.6232233502252384  0.4855220394045574  0.20383318863041217  1.0000
  H   H13       1.0  0.7253266981242703  0.8979939491728786  0.35716084420352  1.0000
  H   H14       1.0  0.7747009106663401  0.1020105848599471  0.8571589312128938  1.0000
  H   H15       1.0  0.22529636051073257  0.6020121864191808  0.6428390252059516  1.0000
  H   H16       1.0  0.2746841273260756  0.39799165050414587  0.14283715599530925  1.0000
  H   H17       1.0  0.05573805016713612  0.09739811267184  0.3028880123554175  1.0000
  H   H18       1.0  0.4442647329483407  0.9026027339786751  0.8028879311674263  1.0000
  H   H19       1.0  0.5557262537811738  0.4026041348702307  0.6971119255304219  1.0000
  H   H20       1.0  0.9442644891834249  0.5973980805240232  0.1971136049548222  1.0000
  H   H21       1.0  0.7329080111720074  0.16108312157866317  0.259832604962739  1.0000
  H   H22       1.0  0.7670849431956769  0.8389180255979483  0.75983248367929  1.0000
  H   H23       1.0  0.23290605197924208  0.3389173464697564  0.7401666852007482  1.0000
  H   H24       1.0  0.267092438202873  0.6610822088935606  0.24016914843114998  1.0000
  H   H25       1.0  0.3774522411789222  0.255405168797644  0.2191603862117263  1.0000
  H   H26       1.0  0.1225392637498217  0.7445969062891605  0.7191605087254092  1.0000
  H   H27       1.0  0.8774538254827037  0.2445947013236562  0.7808392757720458  1.0000
  H   H28       1.0  0.6225419511066194  0.7554045160042336  0.28084130329664003  1.0000
  H   H29       1.0  0.34586485294811103  0.35584382912098517  0.43801398506173694  1.0000
  H   H30       1.0  0.1541385314380292  0.6441524477174384  0.9380126374430806  1.0000
  H   H31       1.0  0.8458587341571121  0.14415486300416086  0.5619861474023369  1.0000
  H   H32       1.0  0.65413348903855  0.8558448436853325  0.06198760064833662  1.0000
  H   H33       1.0  0.7005754550358035  0.259739170838607  0.4796158891926299  1.0000
  H   H34       1.0  0.7994231670159807  0.7402561709973698  0.9796148397902233  1.0000
  H   H35       1.0  0.20056575975171143  0.24025952937420675  0.5203849730145864  1.0000
  H   H36       1.0  0.2994270627467728  0.759738752808751  0.020385220299573306  1.0000
  C   C1        1.0  0.5689862526409968  0.0091222915653972  0.4998703314207378  1.0000
  C   C2        1.0  0.931019328129267  0.9908758451774348  0.9998701917521375  1.0000
  C   C3        1.0  0.06898205450018931  0.490875236220404  0.5001307440472262  1.0000
  C   C4        1.0  0.4310225429561142  0.509125559948025  0.00012910334450570005  1.0000
  C   C5        1.0  0.3705231453555271  0.05968310361175359  0.4708252571699706  1.0000
  C   C6        1.0  0.1294897220018001  0.9403146926141729  0.9708246718603991  1.0000
  C   C7        1.0  0.8705158303700601  0.4403132276309946  0.5291754904684327  1.0000
  C   C8        1.0  0.6294898065820363  0.5596873191773568  0.02917495107844561  1.0000
  C   C9        1.0  0.29418414257727227  0.052469786930871  0.3963569451873213  1.0000
  C   C10       1.0  0.2058281806844349  0.9475309367398879  0.8963576126346171  1.0000
  C   C11       1.0  0.7941690446842246  0.44753126757352385  0.6036447095357931  1.0000
  C   C12       1.0  0.7058225657864341  0.5524693011594266  0.10364496536541173  1.0000
  C   C13       1.0  0.4262287693221936  0.9937309646274243  0.35438710596385914  1.0000
  C   C14       1.0  0.073788318695108  0.0062712588884395  0.8543869562516311  1.0000
  C   C15       1.0  0.9262131282585173  0.506271030642118  0.6456121767837646  1.0000
  C   C16       1.0  0.5737799619212398  0.4937303977735965  0.14561247633240987  1.0000
  C   C17       1.0  0.6210617843791438  0.9447757798931496  0.38796967333533433  1.0000
  C   C18       1.0  0.8789606661316185  0.055225569786202286  0.8879683338840327  1.0000
  C   C19       1.0  0.12103661128345072  0.5552262323642623  0.6120310313700446  1.0000
  C   C20       1.0  0.3789427903104112  0.4447743002600503  0.11202912499813786  1.0000
  C   C21       1.0  0.08554648405427662  0.1041920834406298  0.3628907679980743  1.0000
  C   C22       1.0  0.4144625777167406  0.8958083055886445  0.8628912062245536  1.0000
  C   C23       1.0  0.5855284098770852  0.3958078029449793  0.6371064878682662  1.0000
  C   C24       1.0  0.914462298945665  0.6041919206971116  0.13711025323893017  1.0000
  C   C25       1.0  0.7495330286668819  0.2047483157934167  0.3730548813020605  1.0000
  C   C26       1.0  0.750465999269352  0.7952507881236882  0.8730550022597685  1.0000
  C   C27       1.0  0.24952500171931302  0.29525097157365116  0.6269450033614917  1.0000
  C   C28       1.0  0.2504736594468397  0.7047476776673562  0.12694548362907204  1.0000
  C   C29       1.0  0.6539316496424021  0.20390802442203443  0.2995399290531538  1.0000
  C   C30       1.0  0.8460668677750648  0.7960916401700402  0.7995391869628394  1.0000
  C   C31       1.0  0.15392621461282371  0.2960918581440525  0.7004602614337829  1.0000
  C   C32       1.0  0.3460750386025353  0.7039062304198183  0.20046154484447246  1.0000
  C   C33       1.0  0.4526315244043318  0.2571804794290601  0.2758809201950428  1.0000
  C   C34       1.0  0.0473598988890984  0.7428211630695571  0.7758814126511526  1.0000
  C   C35       1.0  0.9526290275380447  0.24281879663066525  0.7241183834312965  1.0000
  C   C36       1.0  0.5473689121782003  0.757179673538168  0.2241191025173138  1.0000
  C   C37       1.0  0.34611473770019785  0.3126469935693876  0.3255801641882813  1.0000
  C   C38       1.0  0.1538826009357877  0.6873525002647298  0.8255796374522648  1.0000
  C   C39       1.0  0.8461104959053076  0.18735228841643453  0.6744205206582452  1.0000
  C   C40       1.0  0.6538877730695347  0.812646560778056  0.17442170346654257  1.0000
  C   C41       1.0  0.4335253312727758  0.313746241375668  0.39901289591939826  1.0000
  C   C42       1.0  0.06647043344332101  0.6862515126612152  0.8990121515136669  1.0000
  C   C43       1.0  0.933522663544075  0.18625185598834548  0.6009880137808994  1.0000
  C   C44       1.0  0.5664750978106099  0.8137469633773833  0.10098786107610642  1.0000
  C   C45       1.0  0.6328521669718938  0.25974293085118205  0.4222205819740737  1.0000
  C   C46       1.0  0.867146512923597  0.7402528487192513  0.9222191550615338  1.0000
  C   C47       1.0  0.1328444953653118  0.2402551832545116  0.577780657770987  1.0000
  C   C48       1.0  0.3671503508101708  0.7597426611939255  0.07778052749311123  1.0000
  I   I1        1.0  0.11500703998839874  0.9385569147083571  0.6471799724448319  1.0000
  I   I2        1.0  0.3849964976461068  0.06144334984386997  0.1471789282983096  1.0000
  I   I3        1.0  0.615008127994713  0.5614386092349761  0.3528223719583112  1.0000
  I   I4        1.0  0.8849797788620253  0.4385647781491072  0.8528163391277562  1.0000
  I   I5        1.0  0.12920493821182794  0.7701509878644117  0.40163619012254526  1.0000
  I   I6        1.0  0.37078467442373153  0.229850285428725  0.9016347934296154  1.0000
  I   I7        1.0  0.6292000906469184  0.7298510239452156  0.5983628803382148  1.0000
  I   I8        1.0  0.8707975780894941  0.270151944591646  0.09835933401809883  1.0000
  N   N1        1.0  0.6906357909204387  0.9521607625610499  0.4593791340342081  1.0000
  N   N2        1.0  0.8093787697334778  0.047839452636836206  0.9593754568531242  1.0000
  N   N3        1.0  0.1906185086438725  0.5478400660635643  0.5406228531300387  1.0000
  N   N4        1.0  0.3093729458092298  0.4521633706807647  0.04061851261302252  1.0000
  N   N5        1.0  0.9508582402928454  0.15414738915751514  0.4028580490003579  1.0000
  N   N6        1.0  0.5491460014934759  0.8458514874627097  0.9028578735728846  1.0000
  N   N7        1.0  0.450851237360638  0.3458548363764322  0.5971434570058349  1.0000
  N   N8        1.0  0.04914845456610809  0.6541452199042652  0.09714374967340694  1.0000
  Cl  Cl1       1.0  0.09983493538474873  0.38042689920121114  0.29652448920086993  1.0000
  Cl  Cl2       1.0  0.4001592972813128  0.6195728162280076  0.7965244866130877  1.0000
  Cl  Cl3       1.0  0.5998379715908514  0.11957121674936388  0.7034750104095695  1.0000
  Cl  Cl4       1.0  0.9001613218040704  0.8804268209796433  0.20347638432351545  1.0000
