data_image0
_chemical_formula_structural       Mg2H20C8O16
_chemical_formula_sum              "Mg2 H20 C8 O16"
_cell_length_a       5.30462161942638
_cell_length_b       6.9118137816267895
_cell_length_c       12.551486191538212
_cell_angle_alpha    89.6808019656485
_cell_angle_beta     89.14292829051548
_cell_angle_gamma    67.45437953578991

_space_group_name_H-M_alt    "P 1"
_space_group_IT_number       1

loop_
  _space_group_symop_operation_xyz
  'x, y, z'

loop_
  _atom_site_type_symbol
  _atom_site_label
  _atom_site_symmetry_multiplicity
  _atom_site_fract_x
  _atom_site_fract_y
  _atom_site_fract_z
  _atom_site_occupancy
  Mg  Mg1       1.0  0.46762002686342186  0.06474115358115988  0.2500597294828566  1.0000
  Mg  Mg2       1.0  0.5323761696078861  0.9352530698091001  0.7499478564056687  1.0000
  H   H1        1.0  0.21328235285284344  0.6145753529428218  0.452826647916396  1.0000
  H   H2        1.0  0.8280535453742317  0.3856501119991833  0.9523723072107018  1.0000
  H   H3        1.0  0.7866555631653258  0.38540789185501717  0.54716231859625  1.0000
  H   H4        1.0  0.1719756178928123  0.6143644822449443  0.04763200146995669  1.0000
  H   H5        1.0  0.9097973579545736  0.1131959268653659  0.3490523581494998  1.0000
  H   H6        1.0  0.022711181825379102  0.8869277804149858  0.849009726202901  1.0000
  H   H7        1.0  0.0901918314005885  0.8867967282954793  0.6509521990845286  1.0000
  H   H8        1.0  0.9773028660243666  0.1130821105665021  0.1509885638145079  1.0000
  H   H9        1.0  0.8064793444232667  0.9395697352104335  0.4003065736641886  1.0000
  H   H10       1.0  0.7458695275954809  0.06035021221712359  0.900380162303911  1.0000
  H   H11       1.0  0.19351539042693838  0.06041508705766319  0.5996947610054093  1.0000
  H   H12       1.0  0.2541489447792813  0.939658112523716  0.0996164584626342  1.0000
  H   H13       1.0  0.043112049874778804  0.4307466908762905  0.3164070019303296  1.0000
  H   H14       1.0  0.4739430373636823  0.569516689725475  0.8163316784722383  1.0000
  H   H15       1.0  0.9569042017138827  0.5692694663182252  0.6835871928946914  1.0000
  H   H16       1.0  0.5260747324633214  0.4304791030126722  0.18367225937004153  1.0000
  H   H17       1.0  0.18020245744752128  0.2923878486763484  0.4179842346248179  1.0000
  H   H18       1.0  0.47239256174771077  0.70789144394827  0.9179736242669492  1.0000
  H   H19       1.0  0.8197753663745004  0.7076110698502588  0.5820117232700142  1.0000
  H   H20       1.0  0.5276329361593142  0.29210748296067374  0.0820285283871698  1.0000
  C   C1        1.0  0.5388244537643418  0.7297387336688387  0.4227169803128703  1.0000
  C   C2        1.0  0.2686365356753555  0.2705722491576807  0.9226374601010575  1.0000
  C   C3        1.0  0.46115799555298054  0.2702977825867734  0.5772649462948252  1.0000
  C   C4        1.0  0.7313934091878951  0.729437645960786  0.0773708664047774  1.0000
  C   C5        1.0  0.4258867167784644  0.5829665102494272  0.470671121367225  1.0000
  C   C6        1.0  0.008947719023240142  0.4171622357983437  0.9704792044788064  1.0000
  C   C7        1.0  0.5740750615702339  0.41695407677583757  0.5293427075763333  1.0000
  C   C8        1.0  0.9910747117623518  0.5828460899408014  0.029519726443304306  1.0000
  O   O1        1.0  0.4084280204033491  0.839987719054754  0.34518710349253473  1.0000
  O   O2        1.0  0.24866489179223095  0.16055284261757663  0.8449298875175089  1.0000
  O   O3        1.0  0.5914623222976942  0.16005661330927975  0.6547775038922836  1.0000
  O   O4        1.0  0.7513498899618016  0.8394351178224252  0.1550821634936881  1.0000
  O   O5        1.0  0.7612610942507704  0.7358153594689938  0.4590376797658208  1.0000
  O   O6        1.0  0.49716693916919047  0.26401487884074015  0.9590992009517548  1.0000
  O   O7        1.0  0.23876373794070097  0.26414910331465086  0.5409767964301508  1.0000
  O   O8        1.0  0.5028576939863997  0.7359965805060397  0.0408996526788243  1.0000
  O   O9        1.0  0.7531882013040346  0.0724281727472089  0.35825799118643437  1.0000
  O   O10       1.0  0.8254097305940319  0.9275897384804562  0.8582253593787003  1.0000
  O   O11       1.0  0.24680363401244432  0.9275676170274423  0.6417520598191119  1.0000
  O   O12       1.0  0.174612573451185  0.07241858697121728  0.1417719798111108  1.0000
  O   O13       1.0  0.14126525791625252  0.2866032824884143  0.33878135235631385  1.0000
  O   O14       1.0  0.4275115345538226  0.7136975386853164  0.8387751954983571  1.0000
  O   O15       1.0  0.8587306891810659  0.7134003381430671  0.6612109963650639  1.0000
  O   O16       1.0  0.5725085643835616  0.28630138794794385  0.1612302567846911  1.0000
