data_image0
_chemical_formula_structural       Ca2H36C36O20
_chemical_formula_sum              "Ca2 H36 C36 O20"
_cell_length_a       7.184649893925808
_cell_length_b       12.279697463567718
_cell_length_c       12.279513567138961
_cell_angle_alpha    115.86329006941108
_cell_angle_beta     95.37519544764223
_cell_angle_gamma    95.37532449851678

_space_group_name_H-M_alt    "P 1"
_space_group_IT_number       1

loop_
  _space_group_symop_operation_xyz
  'x, y, z'

loop_
  _atom_site_type_symbol
  _atom_site_label
  _atom_site_symmetry_multiplicity
  _atom_site_fract_x
  _atom_site_fract_y
  _atom_site_fract_z
  _atom_site_occupancy
  Ca  Ca1       1.0  0.7499897854884239  0.47227608377465186  0.5277216917867165  1.0000
  Ca  Ca2       1.0  0.25000882286220616  0.5277338969538546  0.47228881870830003  1.0000
  H   H1        1.0  0.18181187202024046  0.9156557463704756  0.4773171270047455  1.0000
  H   H2        1.0  0.31820923697974723  0.5226963733436988  0.08435283454197412  1.0000
  H   H3        1.0  0.8181793417719235  0.08433324106722752  0.5226690765591613  1.0000
  H   H4        1.0  0.6818153284607007  0.47731750616062396  0.9156574691479308  1.0000
  H   H5        1.0  0.383798871606629  0.9961305095740868  0.6803716766215402  1.0000
  H   H6        1.0  0.11622318544656447  0.31965269964727133  0.003886619766085176  1.0000
  H   H7        1.0  0.6161866580034783  0.0038510776624534  0.3196182979281943  1.0000
  H   H8        1.0  0.8837962102453643  0.6803629341450304  0.9961290800857583  1.0000
  H   H9        1.0  0.5563542817139931  0.20941992432335607  0.7785975043654788  1.0000
  H   H10       1.0  0.9436508491497403  0.2214096914805667  0.790599359222796  1.0000
  H   H11       1.0  0.4436330285713267  0.7905635102650947  0.2213925626517009  1.0000
  H   H12       1.0  0.056349981613045844  0.7786103022847257  0.20942545884862793  1.0000
  H   H13       1.0  0.5263341940066297  0.3408795609077231  0.673368300408768  1.0000
  H   H14       1.0  0.9736810083232896  0.3266348609241446  0.6591336394011764  1.0000
  H   H15       1.0  0.4736678918333367  0.6591140285020741  0.32663107892988547  1.0000
  H   H16       1.0  0.02632774115648568  0.6733696657830066  0.3408855693917303  1.0000
  H   H17       1.0  0.8832517092031222  0.9617056180604705  0.1752988474554583  1.0000
  H   H18       1.0  0.6167228592789937  0.8247016150159893  0.03828262368004675  1.0000
  H   H19       1.0  0.11674401334322937  0.038298021578803805  0.8246948708209345  1.0000
  H   H20       1.0  0.3832744413941924  0.1752965940104261  0.961702262502989  1.0000
  H   H21       1.0  0.043106501146475254  0.9414970997990508  0.06553928389222095  1.0000
  H   H22       1.0  0.45689238806622257  0.9344531592636969  0.058487979954712166  1.0000
  H   H23       1.0  0.9568872318073642  0.058503786389273706  0.9344523023651162  1.0000
  H   H24       1.0  0.543125089530882  0.0655543426109233  0.9415053001868899  1.0000
  H   H25       1.0  0.9729741112350822  0.08770177000570809  0.1493032378428865  1.0000
  H   H26       1.0  0.5270234552637162  0.8506978109379874  0.9122989133059323  1.0000
  H   H27       1.0  0.02703544066103086  0.9123074342281614  0.8507001607356914  1.0000
  H   H28       1.0  0.47298284596824647  0.1493032078454277  0.08768930319475741  1.0000
  H   H29       1.0  0.9366002913858578  0.2574056435341916  0.42313122920868546  1.0000
  H   H30       1.0  0.5633956532647276  0.5768740185838866  0.7425955604327399  1.0000
  H   H31       1.0  0.06339157306055641  0.7425924156874257  0.5768712290158007  1.0000
  H   H32       1.0  0.43660801429874846  0.42313324202604724  0.2574180800875183  1.0000
  H   H33       1.0  0.7168002911593517  0.20840799874580537  0.37604673002500283  1.0000
  H   H34       1.0  0.7831933337179392  0.6239610631166029  0.7915914316615726  1.0000
  H   H35       1.0  0.2831997469433459  0.7915956085129208  0.6239594108181379  1.0000
  H   H36       1.0  0.21680340492637373  0.37603972337419134  0.20842225304227924  1.0000
  C   C1        1.0  0.33412195456681093  0.20527291404484774  0.5180836185395208  1.0000
  C   C2        1.0  0.1658784944022429  0.4819219880955714  0.794727940085764  1.0000
  C   C3        1.0  0.6658770982930161  0.7947197586898014  0.4819111287803181  1.0000
  C   C4        1.0  0.8341153608355822  0.5180851918479945  0.20528434791609834  1.0000
  C   C5        1.0  0.23978391316219927  0.0844229574100126  0.4641117499939611  1.0000
  C   C6        1.0  0.26020796020240056  0.5358879331040143  0.9155835921084972  1.0000
  C   C7        1.0  0.7602175307902215  0.9155679228921301  0.5358798851915693  1.0000
  C   C8        1.0  0.7398046246738588  0.46412218780501036  0.08442443848890231  1.0000
  C   C9        1.0  0.2556903917557989  0.0093037876948401  0.5216952026066224  1.0000
  C   C10       1.0  0.24431454411300985  0.4783097392446223  0.990706044382449  1.0000
  C   C11       1.0  0.7442984763506855  0.9906869646069509  0.4782989895864133  1.0000
  C   C12       1.0  0.7557032849910498  0.5216922141580724  0.009297019786067957  1.0000
  C   C13       1.0  0.36818770843891707  0.054811837994797906  0.6355413268749146  1.0000
  C   C14       1.0  0.13183485262967307  0.3644715469103161  0.9452035872718698  1.0000
  C   C15       1.0  0.6318079832210939  0.9451716834588025  0.3644467645542093  1.0000
  C   C16       1.0  0.8681581302987381  0.6355383988817636  0.05480417653615889  1.0000
  C   C17       1.0  0.46724394439009126  0.17369660733984202  0.6899947021323953  1.0000
  C   C18       1.0  0.03277469131928258  0.3100111186496122  0.8263166616558664  1.0000
  C   C19       1.0  0.5327467334639805  0.8262896066639198  0.3099951357663143  1.0000
  C   C20       1.0  0.9672273590793808  0.689995228275862  0.17369404945374356  1.0000
  C   C21       1.0  0.45126800352321783  0.2475191886882726  0.6311234295726039  1.0000
  C   C22       1.0  0.04873386115566089  0.36888763058600915  0.7524940045939703  1.0000
  C   C23       1.0  0.5487114852278622  0.7524732859557589  0.3688751147035561  1.0000
  C   C24       1.0  0.951274447786048  0.6311150977072727  0.24751868684829492  1.0000
  C   C25       1.0  0.3072064693512502  0.29341279682065385  0.4663516051968415  1.0000
  C   C26       1.0  0.19278007424448862  0.5336436742493332  0.7065866917904983  1.0000
  C   C27       1.0  0.6927898275561049  0.7065798239852654  0.5336478643980342  1.0000
  C   C28       1.0  0.807217177634463  0.4663598994596043  0.2934209203311298  1.0000
  C   C29       1.0  0.17343432557184707  0.03978359172022999  0.2515443625089874  1.0000
  C   C30       1.0  0.32656910878021955  0.7484590436892873  0.9602123698787038  1.0000
  C   C31       1.0  0.8265340455739149  0.9602097650973395  0.7484426004534371  1.0000
  C   C32       1.0  0.6734707651401095  0.25153489296370424  0.0397858404305111  1.0000
  C   C33       1.0  0.006595759584094197  0.004029167231166799  0.15403234223450823  1.0000
  C   C34       1.0  0.49339677604173454  0.8459708363729065  0.9959625512069366  1.0000
  C   C35       1.0  0.9933963562049397  0.9959708052726983  0.8459563146121809  1.0000
  C   C36       1.0  0.5065883881246833  0.15402267579602844  0.0040237115759324945  1.0000
  O   O1        1.0  0.4406545984103261  0.38257920463443884  0.49668641494638877  1.0000
  O   O2        1.0  0.05933727831972386  0.5033154016682175  0.6174245527110713  1.0000
  O   O3        1.0  0.5593435018756948  0.6174152497391887  0.503315585363346  1.0000
  O   O4        1.0  0.9406563970731696  0.49668448652636943  0.3825812489774094  1.0000
  O   O5        1.0  0.1537494853792154  0.2854207933748469  0.400867310802667  1.0000
  O   O6        1.0  0.34624285645799796  0.5991325975485823  0.7145758951725298  1.0000
  O   O7        1.0  0.846240970819693  0.7145772582613432  0.5991342575627954  1.0000
  O   O8        1.0  0.6537610327606272  0.4008628254289235  0.28542601488097563  1.0000
  O   O9        1.0  0.11684462912155878  0.03532670042444861  0.35343765403912636  1.0000
  O   O10       1.0  0.3831658352626377  0.6465576073291288  0.9646759295887862  1.0000
  O   O11       1.0  0.8831591326430582  0.9646751679345513  0.6465581370373598  1.0000
  O   O12       1.0  0.6168287409282414  0.3534468986606214  0.03532462762415627  1.0000
  O   O13       1.0  0.3372688089053639  0.06760116048047848  0.24303825765839096  1.0000
  O   O14       1.0  0.16272200997583744  0.7569598338215471  0.9323915149259817  1.0000
  O   O15       1.0  0.6627491080309085  0.9324017725370196  0.7569538420755393  1.0000
  O   O16       1.0  0.837262356975529  0.24305016754216524  0.06759302924683652  1.0000
  O   O17       1.0  0.8071570671200232  0.2622031034909966  0.4482804778005161  1.0000
  O   O18       1.0  0.6928366212661246  0.5517262300803624  0.7377992814656765  1.0000
  O   O19       1.0  0.19283961854955578  0.737797715162941  0.5517275176593657  1.0000
  O   O20       1.0  0.3071632835974468  0.44827642513197213  0.2622129473172237  1.0000
