data_image0
_chemical_formula_structural       Ag4H32C38S2N8O16
_chemical_formula_sum              "Ag4 H32 C38 S2 N8 O16"
_cell_length_a       8.422897815880436
_cell_length_b       10.706974909976703
_cell_length_c       12.986119769889642
_cell_angle_alpha    101.51633099631988
_cell_angle_beta     95.73312650243928
_cell_angle_gamma    88.45708948538963

_space_group_name_H-M_alt    "P 1"
_space_group_IT_number       1

loop_
  _space_group_symop_operation_xyz
  'x, y, z'

loop_
  _atom_site_type_symbol
  _atom_site_label
  _atom_site_symmetry_multiplicity
  _atom_site_fract_x
  _atom_site_fract_y
  _atom_site_fract_z
  _atom_site_occupancy
  Ag  Ag1       1.0  0.5157737544231722  0.6033936799183974  0.5855107169799891  1.0000
  Ag  Ag2       1.0  0.4842264652732453  0.3966074997223571  0.4144887947263952  1.0000
  Ag  Ag3       1.0  0.5875412713149332  0.3900843463319389  0.05685660877531255  1.0000
  Ag  Ag4       1.0  0.4124566306809285  0.6099158368654186  0.9431464470861567  1.0000
  H   H1        1.0  0.2491439162006301  0.8095631644449311  0.4930499639162702  1.0000
  H   H2        1.0  0.7508491660939997  0.19043712266288546  0.506950528227307  1.0000
  H   H3        1.0  0.3644325632706185  0.6820084983256294  0.33661442853517787  1.0000
  H   H4        1.0  0.6355665157643315  0.3179945728194156  0.6633868941013927  1.0000
  H   H5        1.0  0.9632180248673023  0.4295822449474541  0.2789826700561234  1.0000
  H   H6        1.0  0.03678453901139989  0.5704179811779113  0.7210152645151593  1.0000
  H   H7        1.0  0.7100146946675353  0.20931470561092877  0.874959045023054  1.0000
  H   H8        1.0  0.28998677081327173  0.7906854473760845  0.12504343599920983  1.0000
  H   H9        1.0  0.6434927275687912  0.0011519194911926037  0.7542557112443189  1.0000
  H   H10       1.0  0.35650873256206955  0.9988492011332966  0.24574617051835898  1.0000
  H   H11       1.0  0.2227483856975709  0.9919759128094724  0.9191317726241193  1.0000
  H   H12       1.0  0.7772530062239866  0.008023345959294702  0.08086746515369467  1.0000
  H   H13       1.0  0.310964461153084  0.19445220488153575  0.03604402328037538  1.0000
  H   H14       1.0  0.6890333672835283  0.8055470840975829  0.9639557893366442  1.0000
  H   H15       1.0  0.8895677546657623  0.5264240237514103  0.037302356130730616  1.0000
  H   H16       1.0  0.11043244951681427  0.4735742823446215  0.9626974163528101  1.0000
  H   H17       1.0  0.03211417601076501  0.729806326069145  0.11776234571011905  1.0000
  H   H18       1.0  0.9678871792651619  0.2701910414762169  0.8822357850844468  1.0000
  H   H19       1.0  0.6719633369855558  0.8082039063561125  0.3374758196755038  1.0000
  H   H20       1.0  0.3280380653678919  0.19179630536628164  0.6625235873435213  1.0000
  H   H21       1.0  0.547576075761974  0.6009288481199917  0.24843833373637372  1.0000
  H   H22       1.0  0.4524253423733101  0.3990713489185609  0.7515618417834627  1.0000
  H   H23       1.0  0.24197540475999801  0.7016666749709515  0.7118268875921316  1.0000
  H   H24       1.0  0.7580236271974314  0.29833355199706096  0.2881731588199726  1.0000
  H   H25       1.0  0.198506818983077  0.813055772884198  0.8243532818956252  1.0000
  H   H26       1.0  0.801494599152214  0.18694442415435464  0.17564689362421143  1.0000
  H   H27       1.0  0.9591513265638908  0.06429206057538289  0.4005433141690132  1.0000
  H   H28       1.0  0.0408500862214467  0.9357091041006381  0.5994562620912304  1.0000
  H   H29       1.0  0.8484934706442218  0.9348216918254691  0.41909828972796237  1.0000
  H   H30       1.0  0.1515067177565115  0.0651766289544042  0.5809007142547598  1.0000
  H   H31       1.0  0.8619396099242779  0.7314009081886681  0.5541840414399815  1.0000
  H   H32       1.0  0.13805699920967376  0.26859745748539854  0.445814768881142  1.0000
  C   C1        1.0  0.9551937294136724  0.5864343780046752  0.4119193593553376  1.0000
  C   C2        1.0  0.04480649563269169  0.4135658339986037  0.5880807516106399  1.0000
  C   C3        1.0  0.0360242607043162  0.6960169684835761  0.470792073480517  1.0000
  C   C4        1.0  0.9639711606906474  0.3039804445177481  0.5292072715463332  1.0000
  C   C5        1.0  0.1852005021790006  0.7280893346326209  0.44441547496423783  1.0000
  C   C6        1.0  0.8147985613421086  0.271910862967701  0.5555861084494821  1.0000
  C   C7        1.0  0.25074722695879365  0.6545374283347557  0.3584127251165015  1.0000
  C   C8        1.0  0.7492529980875631  0.34546278366853034  0.641587385849469  1.0000
  C   C9        1.0  0.1701363425228735  0.5467433536054641  0.29866809701347546  1.0000
  C   C10       1.0  0.8298627102983432  0.45325877926980235  0.7013322878810653  1.0000
  C   C11       1.0  0.025080971009486995  0.5125884426863793  0.326267662217404  1.0000
  C   C12       1.0  0.9749192278231362  0.48741083104712146  0.6737315110065436  1.0000
  C   C13       1.0  0.7953648373067067  0.553756358389748  0.4369633336307783  1.0000
  C   C14       1.0  0.20463295956622568  0.44624295995706115  0.5630349419846253  1.0000
  C   C15       1.0  0.6052199743417503  0.1561709141425851  0.8831600992090144  1.0000
  C   C16       1.0  0.39477908382941257  0.8438302510952126  0.11684088494511254  1.0000
  C   C17       1.0  0.5662112421436518  0.041594109947389796  0.8150878512282487  1.0000
  C   C18       1.0  0.4337901390780132  0.9584070840963292  0.18491018803037917  1.0000
  C   C19       1.0  0.42682855377746887  0.9786872203757182  0.8255096765319221  1.0000
  C   C20       1.0  0.5731728485759789  0.0213129913466759  0.17448973048711028  1.0000
  C   C21       1.0  0.3343863941295879  0.033448265178663  0.9068897461850508  1.0000
  C   C22       1.0  0.6656150344375931  0.9665528848135166  0.09311059857600407  1.0000
  C   C23       1.0  0.38189172151112427  0.1482410474424825  0.972974075042522  1.0000
  C   C24       1.0  0.6181084826714454  0.8517572586535491  0.027025697441011652  1.0000
  C   C25       1.0  0.3856748163644426  0.8580225765380333  0.7463951211453618  1.0000
  C   C26       1.0  0.6143266175526846  0.1419776058166775  0.2536058228752864  1.0000
  C   C27       1.0  0.8477580147587958  0.5910914366462093  0.1047479763585386  1.0000
  C   C28       1.0  0.15224337716276176  0.4089078221225649  0.8952512614192683  1.0000
  C   C29       1.0  0.9257323283314349  0.7043130117586357  0.14954614523046664  1.0000
  C   C30       1.0  0.074267854719352  0.2956862766587136  0.8504522594926696  1.0000
  C   C31       1.0  0.8653553727416466  0.7857545682580849  0.23464926116813697  1.0000
  C   C32       1.0  0.1346484107077117  0.21424369294375364  0.7653507049769954  1.0000
  C   C33       1.0  0.727251184542439  0.7488163125891986  0.2721751370447407  1.0000
  C   C34       1.0  0.2727501966792261  0.2511848814545133  0.7278229022138942  1.0000
  C   C35       1.0  0.6550948750403335  0.6343365046103102  0.2230024481178176  1.0000
  C   C36       1.0  0.3449077150520949  0.3656646597848335  0.7769964241954879  1.0000
  C   C37       1.0  0.9475783707281451  0.9112369506459005  0.276674682124245  1.0000
  C   C38       1.0  0.0524230894027156  0.0887641699785817  0.7233271996384258  1.0000
  S   S1        1.0  0.2496306666487484  0.4592800586618822  0.18345312834993874  1.0000
  S   S2        1.0  0.7503707827822197  0.5407229972375447  0.8165475548935602  1.0000
  N   N1        1.0  0.5145243334100301  0.20951856774556177  0.9609664802531198  1.0000
  N   N2        1.0  0.4854735370221519  0.7904816448194938  0.03903503860674111  1.0000
  N   N3        1.0  0.7136460707530929  0.5569312724791118  0.14023457343657236  1.0000
  N   N4        1.0  0.28635295077243944  0.44306800153527354  0.8597653037343134  1.0000
  N   N5        1.0  0.2672367098502093  0.785697829803162  0.7640488334161686  1.0000
  N   N6        1.0  0.7327623274571665  0.21430142952738143  0.23595181225552148  1.0000
  N   N7        1.0  0.9129025740359751  0.9748660609356464  0.37259123849356257  1.0000
  N   N8        1.0  0.08710114093607757  0.0251332266390563  0.6274050543887524  1.0000
  O   O1        1.0  0.7323037590823988  0.6342828274741947  0.5102224875207212  1.0000
  O   O2        1.0  0.26769165696261865  0.3657155531646055  0.4897762582465359  1.0000
  O   O3        1.0  0.7280848463676152  0.4530314097149881  0.385679665273308  1.0000
  O   O4        1.0  0.2719129085097407  0.5469669850458841  0.6143169040992544  1.0000
  O   O5        1.0  0.1316580133591216  0.36329067749912985  0.13210086136659527  1.0000
  O   O6        1.0  0.8683470051747407  0.636708492323919  0.8679008755752374  1.0000
  O   O7        1.0  0.40274745726303246  0.4037056037248874  0.22136569320247185  1.0000
  O   O8        1.0  0.5972563885096848  0.5963012634272715  0.7786342591120102  1.0000
  O   O9        1.0  0.2777106019258042  0.5568903977869154  0.12164798760773005  1.0000
  O   O10       1.0  0.7222860331538783  0.44311179438550136  0.8783507311774625  1.0000
  O   O11       1.0  0.46306101395624916  0.8291881976203258  0.6675769566165284  1.0000
  O   O12       1.0  0.536939184876374  0.17081107611318197  0.33242221660741916  1.0000
  O   O13       1.0  0.03876037697448711  0.9538962338321609  0.2226509242398578  1.0000
  O   O14       1.0  0.9612410304609041  0.046105898481336303  0.7773480527608001  1.0000
  O   O15       1.0  0.9710618537360672  0.771826201466325  0.5524697050796943  1.0000
  O   O16       1.0  0.028933572740847093  0.2281731321260949  0.44752920992878115  1.0000
