data_image0
_chemical_formula_structural       Zn2H16C36N6O24
_chemical_formula_sum              "Zn2 H16 C36 N6 O24"
_cell_length_a       9.781122675784584
_cell_length_b       10.84374939853775
_cell_length_c       19.51874851614855
_cell_angle_alpha    93.436995861059
_cell_angle_beta     83.58373117637339
_cell_angle_gamma    93.74941796690243

_space_group_name_H-M_alt    "P 1"
_space_group_IT_number       1

loop_
  _space_group_symop_operation_xyz
  'x, y, z'

loop_
  _atom_site_type_symbol
  _atom_site_label
  _atom_site_symmetry_multiplicity
  _atom_site_fract_x
  _atom_site_fract_y
  _atom_site_fract_z
  _atom_site_occupancy
  Zn  Zn1       1.0  0.35396338007622324  0.49163645653177923  0.5226700609118993  1.0000
  Zn  Zn2       1.0  0.650624574028285  0.5031088689236897  0.47588317354235704  1.0000
  H   H1        1.0  0.7035801220605578  0.10783227779359089  0.4270216208590797  1.0000
  H   H2        1.0  0.3171560392660879  0.8869447481293098  0.5673439628235217  1.0000
  H   H3        1.0  0.6951585124319594  0.87741388226732  0.4318420232625614  1.0000
  H   H4        1.0  0.32366312043880197  0.11691503250440151  0.5612766355017202  1.0000
  H   H5        1.0  0.7450765274273439  0.5246164566312858  0.8393011594657198  1.0000
  H   H6        1.0  0.2424871950191445  0.4262337059027247  0.16133608430480714  1.0000
  H   H7        1.0  0.6485108834731933  0.6109224684255565  0.15711108849895086  1.0000
  H   H8        1.0  0.3361631906181302  0.3469060734728516  0.8402086204923834  1.0000
  H   H9        1.0  0.30032132706310927  0.48958242042697725  0.928782125949354  1.0000
  H   H10       1.0  0.6857064557284575  0.4569202663614078  0.07058499260471511  1.0000
  H   H11       1.0  0.26040128858608114  0.5224381833625885  0.055163758570010706  1.0000
  H   H12       1.0  0.7255961729620707  0.4234014222615772  0.9440899301882908  1.0000
  H   H13       1.0  0.8430208567749632  0.8797314363338061  0.516363272366398  1.0000
  H   H14       1.0  0.17144647163642188  0.12174141043522015  0.48165319826029673  1.0000
  H   H15       1.0  0.7668310449666009  0.34492496844889337  0.3301679336608033  1.0000
  H   H16       1.0  0.23245940816443073  0.6644107532276281  0.6732239339562087  1.0000
  C   C1        1.0  0.5079062929607332  0.869162429734793  0.501348351829549  1.0000
  C   C2        1.0  0.5120879581694381  0.12553203248820208  0.49265116058258956  1.0000
  C   C3        1.0  0.5152547646142694  0.26279945593409343  0.4896433623979988  1.0000
  C   C4        1.0  0.5056217055631862  0.7322084935337259  0.5057361910759823  1.0000
  C   C5        1.0  0.4331875550979234  0.5174405506420855  0.3727094770061826  1.0000
  C   C6        1.0  0.5485140829662853  0.4678089646824618  0.6283990387714056  1.0000
  C   C7        1.0  0.619028650419466  0.0590067598838928  0.45740513651962533  1.0000
  C   C8        1.0  0.40111131764001584  0.9357603703203454  0.5365788485807174  1.0000
  C   C9        1.0  0.6161838669545149  0.9311964854685189  0.46127904294912986  1.0000
  C   C10       1.0  0.40315382366074465  0.06338327128565881  0.5320985158447016  1.0000
  C   C11       1.0  0.6705079248549382  0.4802629453068833  0.7412898047334553  1.0000
  C   C12       1.0  0.3128464674301484  0.48573672133775164  0.2583959174140062  1.0000
  C   C13       1.0  0.5369331555302992  0.5810445853124052  0.2556512027605677  1.0000
  C   C14       1.0  0.44455304940199625  0.38864465429711  0.7424855471672489  1.0000
  C   C15       1.0  0.6591486790900093  0.4830436906957588  0.8132535603227  1.0000
  C   C16       1.0  0.3272513856361385  0.4725568554224182  0.18641575350653036  1.0000
  C   C17       1.0  0.5538077522188871  0.5716010275690948  0.18421412244157415  1.0000
  C   C18       1.0  0.4307475289579654  0.3878241497194566  0.8137926112575187  1.0000
  C   C19       1.0  0.5369972693892251  0.4399840823161512  0.8509775454558693  1.0000
  C   C20       1.0  0.44946689871748197  0.51288439065754  0.147963957918293  1.0000
  C   C21       1.0  0.9361456470271038  0.6032563699639367  0.5228313914767712  1.0000
  C   C22       1.0  0.06872327563689143  0.3959081521222104  0.4796291090084993  1.0000
  C   C23       1.0  0.9444817941145518  0.42162618954955633  0.4552789112395672  1.0000
  C   C24       1.0  0.06039771978508673  0.5775805294288432  0.5473164127319166  1.0000
  C   C25       1.0  0.5612887191317029  0.43990231429919663  0.702881656581319  1.0000
  C   C26       1.0  0.41957308229662976  0.5341128198102397  0.296526900007116  1.0000
  C   C27       1.0  0.38464431536176863  0.4800164482255483  0.9598774441333904  1.0000
  C   C28       1.0  0.6014352098994707  0.4661151815696982  0.03940300135246841  1.0000
  C   C29       1.0  0.3622018841865255  0.4989622882993459  0.031192499284991005  1.0000
  C   C30       1.0  0.6238516556655186  0.4469784091613818  0.9680640835064906  1.0000
  C   C31       1.0  0.47051665698633377  0.4930230854763666  0.07223490022359871  1.0000
  C   C32       1.0  0.5158710673297547  0.4541836585340917  0.9269525086614367  1.0000
  C   C33       1.0  0.8650860945440326  0.7211455861478698  0.5472756075302387  1.0000
  C   C34       1.0  0.1414346250159255  0.28003281635324834  0.4529285993994067  1.0000
  C   C35       1.0  0.8860605710828082  0.3369741080035098  0.4004557755151198  1.0000
  C   C36       1.0  0.11971890577964217  0.6656781424851915  0.6003768839366687  1.0000
  N   N1        1.0  0.12686458662710012  0.4752652943740189  0.5251191909109707  1.0000
  N   N2        1.0  0.8776231621559561  0.5232596060354808  0.4779135550672181  1.0000
  N   N3        1.0  0.8079019648054384  0.5248462881691367  0.7086386012517067  1.0000
  N   N4        1.0  0.17408675201174623  0.44583651774677685  0.2909216741325694  1.0000
  N   N5        1.0  0.649229042580444  0.652377255929494  0.2883175034883437  1.0000
  N   N6        1.0  0.328013236796899  0.3248101669206421  0.7093424669112522  1.0000
  O   O1        1.0  0.4015630227993512  0.3144574440659582  0.5039511411272175  1.0000
  O   O2        1.0  0.6154838206300398  0.6798883951632676  0.48142325623926047  1.0000
  O   O3        1.0  0.39564368391040733  0.6772763322356213  0.532881498986697  1.0000
  O   O4        1.0  0.632415891184948  0.3185070329428186  0.4735307164611059  1.0000
  O   O5        1.0  0.3326206996342691  0.530379368097499  0.41823441120178023  1.0000
  O   O6        1.0  0.6539808625398181  0.4828761843705679  0.5859789049467993  1.0000
  O   O7        1.0  0.4236406773245633  0.47786755054087143  0.6178833705944984  1.0000
  O   O8        1.0  0.5530585024210664  0.48720710612393264  0.38164983686551324  1.0000
  O   O9        1.0  0.7918363737604469  0.7324438974094748  0.6014035958472377  1.0000
  O   O10       1.0  0.895162608337074  0.8070622101785931  0.5002099161227136  1.0000
  O   O11       1.0  0.21188671350819285  0.2719341882600689  0.39777151766889324  1.0000
  O   O12       1.0  0.11680948588988121  0.19223866664547987  0.4990896524142415  1.0000
  O   O13       1.0  0.9058839507139355  0.22711893904989466  0.392859245232188  1.0000
  O   O14       1.0  0.8141544747894186  0.4015874914712327  0.36192954835082963  1.0000
  O   O15       1.0  0.10458104701718443  0.7765770172891778  0.6034963464901894  1.0000
  O   O16       1.0  0.1864027570873432  0.604376880710632  0.6426221548536475  1.0000
  O   O17       1.0  0.8677375402865197  0.4539846786920733  0.6651051536689182  1.0000
  O   O18       1.0  0.8555141228463798  0.6261742748667276  0.730721885055637  1.0000
  O   O19       1.0  0.119422939223945  0.517270715601306  0.3359802955363663  1.0000
  O   O20       1.0  0.11968238145074388  0.34831123581758316  0.26758434063425807  1.0000
  O   O21       1.0  0.6140353664251065  0.7372977322980321  0.33037695068645695  1.0000
  O   O22       1.0  0.7689905766735238  0.627279065711413  0.2678253479578814  1.0000
  O   O23       1.0  0.35656312984249894  0.23526242457883487  0.66928001367166  1.0000
  O   O24       1.0  0.21129389491876086  0.35920217833599116  0.7285395963598589  1.0000
