data_image0
_chemical_formula_structural       Cd2H32C40S4I4N12
_chemical_formula_sum              "Cd2 H32 C40 S4 I4 N12"
_cell_length_a       6.768743711097502
_cell_length_b       8.857530968894931
_cell_length_c       22.68968079148047
_cell_angle_alpha    79.24132141090574
_cell_angle_beta     81.42757183598718
_cell_angle_gamma    67.53433124188153

_space_group_name_H-M_alt    "P 1"
_space_group_IT_number       1

loop_
  _space_group_symop_operation_xyz
  'x, y, z'

loop_
  _atom_site_type_symbol
  _atom_site_label
  _atom_site_symmetry_multiplicity
  _atom_site_fract_x
  _atom_site_fract_y
  _atom_site_fract_z
  _atom_site_occupancy
  Cd  Cd1       1.0  0.8703470218155824  0.2503066899819189  0.7498954030805792  1.0000
  Cd  Cd2       1.0  0.12965525322277932  0.7496864558566755  0.2501066459268769  1.0000
  H   H1        1.0  0.05729589897666197  0.721661812800285  0.05607151627594218  1.0000
  H   H2        1.0  0.8349719572505166  0.7784645853533121  0.44385634669978896  1.0000
  H   H3        1.0  0.9426984585085021  0.27834367095054097  0.9439274866749726  1.0000
  H   H4        1.0  0.1650251396001039  0.22153719665052313  0.556143356475097  1.0000
  H   H5        1.0  0.0755788634506301  0.7710523122121345  0.9420400115750098  1.0000
  H   H6        1.0  0.788715860981824  0.7290072470578935  0.5578803962439166  1.0000
  H   H7        1.0  0.9244152371055138  0.2289507030643776  0.05795905271154563  1.0000
  H   H8        1.0  0.21128829991283712  0.2709895976379785  0.44211932425538697  1.0000
  H   H9        1.0  0.9898215719111861  0.7105937444308383  0.8510836335672848  1.0000
  H   H10       1.0  0.5510090976263694  0.7897351811708972  0.6489933316500398  1.0000
  H   H11       1.0  0.010181035750598292  0.2894080331577485  0.14891356013149698  1.0000
  H   H12       1.0  0.4489885842704806  0.2102653666361221  0.3510064357175721  1.0000
  H   H13       1.0  0.6182850552824706  0.33487941554377443  0.873042926507189  1.0000
  H   H14       1.0  0.8263303065642232  0.16506102647372964  0.6268328933033089  1.0000
  H   H15       1.0  0.3817125830002224  0.6651223680662925  0.12695772490942397  1.0000
  H   H16       1.0  0.17367262458370167  0.8349358228794516  0.3731695378215605  1.0000
  H   H17       1.0  0.4244964719474847  0.5155906899872849  0.7003186427647492  1.0000
  H   H18       1.0  0.6413889084210351  0.9844518192984851  0.7996411579169447  1.0000
  H   H19       1.0  0.5755131125300322  0.48440862189941924  0.2996803363564595  1.0000
  H   H20       1.0  0.3586050614174852  0.015543794530309204  0.2003604274559549  1.0000
  H   H21       1.0  0.6722471245062843  0.07892167075363689  0.9814869994609979  1.0000
  H   H22       1.0  0.7327976979805301  0.4210246795431446  0.5184087044718666  1.0000
  H   H23       1.0  0.32773961146264  0.9210850491595722  0.018512992885781843  1.0000
  H   H24       1.0  0.267211443702287  0.5789746331063269  0.48159071524530356  1.0000
  H   H25       1.0  0.6875125692831502  0.9087553679111482  0.039935013059071815  1.0000
  H   H26       1.0  0.6360219001871878  0.5912621097106553  0.4600143219714639  1.0000
  H   H27       1.0  0.3124810884782861  0.0912476481281317  0.960064491823445  1.0000
  H   H28       1.0  0.36398581447414796  0.4087372028581342  0.5399850306958883  1.0000
  H   H29       1.0  0.06878899524596696  0.7054849611201421  0.7392441012563182  1.0000
  H   H30       1.0  0.5140085097696526  0.7946506238771321  0.7608160368446873  1.0000
  H   H31       1.0  0.9312180357317742  0.2945155832764641  0.26075379838061247  1.0000
  H   H32       1.0  0.4859818947682866  0.20535115696050357  0.23918289048513935  1.0000
  C   C1        1.0  0.29914026160339074  0.522790644538148  0.8708204131935346  1.0000
  C   C2        1.0  0.692593820217056  0.9773239869238212  0.6291460393174687  1.0000
  C   C3        1.0  0.7008591478581039  0.47721113602083426  0.12917847583925374  1.0000
  C   C4        1.0  0.30741289417738915  0.022671625262148606  0.37085476066611284  1.0000
  C   C5        1.0  0.2690238033459307  0.512158565464425  0.9369778025957559  1.0000
  C   C6        1.0  0.7179102371861391  0.9879524369657132  0.5629653196534435  1.0000
  C   C7        1.0  0.7309742937715882  0.48784691692223  0.06302045326289364  1.0000
  C   C8        1.0  0.28209717693202646  0.012045642931795402  0.4370349783985432  1.0000
  C   C9        1.0  0.3391434144345666  0.3486197573837586  0.027833748484447068  1.0000
  C   C10       1.0  0.7153717394500986  0.15151972101401867  0.4721087992350448  1.0000
  C   C11       1.0  0.660849915209667  0.6513869613266506  0.9721656308696965  1.0000
  C   C12       1.0  0.28462992296800826  0.848479594363788  0.5278921146666703  1.0000
  C   C13       1.0  0.14185269755390817  0.6208849362316187  0.029427709470318975  1.0000
  C   C14       1.0  0.792001377808674  0.8792688634068782  0.47049877844138877  1.0000
  C   C15       1.0  0.8581435297474371  0.3791205468371217  0.9705709199344598  1.0000
  C   C16       1.0  0.2079996009258307  0.12073168379874492  0.5295006824299123  1.0000
  C   C17       1.0  0.15190979500418672  0.6486272568788608  0.9666537944320339  1.0000
  C   C18       1.0  0.7670219178515224  0.8514853372527966  0.5332783091032453  1.0000
  C   C19       1.0  0.8480837205057272  0.35137699259446004  0.03334520566178865  1.0000
  C   C20       1.0  0.2329826422236892  0.1485127424833408  0.46672185484910494  1.0000
  C   C21       1.0  0.14391143701145379  0.6299049995829337  0.8325094605682962  1.0000
  C   C22       1.0  0.6061500826493642  0.8703290123564429  0.6675167155353918  1.0000
  C   C23       1.0  0.8560878301985183  0.3700980144100896  0.16748892367580476  1.0000
  C   C24       1.0  0.39384921213464713  0.12966906629418426  0.33248273962171737  1.0000
  C   C25       1.0  0.49279933974739965  0.41963141516628605  0.8448685518728993  1.0000
  C   C26       1.0  0.7574165882915194  0.08039516544266691  0.6550490119839195  1.0000
  C   C27       1.0  0.5072003978313049  0.5803666627215732  0.15513046268825548  1.0000
  C   C28       1.0  0.24258809799508918  0.9195979813200739  0.3449536117191343  1.0000
  C   C29       1.0  0.3842574368654325  0.521292314351136  0.7484447246426456  1.0000
  C   C30       1.0  0.6546346591050346  0.9787952871340408  0.7515258401265542  1.0000
  C   C31       1.0  0.6157451111420683  0.47870699950112794  0.2515553080671538  1.0000
  C   C32       1.0  0.34536132280119597  0.0211990925786267  0.24847587648889657  1.0000
  C   C33       1.0  0.5784589975704009  0.020612102293718203  0.014910888793920662  1.0000
  C   C34       1.0  0.6139133224137866  0.47936983357347174  0.4850368968834857  1.0000
  C   C35       1.0  0.4215317625339307  0.9793921493872306  0.9850893660379612  1.0000
  C   C36       1.0  0.38609479142809994  0.5206307140355831  0.5149628992369131  1.0000
  C   C37       1.0  0.18701930284239396  0.627390041413243  0.7705257684507671  1.0000
  C   C38       1.0  0.585188619930449  0.8728175273847613  0.7295012867029625  1.0000
  C   C39       1.0  0.8129852732729362  0.37261173786225754  0.22947244053957405  1.0000
  C   C40       1.0  0.4148056504512495  0.1271793191153066  0.27049935328529534  1.0000
  S   S1        1.0  0.4477032574851022  0.15564599908701376  0.07154759555673708  1.0000
  S   S2        1.0  0.6743659170049909  0.3444634891542578  0.4283940561938664  1.0000
  S   S3        1.0  0.552291783683664  0.8443582528359956  0.9284528604245992  1.0000
  S   S4        1.0  0.32563560316157947  0.655537059657597  0.5716063529191615  1.0000
  I   I1        1.0  0.07535165481249348  0.07351328378896939  0.8490350214644664  1.0000
  I   I2        1.0  0.9975983038947901  0.42729006976788503  0.6508284095297654  1.0000
  I   I3        1.0  0.9246443545429128  0.926487269438141  0.15096789712465852  1.0000
  I   I4        1.0  0.002408438073679421  0.5727006070756887  0.3491734613668385  1.0000
  N   N1        1.0  0.364745059600878  0.36130804024429614  0.9678122943983284  1.0000
  N   N2        1.0  0.6934617244013808  0.13881570710443475  0.5321330304872517  1.0000
  N   N3        1.0  0.635253721200243  0.6386962103145422  0.032187414490735436  1.0000
  N   N4        1.0  0.30654253513065305  0.8611811399604364  0.46786807884974724  1.0000
  N   N5        1.0  0.23384110397395125  0.47189697139750564  0.06094088221769307  1.0000
  N   N6        1.0  0.7664981497007733  0.028237602450630603  0.4389922083178491  1.0000
  N   N7        1.0  0.7661547791700584  0.5281085148030017  0.9390595766207355  1.0000
  N   N8        1.0  0.23350011724230046  0.9717617111595801  0.5610076232424888  1.0000
  N   N9        1.0  0.5351379598233447  0.4203790755455117  0.7852673764555435  1.0000
  N   N10       1.0  0.7412094354715605  0.07971352360667791  0.7146417668602538  1.0000
  N   N11       1.0  0.4648654301594135  0.5796214725842574  0.21473265911134828  1.0000
  N   N12       1.0  0.2587899855238476  0.9202796220705524  0.28536014804756593  1.0000
