data_image0
_chemical_formula_structural       Tl4H48C36S4N4O8
_chemical_formula_sum              "Tl4 H48 C36 S4 N4 O8"
_cell_length_a       7.785083814464476
_cell_length_b       7.785299251927708
_cell_length_c       21.062526094867327
_cell_angle_alpha    80.4020084956524
_cell_angle_beta     80.40344275110971
_cell_angle_gamma    63.55236461438851

_space_group_name_H-M_alt    "P 1"
_space_group_IT_number       1

loop_
  _space_group_symop_operation_xyz
  'x, y, z'

loop_
  _atom_site_type_symbol
  _atom_site_label
  _atom_site_symmetry_multiplicity
  _atom_site_fract_x
  _atom_site_fract_y
  _atom_site_fract_z
  _atom_site_occupancy
  Tl  Tl1       1.0  0.1377921523459591  0.33293203439168206  0.3131664466935788  1.0000
  Tl  Tl2       1.0  0.6670494367676343  0.8622199325991672  0.18680984978050225  1.0000
  Tl  Tl3       1.0  0.8622136204896054  0.6670599441809487  0.686831266641896  1.0000
  Tl  Tl4       1.0  0.332952433831487  0.1377748716951999  0.8131784354601735  1.0000
  H   H1        1.0  0.10432652343128986  0.2702627039511185  0.011629647318294202  1.0000
  H   H2        1.0  0.7297003108471358  0.8956303171311576  0.48835903048810536  1.0000
  H   H3        1.0  0.8956869792999743  0.7297235494999086  0.9883741124490655  1.0000
  H   H4        1.0  0.2702551329274172  0.1043846405261135  0.5116356502956165  1.0000
  H   H5        1.0  0.798359788925552  0.3415224697171412  0.08885038863125062  1.0000
  H   H6        1.0  0.6584596424790804  0.20157798967657206  0.4111331974052844  1.0000
  H   H7        1.0  0.2016289144647559  0.6584304839435688  0.9111484692267311  1.0000
  H   H8        1.0  0.3415205853920259  0.7984067069558732  0.5888637261756244  1.0000
  H   H9        1.0  0.8119514221827373  0.36634883311273825  0.20447192288377647  1.0000
  H   H10       1.0  0.6336951735955766  0.18796876002978286  0.29550977210521984  1.0000
  H   H11       1.0  0.18804044344362594  0.6336301483293524  0.7955312761872834  1.0000
  H   H12       1.0  0.36633277993825425  0.8119929527163807  0.7044903476122428  1.0000
  H   H13       1.0  0.7357443753395645  0.2782316538130303  0.9734067032043967  1.0000
  H   H14       1.0  0.7217922341979491  0.2642650436830323  0.5266147647280945  1.0000
  H   H15       1.0  0.26427554796936215  0.7217792224169627  0.026606978901973787  1.0000
  H   H16       1.0  0.2782400455360162  0.7357444307061415  0.4734015537800644  1.0000
  H   H17       1.0  0.5852321060236394  0.4037542807444936  0.908932411351401  1.0000
  H   H18       1.0  0.5962718511520892  0.4147964260561993  0.5910709920340268  1.0000
  H   H19       1.0  0.4148200250532597  0.5962421743418747  0.09107255879034432  1.0000
  H   H20       1.0  0.40373512441608034  0.5852201547768702  0.4089350730681858  1.0000
  H   H21       1.0  0.6616238062673077  0.1474408380768253  0.9299656512296437  1.0000
  H   H22       1.0  0.8525512772615756  0.33838251424336363  0.5700402767042477  1.0000
  H   H23       1.0  0.33840900125365203  0.852564270787248  0.0700447358650607  1.0000
  H   H24       1.0  0.1474178577825782  0.6616310767197292  0.42996265191451505  1.0000
  H   H25       1.0  0.07717127081993895  0.6942292297395197  0.33125499300567907  1.0000
  H   H26       1.0  0.30574763463027926  0.922850397424135  0.16873764084665047  1.0000
  H   H27       1.0  0.9228287701941585  0.3057671074837742  0.6687494533483118  1.0000
  H   H28       1.0  0.6942499053816534  0.07715169635456931  0.8312642273896246  1.0000
  H   H29       1.0  0.15499988942094242  0.6502930762047684  0.2479659017248039  1.0000
  H   H30       1.0  0.3497131806764602  0.8449812768563305  0.2520281049237454  1.0000
  H   H31       1.0  0.8449991266002145  0.3497176824764595  0.7520353304313261  1.0000
  H   H32       1.0  0.6502948531289481  0.15502374546000647  0.7479767196945062  1.0000
  H   H33       1.0  0.3286475038914388  0.5543568023767095  0.3055881739528914  1.0000
  H   H34       1.0  0.44562701538499294  0.6713655002459333  0.1944105374614651  1.0000
  H   H35       1.0  0.6713410902501951  0.44565392891155403  0.6944122892360339  1.0000
  H   H36       1.0  0.5543688335433361  0.3286495836841041  0.8055906220317866  1.0000
  H   H37       1.0  0.3042128503035999  0.9487191532211554  0.3530268338080306  1.0000
  H   H38       1.0  0.051293296164424025  0.6958195717100536  0.1469655899843829  1.0000
  H   H39       1.0  0.6958151897211169  0.05127866299697811  0.6469729150152332  1.0000
  H   H40       1.0  0.9487065214889374  0.30419841238062867  0.8530360882400316  1.0000
  H   H41       1.0  0.08426424520305893  0.007419104334353201  0.3197178835430279  1.0000
  H   H42       1.0  0.9925776743034048  0.9157628690597195  0.18027606129003715  1.0000
  H   H43       1.0  0.9157668207498235  0.9925657568790954  0.6802881854565044  1.0000
  H   H44       1.0  0.00742455044010631  0.0842492656956892  0.8197120642460902  1.0000
  H   H45       1.0  0.07425861351948983  0.06862383736356752  0.3993602020269194  1.0000
  H   H46       1.0  0.9313792636245356  0.9257555025266415  0.1006285437895116  1.0000
  H   H47       1.0  0.9257434976805431  0.9313796949241678  0.6006389153773027  1.0000
  H   H48       1.0  0.0686066338742535  0.07428548966797881  0.8993611695993521  1.0000
  C   C1        1.0  0.26305579148515085  0.28468991450900916  0.152129592854358  1.0000
  C   C2        1.0  0.7153147791983588  0.7368772947250977  0.3478525896022902  1.0000
  C   C3        1.0  0.7369339771004351  0.7153150332636501  0.8478692603254386  1.0000
  C   C4        1.0  0.2847097396880117  0.26311034647617493  0.6521370983551834  1.0000
  C   C5        1.0  0.2674737075647614  0.2617590596371926  0.08608052702192741  1.0000
  C   C6        1.0  0.738225428866464  0.7324658523212121  0.4139026684175278  1.0000
  C   C7        1.0  0.7325337425438153  0.7382199151400001  0.9139155228792148  1.0000
  C   C8        1.0  0.2617980337784474  0.2675001614424062  0.5860936649456931  1.0000
  C   C9        1.0  0.10007673235964631  0.2863935774809789  0.0624084447734958  1.0000
  C   C10       1.0  0.7136177025922804  0.8998469079103302  0.4375734778793543  1.0000
  C   C11       1.0  0.8998876433757419  0.7136098988272864  0.9375954167877011  1.0000
  C   C12       1.0  0.28636364504901485  0.10015947892260608  0.5624277123116457  1.0000
  C   C13       1.0  0.9314021387772086  0.325491453873866  0.10463622368924773  1.0000
  C   C14       1.0  0.6745144270114241  0.0685176475248781  0.39534023103263394  1.0000
  C   C15       1.0  0.06857619598015671  0.6744947129246556  0.8953659489891591  1.0000
  C   C16       1.0  0.3254697723468354  0.9314699519970305  0.6046576857149121  1.0000
  C   C17       1.0  0.9388308443762984  0.3387156098967523  0.1691324864199544  1.0000
  C   C18       1.0  0.6613153935101723  0.061076425545422794  0.3308469437958976  1.0000
  C   C19       1.0  0.06117669974317856  0.6612662878556608  0.8308695463797234  1.0000
  C   C20       1.0  0.3386792574434452  0.9388808728986152  0.6691517432878769  1.0000
  C   C21       1.0  0.45279334687773365  0.20131894152132188  0.04312190287943451  1.0000
  C   C22       1.0  0.798657159986654  0.5471757801317595  0.45686939921196057  1.0000
  C   C23       1.0  0.547216066065012  0.7986889897981301  0.9568859762321298  1.0000
  C   C24       1.0  0.2013322219765926  0.4528421629218685  0.5431291378678935  1.0000
  C   C25       1.0  0.619896427668856  0.28584083984114983  0.9481410443986819  1.0000
  C   C26       1.0  0.7141593932599835  0.38013116742474296  0.5518629898015561  1.0000
  C   C27       1.0  0.3801292966133686  0.7141685761540232  0.05186761766847069  1.0000
  C   C28       1.0  0.2858196884558242  0.6198896984993424  0.44814550556433363  1.0000
  C   C29       1.0  0.179835862978564  0.5920753547632316  0.2980805693835791  1.0000
  C   C30       1.0  0.40790626946743935  0.8201749736367034  0.20191025862727943  1.0000
  C   C31       1.0  0.8201544803500342  0.40792527387426253  0.701920417785779  1.0000
  C   C32       1.0  0.5920894770647679  0.1798343489362964  0.798093642568496  1.0000
  C   C33       1.0  0.15288138618500116  0.05174749360489982  0.3509152611522808  1.0000
  C   C34       1.0  0.9482551706217355  0.8471443173799219  0.1490752143691907  1.0000
  C   C35       1.0  0.8471433345337546  0.9482460071909105  0.6490887647796273  1.0000
  C   C36       1.0  0.05173680379020601  0.15287644975541076  0.8509111134765064  1.0000
  S   S1        1.0  0.4611231062463761  0.2727023617268287  0.18338844171962174  1.0000
  S   S2        1.0  0.7272875891328145  0.538823300588561  0.3165883487476009  1.0000
  S   S3        1.0  0.5388787864496934  0.7272924643980903  0.8166036390048179  1.0000
  S   S4        1.0  0.27270425449547997  0.4611584892183345  0.6834009069322278  1.0000
  N   N1        1.0  0.09753762466912264  0.3207984750611176  0.1921145368261605  1.0000
  N   N2        1.0  0.6791982176103705  0.9024046137185666  0.3078579083173524  1.0000
  N   N3        1.0  0.9024659100598814  0.6792136702815627  0.8078749302239744  1.0000
  N   N4        1.0  0.32079502725220277  0.0975801069220026  0.6921381973395597  1.0000
  O   O1        1.0  0.5955756506030668  0.04785713172805119  0.05203996816692322  1.0000
  O   O2        1.0  0.952125182521016  0.404396010691876  0.447948156434073  1.0000
  O   O3        1.0  0.4043983122342212  0.9521391138178714  0.9479585230675482  1.0000
  O   O4        1.0  0.047841225496988306  0.5956478111605604  0.5520388035944493  1.0000
  O   O5        1.0  0.4442560466322407  0.3333435140263178  0.9921354314037103  1.0000
  O   O6        1.0  0.6666491151628692  0.5557256671851292  0.5078626479120345  1.0000
  O   O7        1.0  0.5557604745071814  0.6666629649167606  0.007868294747183304  1.0000
  O   O8        1.0  0.3333213188183137  0.44428792344995577  0.4921397244788538  1.0000
