data_image0
_chemical_formula_structural       Al2H10C16O10
_chemical_formula_sum              "Al2 H10 C16 O10"
_cell_length_a       6.695146227913116
_cell_length_b       11.14015153181322
_cell_length_c       11.136521068367957
_cell_angle_alpha    73.91867289331981
_cell_angle_beta     72.51613717863779
_cell_angle_gamma    72.5126242202217

_space_group_name_H-M_alt    "P 1"
_space_group_IT_number       1

loop_
  _space_group_symop_operation_xyz
  'x, y, z'

loop_
  _atom_site_type_symbol
  _atom_site_label
  _atom_site_symmetry_multiplicity
  _atom_site_fract_x
  _atom_site_fract_y
  _atom_site_fract_z
  _atom_site_occupancy
  Al  Al1       1.0  0.9966840458567032  0.00048811307571129626  0.9986249800668648  1.0000
  Al  Al2       1.0  0.4966205632209721  0.0006325551628307963  0.998551839324712  1.0000
  H   H1        1.0  0.7373860965734235  0.9965049843519154  0.38061701314031654  1.0000
  H   H2        1.0  0.6160562336637198  0.0030423672401979998  0.6166753679293819  1.0000
  H   H3        1.0  0.7563559179500954  0.6183145476596861  0.0026214599515555887  1.0000
  H   H4        1.0  0.8766837944599499  0.3818258360208873  0.9984217633694218  1.0000
  H   H5        1.0  0.2566580461011227  0.003058268312393897  0.6167179898711553  1.0000
  H   H6        1.0  0.37800745316573636  0.9965927729956475  0.380665661594584  1.0000
  H   H7        1.0  0.23602559800180956  0.3818883970342526  0.9983436581156514  1.0000
  H   H8        1.0  0.11574598466632582  0.6183854570852532  0.002568350438259891  1.0000
  H   H9        1.0  0.2462573411680182  0.1332167897743801  0.8661872895153949  1.0000
  H   H10       1.0  0.7479797487593486  0.8665765962406409  0.12948092357581958  1.0000
  C   C1        1.0  0.8491664030047941  0.9978186344038562  0.4336795200977194  1.0000
  C   C2        1.0  0.7821689912757888  0.0017856996591660988  0.5636507411719336  1.0000
  C   C3        1.0  0.6442928695582352  0.5652197126641383  0.0018385834150934622  1.0000
  C   C4        1.0  0.7107200815100612  0.4349583371044616  0.9991961172968189  1.0000
  C   C5        1.0  0.1447878949515484  0.0018314005576768983  0.5637014889334111  1.0000
  C   C6        1.0  0.21186799865638037  0.9978380227895657  0.4336819821231472  1.0000
  C   C7        1.0  0.3480207285182786  0.4350118498902802  0.9991410111768463  1.0000
  C   C8        1.0  0.2816333569179718  0.5652598549170094  0.001778071864030972  1.0000
  C   C9        1.0  0.06429227590833625  0.9959591454276334  0.3679972585864277  1.0000
  C   C10       1.0  0.9295470680562088  0.003980035258813095  0.6293524282658683  1.0000
  C   C11       1.0  0.1360468856357071  0.9922785861095206  0.2281861569883931  1.0000
  C   C12       1.0  0.8575491442031262  0.008447243407587695  0.7690027868305764  1.0000
  C   C13       1.0  0.42943571516105566  0.6311174444079695  0.00298539654724549  1.0000
  C   C14       1.0  0.5630479662122098  0.36925319097138487  0.9974944950520457  1.0000
  C   C15       1.0  0.35808110329230664  0.7711772070271932  0.005455683122463067  1.0000
  C   C16       1.0  0.6349090628011139  0.22960943281260882  0.9932118025529776  1.0000
  O   O1        1.0  0.9947721171513205  0.9902824568503019  0.17397616580841216  1.0000
  O   O2        1.0  0.659957383315813  0.010666895063280894  0.8231721464085954  1.0000
  O   O3        1.0  0.49947675755500837  0.8255432962285096  0.006963962169706499  1.0000
  O   O4        1.0  0.8324461755177237  0.17540162696906234  0.9908791390456247  1.0000
  O   O5        1.0  0.9987590252795968  0.010541467742136499  0.8232463332507863  1.0000
  O   O6        1.0  0.33343636776126573  0.9904639504838145  0.17392089132223995  1.0000
  O   O7        1.0  0.49367230968073966  0.17557449801504527  0.9908510419352156  1.0000
  O   O8        1.0  0.16077999788191727  0.8254045784905201  0.0069162390677134965  1.0000
  O   O9        1.0  0.2463153627208712  0.061148843526936496  0.9385799125450306  1.0000
  O   O10       1.0  0.7469539901590776  0.9399646254811599  0.05843870302103946  1.0000
