data_image0
_chemical_formula_structural       Cd2H16C20N16
_chemical_formula_sum              "Cd2 H16 C20 N16"
_cell_length_a       6.63141935899772
_cell_length_b       9.473201190728892
_cell_length_c       11.095932428419545
_cell_angle_alpha    115.26478646046839
_cell_angle_beta     106.06639578184125
_cell_angle_gamma    90.01751592527435

_space_group_name_H-M_alt    "P 1"
_space_group_IT_number       1

loop_
  _space_group_symop_operation_xyz
  'x, y, z'

loop_
  _atom_site_type_symbol
  _atom_site_label
  _atom_site_symmetry_multiplicity
  _atom_site_fract_x
  _atom_site_fract_y
  _atom_site_fract_z
  _atom_site_occupancy
  Cd  Cd1       1.0  0.2500339412821759  0.09395310168708453  0.9999746336481579  1.0000
  Cd  Cd2       1.0  0.7499626497132895  0.9060472550093478  2.6006148289062092e-05  1.0000
  H   H1        1.0  0.19071521907905978  0.5979168573508247  0.8935174143687519  1.0000
  H   H2        1.0  0.3089136049523873  0.7044612334651816  0.10639460377355899  1.0000
  H   H3        1.0  0.809284500705118  0.40208349853018194  0.10648193467319793  1.0000
  H   H4        1.0  0.6910892603680452  0.2955391347343976  0.8936061657319883  1.0000
  H   H5        1.0  0.011414022322213708  0.45510397816791953  0.6377698723834441  1.0000
  H   H6        1.0  0.4882726034822298  0.8172774198651782  0.3621154263543788  1.0000
  H   H7        1.0  0.988590407392586  0.5448963896239436  0.3622302517448475  1.0000
  H   H8        1.0  0.5117318262325695  0.1827229479266848  0.6378846977739129  1.0000
  H   H9        1.0  0.9033278722800446  0.1628294608801681  0.5280244467306545  1.0000
  H   H10       1.0  0.5966428826640211  0.6347246247721542  0.4717589154068305  1.0000
  H   H11       1.0  0.0966749818753598  0.8371708985634074  0.47197451529615364  1.0000
  H   H12       1.0  0.4033599826564185  0.3652757434274181  0.5282418540987166  1.0000
  H   H13       1.0  0.9862516501074127  0.025566288728875005  0.6823306465606436  1.0000
  H   H14       1.0  0.5138456288302393  0.3431794035540534  0.317383024779339  1.0000
  H   H15       1.0  0.013746505282405532  0.9744340675598482  0.3176693478585548  1.0000
  H   H16       1.0  0.48614939218834513  0.6568209491720935  0.682617356654994  1.0000
  C   C1        1.0  0.1922172136520572  0.38598222007973965  0.9235140237957822  1.0000
  C   C2        1.0  0.3075104267318948  0.4624247946110316  0.07627941716549458  1.0000
  C   C3        1.0  0.8077825117146419  0.6140181401792618  0.07648622898553728  1.0000
  C   C4        1.0  0.6924892986347969  0.5375755656479699  0.9237208356158249  1.0000
  C   C5        1.0  0.14545029566769327  0.47093349221484704  0.8444780615483508  1.0000
  C   C6        1.0  0.3542512673144175  0.6264477217797407  0.1553508113698783  1.0000
  C   C7        1.0  0.8545509996758723  0.5290668720144467  0.1555224495950824  1.0000
  C   C8        1.0  0.6457518085587067  0.3735538246604336  0.8446504189536909  1.0000
  C   C9        1.0  0.04456524249124529  0.39096836263559004  0.7009380785929338  1.0000
  C   C10       1.0  0.4552372249597879  0.6900021232367594  0.2988846275312511  1.0000
  C   C11       1.0  0.9554376116641663  0.6090319968079855  0.29906088343388143  1.0000
  C   C12       1.0  0.5447658453308151  0.30999941882541293  0.7011156990529486  1.0000
  C   C13       1.0  0.9871316712111523  0.22829077245565801  0.639292629942112  1.0000
  C   C14       1.0  0.5128565499187658  0.5890072388870636  0.3605030500748256  1.0000
  C   C15       1.0  0.012871188526773407  0.7717095913659193  0.36070723582406566  1.0000
  C   C16       1.0  0.4871447398422859  0.41099312096422846  0.6394965573292382  1.0000
  C   C17       1.0  0.0330126744986785  0.1519813385384907  0.7245219662881865  1.0000
  C   C18       1.0  0.4670180066545768  0.4274648767182043  0.2752597974683936  1.0000
  C   C19       1.0  0.9669886152623732  0.8480190213128014  0.2754776411158772  1.0000
  C   C20       1.0  0.5329785843408886  0.5725354799782281  0.7247408423280532  1.0000
  N   N1        1.0  0.9901665375574709  0.8782501713238061  0.8636603024049874  1.0000
  N   N2        1.0  0.5097937524008174  0.014632506801618204  0.1363664185990814  1.0000
  N   N3        1.0  0.009830269573193093  0.12175136799121589  0.13634170194885087  1.0000
  N   N4        1.0  0.4902028218470988  0.9853678367608226  0.8636315099792711  1.0000
  N   N5        1.0  0.9812153010228428  0.7862247521713358  0.7459094578684214  1.0000
  N   N6        1.0  0.5187228752380973  0.04037017614793831  0.25412484466862395  1.0000
  N   N7        1.0  0.018782211543900498  0.21377206063960594  0.254087346617986  1.0000
  N   N8        1.0  0.48127551303446836  0.9596313758933661  0.7458792255260603  1.0000
  N   N9        1.0  0.9729721924799577  0.6970983440970286  0.6320110440058427  1.0000
  N   N10       1.0  0.526948388479056  0.06515214991856061  0.3680228119325761  1.0000
  N   N11       1.0  0.027024836368418886  0.30290438221458515  0.36799322864474243  1.0000
  N   N12       1.0  0.4730513201400938  0.9348481972064493  0.6319747296306417  1.0000
  N   N13       1.0  0.13386495974073404  0.22856622664762943  0.8624272337355592  1.0000
  N   N14       1.0  0.3660695698570109  0.3661280177047531  0.1373625183415896  1.0000
  N   N15       1.0  0.8661347600434438  0.7714341292333771  0.13757211530639052  1.0000
  N   N16       1.0  0.6339270155559404  0.6338723346136774  0.8626372177154948  1.0000
