data_image0
_chemical_formula_structural       Cu2H16C8N8O16
_chemical_formula_sum              "Cu2 H16 C8 N8 O16"
_cell_length_a       7.4829802849123395
_cell_length_b       8.30741141350969
_cell_length_c       8.30741686665969
_cell_angle_alpha    87.70091088992551
_cell_angle_beta     73.78553898713577
_cell_angle_gamma    73.78499934488786

_space_group_name_H-M_alt    "P 1"
_space_group_IT_number       1

loop_
  _space_group_symop_operation_xyz
  'x, y, z'

loop_
  _atom_site_type_symbol
  _atom_site_label
  _atom_site_symmetry_multiplicity
  _atom_site_fract_x
  _atom_site_fract_y
  _atom_site_fract_z
  _atom_site_occupancy
  Cu  Cu1       1.0  0.5000007464303593  6.431428687001851e-07  0.4999983001096025  1.0000
  Cu  Cu2       1.0  1.0854590613021954e-06  0.4999978911590403  1.5353070849847254e-06  1.0000
  H   H1        1.0  0.2500064344910981  0.6212031936683219  0.37878877605579925  1.0000
  H   H2        1.0  0.7499930918057273  0.37879389255507323  0.6212167775952295  1.0000
  H   H3        1.0  0.2499981635865537  0.19827522138503884  0.8017220717686014  1.0000
  H   H4        1.0  0.7500088108008214  0.8017243511261183  0.1982730030876211  1.0000
  H   H5        1.0  0.46942810968552356  0.32550598712465006  0.31168492759469046  1.0000
  H   H6        1.0  0.03055965418104019  0.6883237917296865  0.6745040486004114  1.0000
  H   H7        1.0  0.5305716717355367  0.6744986106023845  0.6883165598733427  1.0000
  H   H8        1.0  0.9694312638662836  0.3116782594536571  0.3255034708800507  1.0000
  H   H9        1.0  0.509953130630002  0.9096453759488269  0.8029971331635436  1.0000
  H   H10       1.0  0.9900425082026912  0.197005752017283  0.09035689305326856  1.0000
  H   H11       1.0  0.4900455349284485  0.09035416980542268  0.1970037000889703  1.0000
  H   H12       1.0  0.00995753877409555  0.8029937919968473  0.9096423797426283  1.0000
  H   H13       1.0  0.6933268559532239  0.982512400931334  0.7316782480673679  1.0000
  H   H14       1.0  0.806667788604116  0.268318889204444  0.017492240094604483  1.0000
  H   H15       1.0  0.306670955639838  0.0174896167529823  0.2683190662344258  1.0000
  H   H16       1.0  0.19333322974073028  0.7316819200326207  0.9825067163888193  1.0000
  C   C1        1.0  0.2499831847686664  0.5267244117265832  0.4732914423950021  1.0000
  C   C2        1.0  0.7500078710002356  0.47328141380739897  0.5267158461656577  1.0000
  C   C3        1.0  0.24999622633106358  0.292420235682222  0.7075850748669269  1.0000
  C   C4        1.0  0.7500083817239726  0.7075780485476952  0.29240947386278987  1.0000
  C   C5        1.0  0.3698904612355917  0.3640633269257662  0.43584000533842726  1.0000
  C   C6        1.0  0.13011955970709005  0.5641402858556432  0.6359319395750943  1.0000
  C   C7        1.0  0.6301191585857853  0.6359325049521444  0.5641557838677611  1.0000
  C   C8        1.0  0.869877704114124  0.43585922444109565  0.364066849790639  1.0000
  N   N1        1.0  0.365651800704363  0.2467062256094151  0.5523667122810351  1.0000
  N   N2        1.0  0.13434409947596038  0.4476455952360324  0.7532948278820583  1.0000
  N   N3        1.0  0.6343497925042171  0.7532971406120764  0.44763557492964157  1.0000
  N   N4        1.0  0.865655127400281  0.5523564827042192  0.24670693320211254  1.0000
  N   N5        1.0  0.0416078150984305  0.0048191139017391025  0.685607782317085  1.0000
  N   N6        1.0  0.4583830980981034  0.3143952019033804  0.995180865798389  1.0000
  N   N7        1.0  0.9583913982318749  0.995182939240088  0.3143915758714895  1.0000
  N   N8        1.0  0.5416201556304757  0.6856031336634982  0.004820049179137754  1.0000
  O   O1        1.0  0.5589987894872691  0.9927476435949102  0.7252061686248581  1.0000
  O   O2        1.0  0.9409993595213493  0.27478646043417854  0.007247948499290984  1.0000
  O   O3        1.0  0.4410028976906162  0.007246832566977401  0.2747881275944906  1.0000
  O   O4        1.0  0.05900427039265571  0.7252105461735849  0.9927457150951042  1.0000
  O   O5        1.0  0.21657538155065476  0.9267799006356084  0.6745460247029982  1.0000
  O   O6        1.0  0.2834180122673402  0.3254595988897789  0.07321350358573395  1.0000
  O   O7        1.0  0.7834242824677418  0.07322095993842477  0.3254592980282352  1.0000
  O   O8        1.0  0.7165856176466646  0.6745374077179846  0.926780160008661  1.0000
  O   O9        1.0  0.909411774661187  0.9427335204728563  0.7791334402499216  1.0000
  O   O10       1.0  0.5905849252517186  0.2208699284105862  0.05726469773014734  1.0000
  O   O11       1.0  0.0905878622653233  0.05726729050432769  0.22086707669011932  1.0000
  O   O12       1.0  0.4094175219222577  0.7791309658808387  0.9427411084312424  1.0000
  O   O13       1.0  0.9953173839629129  0.13591428631011837  0.6108017854308511  1.0000
  O   O14       1.0  0.5046620407069041  0.3892077275038516  0.8640897948762073  1.0000
  O   O15       1.0  0.004678922036177378  0.8640839835621036  0.3891997231429514  1.0000
  O   O16       1.0  0.4953362012553412  0.6107930604150338  0.13590987962484036  1.0000
