data_image0
_chemical_formula_structural       Cd2H12C12N16O8
_chemical_formula_sum              "Cd2 H12 C12 N16 O8"
_cell_length_a       8.612813928586322
_cell_length_b       8.61281810639319
_cell_length_c       9.557761755068691
_cell_angle_alpha    66.07518107084995
_cell_angle_beta     66.07492992156317
_cell_angle_gamma    61.84871073427504

_space_group_name_H-M_alt    "P 1"
_space_group_IT_number       1

loop_
  _space_group_symop_operation_xyz
  'x, y, z'

loop_
  _atom_site_type_symbol
  _atom_site_label
  _atom_site_symmetry_multiplicity
  _atom_site_fract_x
  _atom_site_fract_y
  _atom_site_fract_z
  _atom_site_occupancy
  Cd  Cd1       1.0  0.5354789446501371  0.4645207991087901  0.7499999248708351  1.0000
  Cd  Cd2       1.0  0.46451425391455803  0.5354851886068488  0.2500002778453735  1.0000
  H   H1        1.0  0.49430217054853653  0.1315658814673881  0.645422918198534  1.0000
  H   H2        1.0  0.8684355009604516  0.5056988146647398  0.8545753733607315  1.0000
  H   H3        1.0  0.505699388056243  0.8684346331397845  0.3545783163892226  1.0000
  H   H4        1.0  0.1315657752321543  0.4942989597207656  0.14542174037568162  1.0000
  H   H5        1.0  0.3143386718473593  0.919577941775934  0.7041019177929897  1.0000
  H   H6        1.0  0.0804201743107811  0.685661819103089  0.7958994142360041  1.0000
  H   H7        1.0  0.6856648951973271  0.08041711783073417  0.2959047681602415  1.0000
  H   H8        1.0  0.9195841397823304  0.3143345794303655  0.20409499630741126  1.0000
  H   H9        1.0  0.09211918868716414  0.9752757119398009  0.8382309613224947  1.0000
  H   H10       1.0  0.024723406559139984  0.9078807411216873  0.6617706848461111  1.0000
  H   H11       1.0  0.9078803274197114  0.0247234421851061  0.16177152352863555  1.0000
  H   H12       1.0  0.9752773741364962  0.09211840363948909  0.3382282000082031  1.0000
  C   C1        1.0  0.3851079303068303  0.1677567793074743  0.7486687057670451  1.0000
  C   C2        1.0  0.8322426178313121  0.6148902808319292  0.7513326298125876  1.0000
  C   C3        1.0  0.6148953949966868  0.8322423621858376  0.25133029166526205  1.0000
  C   C4        1.0  0.1677578936781643  0.38510613695866885  0.24866840210891902  1.0000
  C   C5        1.0  0.30188861597942923  0.7664634547177869  0.9513055419138112  1.0000
  C   C6        1.0  0.23353441181858878  0.6981115906819112  0.5486936526446158  1.0000
  C   C7        1.0  0.6981142941761931  0.2335439190127673  0.04871046272242563  1.0000
  C   C8        1.0  0.7664541104739018  0.30188616912369776  0.45128827305858016  1.0000
  C   C9        1.0  0.2370572065791876  0.9418251229433777  0.8222331294253781  1.0000
  C   C10       1.0  0.05817574628888179  0.7629432823624994  0.677768408663141  1.0000
  C   C11       1.0  0.7629468966334729  0.05817538839593079  0.1777682177403649  1.0000
  C   C12       1.0  0.9418255343123929  0.23705449644003093  0.32223079437945057  1.0000
  N   N1        1.0  0.19547460270451472  0.30481625205241863  0.9320573051883015  1.0000
  N   N2        1.0  0.6951831077129214  0.8045242498431904  0.5679433220445989  1.0000
  N   N3        1.0  0.8045282271020399  0.695184259816564  0.06794346336190685  1.0000
  N   N4        1.0  0.3048151305791719  0.19547490039435897  0.43205649488481174  1.0000
  N   N5        1.0  0.3496291097712784  0.2983689496993662  0.8097667158785598  1.0000
  N   N6        1.0  0.7016329537170022  0.6503693720671608  0.6902328377858423  1.0000
  N   N7        1.0  0.6503727180196605  0.7016342918783778  0.1902323716419974  1.0000
  N   N8        1.0  0.29836578227639177  0.34962841000323397  0.30976625267875596  1.0000
  N   N9        1.0  0.25472277464619714  0.09631010720755738  0.8317354485893276  1.0000
  N   N10       1.0  0.9036888524973108  0.7452780292524253  0.668264149849236  1.0000
  N   N11       1.0  0.7452775127568075  0.9036904101378054  0.16826625203597703  1.0000
  N   N12       1.0  0.09631015268224269  0.25472247978854773  0.33173279354816293  1.0000
  N   N13       1.0  0.13743493859335126  0.18342243277514572  0.9460434215822814  1.0000
  N   N14       1.0  0.816576888409479  0.8625657384798372  0.5539574871967903  1.0000
  N   N15       1.0  0.862567893417534  0.8165780813023531  0.05395839162101638  1.0000
  N   N16       1.0  0.1834213476782764  0.13743340954920316  0.4460412850795307  1.0000
  O   O1        1.0  0.3110623052242757  0.621820372368191  0.9376363316705252  1.0000
  O   O2        1.0  0.3781807589816779  0.688938289639374  0.5623633497130388  1.0000
  O   O3        1.0  0.6889412640247484  0.37817468944699334  0.06237139893579538  1.0000
  O   O4        1.0  0.6218273643080678  0.3110580962624851  0.43762757341154696  1.0000
  O   O5        1.0  0.33477910624907287  0.7819252631603318  0.06134553015798631  1.0000
  O   O6        1.0  0.21807506923600783  0.6652197445508748  0.4386566069123603  1.0000
  O   O7        1.0  0.6652143681147891  0.21808345815142618  0.9386556594502906  1.0000
  O   O8        1.0  0.781916358221274  0.33478761186159994  0.5613437436531115  1.0000
