data_image0
_chemical_formula_structural       Ag2H36C48N6O8
_chemical_formula_sum              "Ag2 H36 C48 N6 O8"
_cell_length_a       7.8152064120284965
_cell_length_b       9.605939845935714
_cell_length_c       13.902019927845497
_cell_angle_alpha    110.20536781693599
_cell_angle_beta     92.11980307754544
_cell_angle_gamma    89.98690059320349

_space_group_name_H-M_alt    "P 1"
_space_group_IT_number       1

loop_
  _space_group_symop_operation_xyz
  'x, y, z'

loop_
  _atom_site_type_symbol
  _atom_site_label
  _atom_site_symmetry_multiplicity
  _atom_site_fract_x
  _atom_site_fract_y
  _atom_site_fract_z
  _atom_site_occupancy
  Ag  Ag1       1.0  0.24900249782756126  0.8007201027766512  0.5975862174646096  1.0000
  Ag  Ag2       1.0  0.7489843633396799  0.7970604985514382  0.5975555714467333  1.0000
  H   H1        1.0  0.8766822382392049  0.5746542921053575  0.2627724427679965  1.0000
  H   H2        1.0  0.3763989786131105  0.6883498015791717  0.2626743755896541  1.0000
  H   H3        1.0  0.023615761935602102  0.5861969331051358  0.4268867738880786  1.0000
  H   H4        1.0  0.5233128740230057  0.8409976555211853  0.4267691369584057  1.0000
  H   H5        1.0  0.16273812288103068  0.0278183145977096  0.494597638861336  1.0000
  H   H6        1.0  0.6630625339031937  0.467215309847532  0.4945654518861319  1.0000
  H   H7        1.0  0.011311301589280696  0.03778106882045051  0.33722803517334654  1.0000
  H   H8        1.0  0.5117115203021284  0.2998033915379138  0.3372216526527154  1.0000
  H   H9        1.0  0.677922366155954  0.9715651890395094  0.3572047672745385  1.0000
  H   H10       1.0  0.17797923639734847  0.38620570617218414  0.3572127086470971  1.0000
  H   H11       1.0  0.3918559028222788  0.0758081846779817  0.36029424277457883  1.0000
  H   H12       1.0  0.8919316641214934  0.28513011565618734  0.36034817739867014  1.0000
  H   H13       1.0  0.22392701891072156  0.0394362517591702  0.19614327063564477  1.0000
  H   H14       1.0  0.7241128879331453  0.15711906714267337  0.19621574115122092  1.0000
  H   H15       1.0  0.35154852182216695  0.9097529523492371  0.030262051566076288  1.0000
  H   H16       1.0  0.8519166633149949  0.12051351800364067  0.030331962554925  1.0000
  H   H17       1.0  0.8351747692933599  0.6257137003003023  0.8308746078954246  1.0000
  H   H18       1.0  0.3354432870304862  0.20521802833668798  0.8308594321233329  1.0000
  H   H19       1.0  0.12043739106275099  0.5232988821040151  0.8278407836885578  1.0000
  H   H20       1.0  0.6209011678266164  0.30400419768378834  0.82777994404497  1.0000
  H   H21       1.0  0.2863525286269492  0.5551324093542147  0.9929404670798193  1.0000
  H   H22       1.0  0.7873297835576806  0.4364626956893574  0.9928642037845705  1.0000
  H   H23       1.0  0.15446489183734258  0.6769688054327361  0.15837003574218034  1.0000
  H   H24       1.0  0.6552683482179943  0.4802387103021816  0.15832186175001792  1.0000
  H   H25       1.0  0.5001996171610797  0.5461048584023658  0.8504752680781423  1.0000
  H   H26       1.0  0.0006344768365025002  0.30421531829697557  0.850246248728574  1.0000
  H   H27       1.0  0.34353556351535264  0.5559285092432161  0.6942414100085513  1.0000
  H   H28       1.0  0.8435860583373864  0.13827196758325752  0.6942349410531037  1.0000
  H   H29       1.0  0.4663728974855274  0.0007194463909953998  0.7654059308715446  1.0000
  H   H30       1.0  0.9662093233830261  0.7646986717208079  0.7655506182188176  1.0000
  H   H31       1.0  0.621890884425582  0.011790372140964702  0.9276289391646985  1.0000
  H   H32       1.0  0.12200934951048478  0.9156860502740471  0.9276484109908126  1.0000
  H   H33       1.0  0.4453680384139814  0.09186642793738999  0.6208165492352508  1.0000
  H   H34       1.0  0.945295703296942  0.5288088507375759  0.6209233294511094  1.0000
  H   H35       1.0  0.2695925661691021  0.17208994939482378  0.6487584265300157  1.0000
  H   H36       1.0  0.7695188978175193  0.4764769033587298  0.6487360365064491  1.0000
  C   C1        1.0  0.9313808465103077  0.8060761767065755  0.2848504155411575  1.0000
  C   C2        1.0  0.43157475656948197  0.4790546622238097  0.2847855224335447  1.0000
  C   C3        1.0  0.9367798164528834  0.678344410377363  0.3120153407081218  1.0000
  C   C4        1.0  0.43657720127559674  0.6339353276955179  0.3119291846876208  1.0000
  C   C5        1.0  0.019279697503890192  0.6831093558214361  0.4033131278532025  1.0000
  C   C6        1.0  0.5190059809764518  0.7205322117305569  0.4032313092149948  1.0000
  C   C7        1.0  0.09541424771441602  0.9303658372269725  0.44199290111443906  1.0000
  C   C8        1.0  0.5955536432577658  0.5120443354851216  0.4419756432530875  1.0000
  C   C9        1.0  0.011888085304249802  0.9343647212755002  0.3529338544515852  1.0000
  C   C10       1.0  0.5121685821131763  0.4189170051741442  0.35290068814790493  1.0000
  C   C11       1.0  0.8424759461516442  0.8030421876014058  0.18764944538162345  1.0000
  C   C12       1.0  0.3426534138415888  0.3847823523425403  0.1876072908459392  1.0000
  C   C13       1.0  0.6819818689108529  0.8714832451434161  0.19055353175040315  1.0000
  C   C14       1.0  0.18208915111430457  0.3194630276802001  0.1905738191830721  1.0000
  C   C15       1.0  0.6065489873505925  0.9535650142268249  0.2850928897880535  1.0000
  C   C16       1.0  0.10656144955756727  0.3321342334014759  0.28512633272907817  1.0000
  C   C17       1.0  0.4464507426053074  0.013430776398791998  0.2870710046131251  1.0000
  C   C18       1.0  0.9465205048016968  0.2742109837344627  0.2870993303904967  1.0000
  C   C19       1.0  0.3525517639233015  0.9950769625670617  0.19397118064490823  1.0000
  C   C20       1.0  0.8526992143925651  0.19929933030365277  0.1939953126792133  1.0000
  C   C21       1.0  0.42356770370331276  0.9225035486342889  0.10138661922835006  1.0000
  C   C22       1.0  0.9238515291376928  0.1790543297829714  0.101424140393263  1.0000
  C   C23       1.0  0.5900363727954029  0.8594684574856543  0.09570183028821323  1.0000
  C   C24       1.0  0.09028033847623357  0.23639356317602275  0.0957179169383835  1.0000
  C   C25       1.0  0.6639297917170308  0.7835445831499397  0.0009458771303200832  1.0000
  C   C26       1.0  0.16420208752578697  0.21733413194356638  0.0009182571291219846  1.0000
  C   C27       1.0  0.825668469440309  0.7174158908173707  0.998025906926557  1.0000
  C   C28       1.0  0.32600449225627404  0.2803954833737022  0.9979750889137335  1.0000
  C   C29       1.0  0.9034759370299881  0.6395470080654917  0.9034191267737272  1.0000
  C   C30       1.0  0.40385413338823634  0.2637202130624985  0.903390982345819  1.0000
  C   C31       1.0  0.0646388562031177  0.5817669421986407  0.9015714948047702  1.0000
  C   C32       1.0  0.5651691862566749  0.3193251908185886  0.9015368678958994  1.0000
  C   C33       1.0  0.15696358488678186  0.5976001398119664  0.9947650494905674  1.0000
  C   C34       1.0  0.6577719775644013  0.39621099526637943  0.994717110722661  1.0000
  C   C35       1.0  0.08370193063207408  0.666155903316465  0.08720441551709261  1.0000
  C   C36       1.0  0.584388265507144  0.42019896945627977  0.08714522289086797  1.0000
  C   C37       1.0  0.9167535432886565  0.7281261248891084  0.09287712359694208  1.0000
  C   C38       1.0  0.41718509670915427  0.36435497160158536  0.09281273412612728  1.0000
  C   C39       1.0  0.5736355334947943  0.7791204994089397  0.9039284103337054  1.0000
  C   C40       1.0  0.073949273686118  0.12470566950639042  0.9038867683441794  1.0000
  C   C41       1.0  0.49575140893225716  0.6499002813248821  0.8352513070833893  1.0000
  C   C42       1.0  0.9961634751000117  0.18524156333082684  0.8351256349657634  1.0000
  C   C43       1.0  0.40893470951074556  0.6539961081984699  0.7471087453124596  1.0000
  C   C44       1.0  0.9090733214554092  0.093094651917589  0.7471061427963477  1.0000
  C   C45       1.0  0.4773783264972734  0.9030349597706007  0.7878550077562849  1.0000
  C   C46       1.0  0.9772882877309355  0.8848107001960983  0.7879449260534699  1.0000
  C   C47       1.0  0.5634781101692709  0.9075641811614333  0.8779681284763186  1.0000
  C   C48       1.0  0.0636240835593327  0.9703149431569146  0.8779839008096532  1.0000
  N   N1        1.0  0.09970280503010538  0.8067017620658774  0.46712280853051874  1.0000
  N   N2        1.0  0.599653844417375  0.6608076380756953  0.46703721829216954  1.0000
  N   N3        1.0  0.39820137433600417  0.7788121784195849  0.7237466053823454  1.0000
  N   N4        1.0  0.8981931574989659  0.9449416654190942  0.7238033237725646  1.0000
  N   N5        1.0  0.18287742499546766  0.3517572809224703  0.5590027058087301  1.0000
  N   N6        1.0  0.6828264168168586  0.20697232805914467  0.5588441880279404  1.0000
  O   O1        1.0  0.15357154911404788  0.3283556086593081  0.6419099719339272  1.0000
  O   O2        1.0  0.6537328199548255  0.3132333205125449  0.6418058773608097  1.0000
  O   O3        1.0  0.2643933465304115  0.2603582260492487  0.4893319693615582  1.0000
  O   O4        1.0  0.7639863459187382  0.2287373877555439  0.4890641533828486  1.0000
  O   O5        1.0  0.12903162199529558  0.47186700263095105  0.548420553345693  1.0000
  O   O6        1.0  0.6291483894586134  0.07625931313347678  0.5483052078936552  1.0000
  O   O7        1.0  0.3371488394910428  0.08788811314970252  0.655081351764693  1.0000
  O   O8        1.0  0.8370071926821722  0.5670330098925973  0.6551267402960547  1.0000
