data_image0
_chemical_formula_structural       H28Pb2C24N4Cl4
_chemical_formula_sum              "H28 Pb2 C24 N4 Cl4"
_cell_length_a       7.927506254543237
_cell_length_b       9.628327742831408
_cell_length_c       9.62819572205967
_cell_angle_alpha    86.75755007184333
_cell_angle_beta     88.13053691003384
_cell_angle_gamma    88.12777320120817

_space_group_name_H-M_alt    "P 1"
_space_group_IT_number       1

loop_
  _space_group_symop_operation_xyz
  'x, y, z'

loop_
  _atom_site_type_symbol
  _atom_site_label
  _atom_site_symmetry_multiplicity
  _atom_site_fract_x
  _atom_site_fract_y
  _atom_site_fract_z
  _atom_site_occupancy
  H   H1        1.0  0.6237597464558463  0.1346162253018619  0.7555676890162601  1.0000
  H   H2        1.0  0.876252112985121  0.2444333854897422  0.8653717508946671  1.0000
  H   H3        1.0  0.3762417786642657  0.8653790811286511  0.24444739546174793  1.0000
  H   H4        1.0  0.12376792599587111  0.7555722755653066  0.13463688195542292  1.0000
  H   H5        1.0  0.5430484228083755  0.22931153056477166  0.31889077552469297  1.0000
  H   H6        1.0  0.9569250709595848  0.6811159036643345  0.7707021774502182  1.0000
  H   H7        1.0  0.45694471141924703  0.7707045651457206  0.6811220341638844  1.0000
  H   H8        1.0  0.0430547068472791  0.3188866024263959  0.2293088573898459  1.0000
  H   H9        1.0  0.23824312253651664  0.1822483831417685  0.366015344597578  1.0000
  H   H10       1.0  0.26175727281434286  0.6340038100619338  0.8177301942168782  1.0000
  H   H11       1.0  0.7617516855408083  0.8177573372510593  0.6340002305785575  1.0000
  H   H12       1.0  0.7382495566089986  0.36601484390366307  0.18224153624816353  1.0000
  H   H13       1.0  0.1390312087858305  0.11889457579929537  0.6106138647394843  1.0000
  H   H14       1.0  0.3609674906854039  0.3893949420385353  0.8810625913591538  1.0000
  H   H15       1.0  0.8609663209820012  0.8811058847978327  0.389397851323686  1.0000
  H   H16       1.0  0.6390572650658158  0.610616195379606  0.11889150616040214  1.0000
  H   H17       1.0  0.8629955121254368  0.19017321174136725  0.6083352849642054  1.0000
  H   H18       1.0  0.6370074480393981  0.39165456232284857  0.8098481825757133  1.0000
  H   H19       1.0  0.13699931688287847  0.8098312894809396  0.39166791134937284  1.0000
  H   H20       1.0  0.3630171482167767  0.6083312861162966  0.19015860945534513  1.0000
  H   H21       1.0  0.850216307118174  0.15389276457125328  0.4297329328467471  1.0000
  H   H22       1.0  0.6497707730895711  0.570252847174956  0.8461202002578361  1.0000
  H   H23       1.0  0.14977617447715366  0.8461076900420398  0.5702789265346482  1.0000
  H   H24       1.0  0.3502442937239182  0.4297183754757156  0.1538847820432494  1.0000
  H   H25       1.0  0.8151261613039154  0.3261305224808027  0.48094708186872753  1.0000
  H   H26       1.0  0.684833928916113  0.5190373676615606  0.6738814964807744  1.0000
  H   H27       1.0  0.1848636211917025  0.6738739876338328  0.519057295385558  1.0000
  H   H28       1.0  0.31514771038585104  0.4809494110669305  0.3261222906581125  1.0000
  Pb  Pb1       1.0  0.24999228777110008  0.06198642204704189  0.9379922016560087  1.0000
  Pb  Pb2       1.0  0.74999796333136  0.9380054067983821  0.061999557792603396  1.0000
  C   C1        1.0  0.542133818174335  0.1497566279286175  0.6664090367252555  1.0000
  C   C2        1.0  0.9578731272329718  0.33359799696306414  0.8502118226357356  1.0000
  C   C3        1.0  0.45786028480333124  0.8502343878904881  0.33359825217911526  1.0000
  C   C4        1.0  0.042139190386222894  0.6664105390674563  0.1497802054103659  1.0000
  C   C5        1.0  0.6097517236179684  0.19014617781787987  0.5347229484649958  1.0000
  C   C6        1.0  0.8902488996495279  0.46527405395842436  0.8098588011815622  1.0000
  C   C7        1.0  0.39026330969901585  0.8098584514728984  0.4652869379330227  1.0000
  C   C8        1.0  0.10976405725705972  0.5347191102417381  0.1901509179324492  1.0000
  C   C9        1.0  0.49740594754681683  0.2029156608461165  0.42500268507470207  1.0000
  C   C10       1.0  0.0025718041124563125  0.5750076535466276  0.7970937335751743  1.0000
  C   C11       1.0  0.5025968346369964  0.7970796024518804  0.5750092507063088  1.0000
  C   C12       1.0  0.9974215127811233  0.42500304549081136  0.2029059500572288  1.0000
  C   C13       1.0  0.3268907319388673  0.17762030683228863  0.45038994687248396  1.0000
  C   C14       1.0  0.1730920376084555  0.5496147213538974  0.8223409288285382  1.0000
  C   C15       1.0  0.6731118294033677  0.822380010987075  0.54961124964764  1.0000
  C   C16       1.0  0.8269048764760285  0.45039850909480345  0.17761692459431092  1.0000
  C   C17       1.0  0.27106998980536895  0.14062447170615394  0.5854653216803101  1.0000
  C   C18       1.0  0.22892157313391692  0.4145486993558265  0.8593479543985723  1.0000
  C   C19       1.0  0.7289250158762075  0.8593759858990564  0.4145464660419762  1.0000
  C   C20       1.0  0.7710754183150712  0.5854638177118047  0.14063279932606326  1.0000
  C   C21       1.0  0.7944607041764088  0.21633117776164565  0.5128450145952925  1.0000
  C   C22       1.0  0.7055337713180235  0.48713998538127606  0.7836731214859683  1.0000
  C   C23       1.0  0.2055432075455812  0.7836671197451325  0.48716044179963086  1.0000
  C   C24       1.0  0.29446437883276383  0.5128435271871438  0.21631900384301872  1.0000
  N   N1        1.0  0.3774881618572863  0.12633840803942317  0.6914991772152632  1.0000
  N   N2        1.0  0.12252220366249841  0.3084992763382032  0.8736316534661198  1.0000
  N   N3        1.0  0.6225120128830708  0.873658918703683  0.3085116473879523  1.0000
  N   N4        1.0  0.8774968894595361  0.6914965561505821  0.1263455023815538  1.0000
  Cl  Cl1       1.0  0.9689337602354013  0.9569826326119468  0.7990726690473764  1.0000
  Cl  Cl2       1.0  0.5310353590212246  0.20092436108043898  0.0430238652951189  1.0000
  Cl  Cl3       1.0  0.0310367532050932  0.043030076182937214  0.200924401435195  1.0000
  Cl  Cl4       1.0  0.46894127295693266  0.7990613710076174  0.9569801377692144  1.0000
