data_image0
_chemical_formula_structural       V8Cd4H32C52N16O24
_chemical_formula_sum              "V8 Cd4 H32 C52 N16 O24"
_cell_length_a       7.849740207
_cell_length_b       12.545388451048217
_cell_length_c       16.158
_cell_angle_alpha    108.37492637855722
_cell_angle_beta     90.0
_cell_angle_gamma    90.0

_space_group_name_H-M_alt    "P 1"
_space_group_IT_number       1

loop_
  _space_group_symop_operation_xyz
  'x, y, z'

loop_
  _atom_site_type_symbol
  _atom_site_label
  _atom_site_symmetry_multiplicity
  _atom_site_fract_x
  _atom_site_fract_y
  _atom_site_fract_z
  _atom_site_occupancy
  V   V1        1.0  0.1109973039901391  0.39230624003204173  0.805597552707134  1.0000
  V   V2        1.0  0.6109972908049883  0.6076937636636544  0.6944024481974013  1.0000
  V   V3        1.0  0.8890039435670687  0.6076937636636544  0.19440244819740118  1.0000
  V   V4        1.0  0.3890039567522194  0.39230624003204173  0.3055981715956122  1.0000
  V   V5        1.0  0.4841115629038555  0.47232387886376154  0.8429238404170647  1.0000
  V   V6        1.0  0.9841115497187047  0.5276761248319275  0.6570755415989993  1.0000
  V   V7        1.0  0.5158896846533594  0.5276769647622217  0.15707636606350664  1.0000
  V   V8        1.0  0.0158884239109938  0.4723247187940558  0.3429252837700431  1.0000
  Cd  Cd1       1.0  0.834353727293994  0.3879318830874965  0.9856514330983186  1.0000
  Cd  Cd2       1.0  0.334355014406654  0.6120681206081926  0.5143485678062163  1.0000
  Cd  Cd3       1.0  0.1656462463357045  0.6120672806779055  0.014348362230187216  1.0000
  Cd  Cd4       1.0  0.6656449592230445  0.3879318830874965  0.4856514330983188  1.0000
  H   H1        1.0  0.9417037768215692  0.7647573679650037  0.7846682080586831  1.0000
  H   H2        1.0  0.4417037900067129  0.2352426357306925  0.7153311739573738  1.0000
  H   H3        1.0  0.0582961968081364  0.2352434756609796  0.2153319984218811  1.0000
  H   H4        1.0  0.5582961836229857  0.7647573679650037  0.2846682080586831  1.0000
  H   H5        1.0  0.1926293049356715  0.40088612793305595  0.0921361800173699  1.0000
  H   H6        1.0  0.6926292917505208  0.599113035832346  0.4078629964226579  1.0000
  H   H7        1.0  0.8073693947665177  0.599113035832346  0.9078629964226579  1.0000
  H   H8        1.0  0.3073681340241592  0.40088612793305595  0.5921367989058481  1.0000
  H   H9        1.0  0.4436274205475783  0.2762765900641426  0.09623402147693838  1.0000
  H   H10       1.0  0.9436274073624276  0.7237225737012594  0.4037657738515676  1.0000
  H   H11       1.0  0.5563725530821273  0.7237242535618407  0.9037668038921041  1.0000
  H   H12       1.0  0.056372566267278  0.2762757501338555  0.596233197012431  1.0000
  H   H13       1.0  0.4306970563159709  0.0748335890886906  0.0103878351142939  1.0000
  H   H14       1.0  0.9306970431308201  0.9251647347464242  0.4896117546381831  1.0000
  H   H15       1.0  0.569304191241244  0.9251655746767112  0.9896119602142119  1.0000
  H   H16       1.0  0.0693042044263947  0.0748335890886906  0.5103878351142939  1.0000
  H   H17       1.0  0.6759395674354209  0.8841408595764406  0.7919085518995386  1.0000
  H   H18       1.0  0.1759395806205717  0.1158591441192556  0.7080914490049962  1.0000
  H   H19       1.0  0.324057858339259  0.11585746425867431  0.2080904189644599  1.0000
  H   H20       1.0  0.8240603930091339  0.8841408595764406  0.291909170788017  1.0000
  H   H21       1.0  0.4511486885695888  0.0270272768359163  0.805743011667367  1.0000
  H   H22       1.0  0.9511486753844381  0.9729727268597799  0.6942569892371679  1.0000
  H   H23       1.0  0.5488512850601168  0.9729727268597799  0.19425698923716792  1.0000
  H   H24       1.0  0.0488512982452676  0.0270281167662034  0.3057438361318745  1.0000
  H   H25       1.0  0.5195611437386276  0.23139155535612588  0.8800223496542614  1.0000
  H   H26       1.0  0.0195611569237784  0.7686084483395632  0.6199776512502736  1.0000
  H   H27       1.0  0.4804413777460965  0.7686076084092761  0.11997806456271584  1.0000
  H   H28       1.0  0.9804375427784109  0.2313923952864201  0.3800225552302905  1.0000
  H   H29       1.0  0.2333274671137175  0.7095521097973929  0.8255116360427692  1.0000
  H   H30       1.0  0.7333274539285668  0.2904478938983033  0.6744883648617659  1.0000
  H   H31       1.0  0.7666712325884717  0.2904470539680162  0.1744881592857368  1.0000
  H   H32       1.0  0.2666725197011317  0.7095521097973929  0.325511017154291  1.0000
  C   C1        1.0  0.1928369551198799  0.3117376069308051  0.05495470146413339  1.0000
  C   C2        1.0  0.6928356680072199  0.6882623967648841  0.4450446805519234  1.0000
  C   C3        1.0  0.8071630185098186  0.6882615568345969  0.9450444749758944  1.0000
  C   C4        1.0  0.3071630316949694  0.311736767000518  0.5549544958881043  1.0000
  C   C5        1.0  0.3314313507700533  0.2422988900876604  0.057481537912885  1.0000
  C   C6        1.0  0.8314313375849025  0.7577011136080359  0.4425178441031718  1.0000
  C   C7        1.0  0.6685686228596452  0.7577011136080359  0.9425178441031719  1.0000
  C   C8        1.0  0.1685673621172867  0.2422980501573733  0.5574819512253271  1.0000
  C   C9        1.0  0.3244769804902177  0.1299204170855646  0.0090066945822969  1.0000
  C   C10       1.0  0.8244769673050669  0.8700795866101245  0.4909933063222311  1.0000
  C   C11       1.0  0.6755242670669972  0.8700795866101245  0.9909926874337599  1.0000
  C   C12       1.0  0.1755230063246316  0.1299204170855646  0.5090066945822969  1.0000
  C   C13       1.0  0.17865049836292  0.0875257756841137  0.9587740321123448  1.0000
  C   C14       1.0  0.6786504851777693  0.9124742280115825  0.5412253499037121  1.0000
  C   C15       1.0  0.8213494752667785  0.9124750679418696  0.04122617436822651  1.0000
  C   C16       1.0  0.3213494884519292  0.0875257756841137  0.4587734132238665  1.0000
  C   C17       1.0  0.1558013345345373  0.972175633015624  0.9087660688919357  1.0000
  C   C18       1.0  0.6558000474218773  0.0278243706800723  0.5912339320125994  1.0000
  C   C19       1.0  0.8442011869501869  0.0278243706800723  0.09123516978955587  1.0000
  C   C20       1.0  0.3441999262078284  0.972176472945911  0.4087650366910153  1.0000
  C   C21       1.0  0.0033618947002196  0.934851650768195  0.8637434007205443  1.0000
  C   C22       1.0  0.5033618815150689  0.0651483529274941  0.6362559812955197  1.0000
  C   C23       1.0  0.996638078929486  0.065147512997207  0.1362576323849112  1.0000
  C   C24       1.0  0.4966380921146296  0.934851650768195  0.3637434007205442  1.0000
  C   C25       1.0  0.8632005418418274  0.0072351595085038  0.8644277201611033  1.0000
  C   C26       1.0  0.3632005550269781  0.9927648441871924  0.6355722807434318  1.0000
  C   C27       1.0  0.1367994317878711  0.992763164326611  0.1355731073683231  1.0000
  C   C28       1.0  0.6367994186027204  0.0072359994387909  0.3644279257371323  1.0000
  C   C29       1.0  0.7030958801768179  0.9726249957201746  0.8255495265085102  1.0000
  C   C30       1.0  0.2030958933619615  0.027374168045227496  0.6744502688199958  1.0000
  C   C31       1.0  0.2969028195253713  0.027374168045227496  0.17445026881999579  1.0000
  C   C32       1.0  0.7969053541952462  0.9726258356504686  0.3255503509730175  1.0000
  C   C33       1.0  0.5774089180630639  0.0521873886396307  0.8324704190787742  1.0000
  C   C34       1.0  0.0774089312482147  0.9478126150560654  0.6675295818257608  1.0000
  C   C35       1.0  0.4225910555666346  0.9478126150560654  0.16752896293728983  1.0000
  C   C36       1.0  0.9225910423814838  0.0521873886396307  0.3324710379672453  1.0000
  C   C37       1.0  0.6135604329561204  0.1657745213274353  0.8754055868751819  1.0000
  C   C38       1.0  0.1135604461412711  0.834225482368261  0.6245950329178241  1.0000
  C   C39       1.0  0.3864408146010874  0.8342246424379737  0.12459482734179524  1.0000
  C   C40       1.0  0.8864395274884274  0.1657753612577224  0.37540517356273984  1.0000
  C   C41       1.0  0.8867376265258855  0.123643618036688  0.9109578614654197  1.0000
  C   C42       1.0  0.3867376397110364  0.8763563856590011  0.5890415205506372  1.0000
  C   C43       1.0  0.1132636210313223  0.8763538658681397  0.08904152271102109  1.0000
  C   C44       1.0  0.6132623339186623  0.12364445796698219  0.4109574481529704  1.0000
  C   C45       1.0  0.0433606706749927  0.1633865995161159  0.9594170000435938  1.0000
  C   C46       1.0  0.5433606574898491  0.8366134041795732  0.5405823819724631  1.0000
  C   C47       1.0  0.9566393029547058  0.836611724318999  0.0405819708204049  1.0000
  C   C48       1.0  0.4566380422123473  0.1633857595858288  0.4594161755790864  1.0000
  C   C49       1.0  0.1840685120650889  0.7947076022062588  0.847844658724668  1.0000
  C   C50       1.0  0.6840684988799381  0.2052924014894373  0.6521553421798671  1.0000
  C   C51       1.0  0.8159314615646096  0.2052924014894373  0.1521559610683454  1.0000
  C   C52       1.0  0.3159314747497604  0.7947076022062588  0.3478440398361897  1.0000
  N   N1        1.0  0.0542272723395882  0.2732310028366243  0.007270382711233501  1.0000
  N   N2        1.0  0.5542259852269282  0.7267681609287777  0.4927294126172725  1.0000
  N   N3        1.0  0.9457739752176266  0.7267681609287777  0.9927294126172724  1.0000
  N   N4        1.0  0.4457714405477518  0.2732318427669185  0.5072699693987842  1.0000
  N   N5        1.0  0.7630902223564533  0.1995968342004701  0.9134107926796416  1.0000
  N   N6        1.0  0.2630902355415969  0.800403169495219  0.5865892082248934  1.0000
  N   N7        1.0  0.23690975127325237  0.800403169495219  0.08658920822489341  1.0000
  N   N8        1.0  0.7369084641605923  0.1995976741307572  0.41341037936719255  1.0000
  N   N9        1.0  0.2668406781325245  0.8836822576387036  0.8985050584695812  1.0000
  N   N10       1.0  0.7668419388748831  0.11631690612669839  0.601495355747396  1.0000
  N   N11       1.0  0.7331592954971811  0.11631690612669839  0.10149535574739589  1.0000
  N   N12       1.0  0.2331580347548154  0.8836830975689978  0.3985046451571391  1.0000
  N   N13       1.0  0.024612279502918  0.8210175785754571  0.8253863627008114  1.0000
  N   N14       1.0  0.5246122663177744  0.1789815851899448  0.6746134326276945  1.0000
  N   N15       1.0  0.9753876941267805  0.17898242512023194  0.1746142570922018  1.0000
  N   N16       1.0  0.4753877073119313  0.8210175785754571  0.32538636270081156  1.0000
  O   O1        1.0  0.0444065651611183  0.4522797824496863  0.9102521614090406  1.0000
  O   O2        1.0  0.5444065519759675  0.5477202212460099  0.5897478394954946  1.0000
  O   O3        1.0  0.9555934084685802  0.5477202212460099  0.08974783949549454  1.0000
  O   O4        1.0  0.455593421653731  0.4522797824496863  0.4102521614090405  1.0000
  O   O5        1.0  0.3382303018936099  0.3555147735877782  0.7993925572812726  1.0000
  O   O6        1.0  0.8382290147809499  0.6444843901776309  0.7006060002702768  1.0000
  O   O7        1.0  0.6617696717360957  0.644485230107918  0.2006062058463129  1.0000
  O   O8        1.0  0.1617696849212393  0.3555156135180653  0.2993940006342584  1.0000
  O   O9        1.0  0.0764827859480803  0.4882909536555715  0.7444082734961199  1.0000
  O   O10       1.0  0.5764840466904388  0.5117082101098376  0.755590902943908  1.0000
  O   O11       1.0  0.9235171876816255  0.5117090500401247  0.2555917274084152  1.0000
  O   O12       1.0  0.4235159269392597  0.4882917935858586  0.24440909796062724  1.0000
  O   O13       1.0  0.0087977433875324  0.2757516336335897  0.7633254894219447  1.0000
  O   O14       1.0  0.5087964562748724  0.7242483700621065  0.7366745114825903  1.0000
  O   O15       1.0  0.9912022302421661  0.7242492099923936  0.23667471705861937  1.0000
  O   O16       1.0  0.4912009694998076  0.2757516336335897  0.2633254894219447  1.0000
  O   O17       1.0  0.6369268113537743  0.4348722272124306  0.8989857806116957  1.0000
  O   O18       1.0  0.1369268245389179  0.5651277764832656  0.6010148391813104  1.0000
  O   O19       1.0  0.3630744362034406  0.5651277764832656  0.10101483918131038  1.0000
  O   O20       1.0  0.8630718751632713  0.4348722272124306  0.3989851617232247  1.0000
  O   O21       1.0  0.6328553390302005  0.4229662153674099  0.09414452165490418  1.0000
  O   O22       1.0  0.1328528043603328  0.5770337883282863  0.4058579548035368  1.0000
  O   O23       1.0  0.367144634599498  0.5770337883282863  0.905855479249631  1.0000
  O   O24       1.0  0.8671471692693657  0.4229662153674099  0.5941426649894765  1.0000
