data_image0
_chemical_formula_structural       Mg6H30C72O18F12
_chemical_formula_sum              "Mg6 H30 C72 O18 F12"
_cell_length_a       6.813292342620516
_cell_length_b       34.30978659188412
_cell_length_c       34.312344448695185
_cell_angle_alpha    119.56734822773453
_cell_angle_beta     93.79957815490273
_cell_angle_gamma    93.79069582116706

_space_group_name_H-M_alt    "P 1"
_space_group_IT_number       1

loop_
  _space_group_symop_operation_xyz
  'x, y, z'

loop_
  _atom_site_type_symbol
  _atom_site_label
  _atom_site_symmetry_multiplicity
  _atom_site_fract_x
  _atom_site_fract_y
  _atom_site_fract_z
  _atom_site_occupancy
  Mg  Mg1       1.0  0.49768655431903136  0.6348546313848402  0.3311685369314645  1.0000
  Mg  Mg2       1.0  0.1665178963378153  0.6688474540671405  0.30366229292015834  1.0000
  Mg  Mg3       1.0  0.8628199550765528  0.6963439363906188  0.36516550608621395  1.0000
  Mg  Mg4       1.0  0.31272345558624437  0.36189288107377127  0.6625000630388982  1.0000
  Mg  Mg5       1.0  0.6502468304349875  0.3375803239987149  0.6994462852667808  1.0000
  Mg  Mg6       1.0  0.9508207171491917  0.30063616125222126  0.6381998387688412  1.0000
  H   H1        1.0  0.9753256657508871  0.4413137102497018  0.8871003836189431  1.0000
  H   H2        1.0  0.08772603541918757  0.11296849520280008  0.5543657038942982  1.0000
  H   H3        1.0  0.5335592739346353  0.4456350476188007  0.5586044118971856  1.0000
  H   H4        1.0  0.3554516000090189  0.5082333944952212  0.9249967053308552  1.0000
  H   H5        1.0  0.4310018637632993  0.0750295677471442  0.5830094165154023  1.0000
  H   H6        1.0  0.8476591498961452  0.4168338544539765  0.491911061406384  1.0000
  H   H7        1.0  0.009340779383563843  0.421342205025006  0.8217496907863122  1.0000
  H   H8        1.0  0.18755654955917572  0.17832092735006458  0.5995097285837048  1.0000
  H   H9        1.0  0.5881706554642248  0.40051953543338925  0.578829852119263  1.0000
  H   H10       1.0  0.7008336341742732  0.44631015741953933  0.7955644067120602  1.0000
  H   H11       1.0  0.9051969444043519  0.20448877472292537  0.6507311249589093  1.0000
  H   H12       1.0  0.2545164381006586  0.3492335016098593  0.553766723988396  1.0000
  H   H13       1.0  0.6047350251650554  0.4875130333464241  0.8730909724782093  1.0000
  H   H14       1.0  0.731578315080327  0.1269592940777642  0.6143461915815466  1.0000
  H   H15       1.0  0.11709106830333128  0.3855364858551908  0.5125418011826709  1.0000
  H   H16       1.0  0.8695523080560007  0.5770342758215393  0.11209693876701014  1.0000
  H   H17       1.0  0.757662401617118  0.8878794190612069  0.46476526926795697  1.0000
  H   H18       1.0  0.2928245573162868  0.5351162297558146  0.42303956532158776  1.0000
  H   H19       1.0  0.4699347779426473  0.5175872296873363  0.07057637843551842  1.0000
  H   H20       1.0  0.3988169870110595  0.9294830512251265  0.447256771874784  1.0000
  H   H21       1.0  0.9515404330087872  0.552695778963539  0.4821405302861877  1.0000
  H   H22       1.0  0.8174568944900996  0.5972342699211313  0.17787262717828167  1.0000
  H   H23       1.0  0.6392615829966528  0.8221422414088693  0.419424021267929  1.0000
  H   H24       1.0  0.22003611644969812  0.5805809491832717  0.40269773436494205  1.0000
  H   H25       1.0  0.11655900383137655  0.5697529081230925  0.19714016353690766  1.0000
  H   H26       1.0  0.919169474594099  0.8028733769549986  0.3726115880658298  1.0000
  H   H27       1.0  0.5466666210086046  0.6273313834077854  0.4301883484824812  1.0000
  H   H28       1.0  0.22089812031402536  0.5350736180359161  0.120218734620785  1.0000
  H   H29       1.0  0.10038657892625465  0.8798061207955354  0.4149316869394539  1.0000
  H   H30       1.0  0.6855264845654502  0.5849824251968909  0.46476274862231287  1.0000
  C   C1        1.0  0.7361651440681242  0.49267265587997844  0.0017359480194798292  1.0000
  C   C2        1.0  0.7339023203146979  0.9983474101407738  0.4911940538965851  1.0000
  C   C3        1.0  0.24238976356499348  0.508666339882687  0.5070558993097336  1.0000
  C   C4        1.0  0.8318162797195537  0.5303480139113076  0.04152670139635006  1.0000
  C   C5        1.0  0.7902790786110356  0.9584719914270252  0.4887945114003928  1.0000
  C   C6        1.0  0.30113686019212327  0.5110500227026193  0.4695730571272989  1.0000
  C   C7        1.0  0.016516903973794655  0.5477019179692845  0.036456466892225585  1.0000
  C   C8        1.0  0.9805507144354448  0.9634727822205915  0.5109564634459075  1.0000
  C   C9        1.0  0.469319533731607  0.48889393469676895  0.4524295806266281  1.0000
  C   C10       1.0  0.09899960976868975  0.5293769230849178  0.9960853947035629  1.0000
  C   C11       1.0  0.10342988261286477  0.003841591495906  0.5329870807264784  1.0000
  C   C12       1.0  0.5703470072810786  0.46689609258577747  0.47078701119772143  1.0000
  C   C13       1.0  0.003914743706019397  0.49153358749335746  0.9563963939282588  1.0000
  C   C14       1.0  0.04765419870621199  0.0436249277202947  0.5350940757648672  1.0000
  C   C15       1.0  0.5124803767057742  0.46481124695589676  0.508467055951357  1.0000
  C   C16       1.0  0.8190130675327367  0.47423365240005216  0.9614168816913776  1.0000
  C   C17       1.0  0.8570783477513899  0.03866760941046009  0.5130645078125582  1.0000
  C   C18       1.0  0.3438962743726605  0.4868381537062874  0.5255318985113391  1.0000
  C   C19       1.0  0.07578735627323854  0.4701223796781093  0.9126967507370907  1.0000
  C   C20       1.0  0.1631568853521088  0.0873413041045197  0.5574062467472487  1.0000
  C   C21       1.0  0.6057276205949974  0.44253312803289196  0.5298976282298113  1.0000
  C   C22       1.0  0.2469423827329108  0.4808529140010548  0.9001839606146405  1.0000
  C   C23       1.0  0.3470510459989099  0.099863819987803  0.5805536045920121  1.0000
  C   C24       1.0  0.766376657074801  0.41935670257347374  0.5192453499903991  1.0000
  C   C25       1.0  0.2996298977799654  0.4571512615344488  0.8542781438740973  1.0000
  C   C26       1.0  0.44537993402713727  0.1457929568221488  0.6028121434437849  1.0000
  C   C27       1.0  0.8425645646046929  0.39713971124527353  0.5429579866996265  1.0000
  C   C28       1.0  0.16327855717555195  0.42729968858506595  0.817383133620794  1.0000
  C   C29       1.0  0.34584488213771886  0.1826922823780848  0.6098637501501614  1.0000
  C   C30       1.0  0.7361119039168214  0.39016173103327395  0.5728515999156373  1.0000
  C   C31       1.0  0.21383360345588892  0.4038857450505161  0.7732591701170719  1.0000
  C   C32       1.0  0.4405229759131188  0.2268213064971363  0.6306134131864027  1.0000
  C   C33       1.0  0.8101684822906773  0.36948181181968204  0.5962868587585959  1.0000
  C   C34       1.0  0.4134776968034898  0.4101141897604491  0.7647251976733926  1.0000
  C   C35       1.0  0.6487244426996951  0.2353505150967692  0.6453894692678759  1.0000
  C   C36       1.0  0.0035000203740267713  0.3546711447259555  0.5900190050033274  1.0000
  C   C37       1.0  0.5497086151524258  0.441016773776326  0.8019935408013267  1.0000
  C   C38       1.0  0.7476477377600543  0.1980740899940727  0.6390099136947853  1.0000
  C   C39       1.0  0.10874634867203531  0.36098736718873436  0.5590876350053193  1.0000
  C   C40       1.0  0.4946649525878754  0.46389714965091144  0.8452164438516333  1.0000
  C   C41       1.0  0.6494136804353301  0.1548500476222614  0.6186387879550495  1.0000
  C   C42       1.0  0.030782191735497136  0.3813090956984411  0.5361916492160361  1.0000
  C   C43       1.0  0.0546772667768494  0.3733863456236222  0.7377266228187054  1.0000
  C   C44       1.0  0.3168720725718756  0.2623540672364584  0.6356689332257942  1.0000
  C   C45       1.0  0.6814684275260061  0.36443868359955883  0.6267618065989281  1.0000
  C   C46       1.0  0.7617680105535453  0.5509766824666469  0.08547621802798488  1.0000
  C   C47       1.0  0.6761731829528798  0.9145286162465069  0.4654843492515042  1.0000
  C   C48       1.0  0.21054349016807808  0.5344054415552719  0.4489624790691239  1.0000
  C   C49       1.0  0.5836481242489028  0.5420696214808131  0.09673908029962769  1.0000
  C   C50       1.0  0.486525201801747  0.9032996338387631  0.44545965497243145  1.0000
  C   C51       1.0  0.04106632504240785  0.5544757779709072  0.4577519167685153  1.0000
  C   C52       1.0  0.5278708995964434  0.5633825647299701  0.14241304592079723  1.0000
  C   C53       1.0  0.3851552013302139  0.8576154115858401  0.4210475275410843  1.0000
  C   C54       1.0  0.9641741091924058  0.5788861462020662  0.436476919721173  1.0000
  C   C55       1.0  0.6621140055267034  0.5905590423356485  0.1808089301005893  1.0000
  C   C56       1.0  0.4809865338104088  0.8192128193111683  0.40979011213774896  1.0000
  C   C57       1.0  0.07132662759482146  0.5901778121108308  0.40936379813170026  1.0000
  C   C58       1.0  0.6069706405565254  0.6100040548449073  0.22463576626490322  1.0000
  C   C59       1.0  0.3820891511457276  0.7753860708798541  0.38539584973345603  1.0000
  C   C60       1.0  0.996898483792357  0.614625250927105  0.38997612944719867  1.0000
  C   C61       1.0  0.4051663951821708  0.6024716556412955  0.23116839773531686  1.0000
  C   C62       1.0  0.17371471257843044  0.7688445412323758  0.37131268013654045  1.0000
  C   C63       1.0  0.8025821321889591  0.6286925510270506  0.3975011622055503  1.0000
  C   C64       1.0  0.2699664754071023  0.5754473087583988  0.19226494811106676  1.0000
  C   C65       1.0  0.07741632813016956  0.8077513875903005  0.3831995110541654  1.0000
  C   C66       1.0  0.6944015171098881  0.6167752475730666  0.42449364121372213  1.0000
  C   C67       1.0  0.3295631449116243  0.5562619789416132  0.14943905038006722  1.0000
  C   C68       1.0  0.17982986182065733  0.8505790520722059  0.40688412629421583  1.0000
  C   C69       1.0  0.7730447413251013  0.5930586678652006  0.44361283456756695  1.0000
  C   C70       1.0  0.7635562875688464  0.6373939188824664  0.2622711912817551  1.0000
  C   C71       1.0  0.5011783379720783  0.7377554052013553  0.37513242002674485  1.0000
  C   C72       1.0  0.12620627584842478  0.6248954594187737  0.36261457851502144  1.0000
  O   O1        1.0  0.93699055743086  0.6463019812275803  0.2550078878289952  1.0000
  O   O2        1.0  0.6819007352005783  0.7450138284874229  0.3913113163051706  1.0000
  O   O3        1.0  0.2907432732978918  0.6087155230823741  0.3536989246707805  1.0000
  O   O4        1.0  0.7213487524320357  0.6516435173428474  0.30304756041637393  1.0000
  O   O5        1.0  0.4182740611927968  0.6969706561775695  0.34856296359580335  1.0000
  O   O6        1.0  0.06980383354989782  0.6514545941286582  0.3483963712353528  1.0000
  O   O7        1.0  0.33988559433365134  0.6193236258043201  0.2718397337501415  1.0000
  O   O8        1.0  0.06786670434539847  0.728163448962647  0.34746060690086716  1.0000
  O   O9        1.0  0.7204948527902316  0.6525413490185626  0.3806780996201056  1.0000
  O   O10       1.0  0.8826414821052495  0.36710608562010083  0.7473722858103073  1.0000
  O   O11       1.0  0.13519102376326939  0.2527028702293563  0.6197531116715851  1.0000
  O   O12       1.0  0.5156281585888323  0.38033835969253715  0.6330074999324751  1.0000
  O   O13       1.0  0.09298560413439105  0.35336800553628217  0.6962220537369745  1.0000
  O   O14       1.0  0.3967070004634933  0.303859682545415  0.6572014482589592  1.0000
  O   O15       1.0  0.7396838339590558  0.34290991463636533  0.6467425011779184  1.0000
  O   O16       1.0  0.4760549798124173  0.38845239919593405  0.7237495387240854  1.0000
  O   O17       1.0  0.7523098911721745  0.27632949483133734  0.6647540389517276  1.0000
  O   O18       1.0  0.08766439836423244  0.33531945517991346  0.6116501095445627  1.0000
  F   F1        1.0  0.5581676663788643  0.47263054861292636  0.0020969738718789772  1.0000
  F   F2        1.0  0.5548905073590048  0.9980427056506115  0.47103908894700897  1.0000
  F   F3        1.0  0.08354813059067111  0.5288134144987993  0.5268983478883982  1.0000
  F   F4        1.0  0.11983549280532908  0.5843046630287887  0.07283000254354728  1.0000
  F   F5        1.0  0.04798105176568163  0.9270424562590875  0.5109487083453602  1.0000
  F   F6        1.0  0.5368095166853164  0.4889178352023718  0.4160163137179111  1.0000
  F   F7        1.0  0.2770236175884336  0.5493397668753986  0.9955964261467541  1.0000
  F   F8        1.0  0.2825760182171563  0.0042414124219121  0.5531653883351453  1.0000
  F   F9        1.0  0.7291897165869584  0.44668931622781116  0.4509838983275997  1.0000
  F   F10       1.0  0.7156291367903762  0.4376325940329977  0.9250608060662202  1.0000
  F   F11       1.0  0.7894079683932275  0.0750720042997841  0.5130585411920165  1.0000
  F   F12       1.0  0.27615884334582563  0.4868253855657798  0.5619267144691875  1.0000
