data_image0
_chemical_formula_structural       Co2Ag2H12C28N4O16
_chemical_formula_sum              "Co2 Ag2 H12 C28 N4 O16"
_cell_length_a       6.833343034253916
_cell_length_b       6.832692325769887
_cell_length_c       15.008424081535553
_cell_angle_alpha    103.13959690049563
_cell_angle_beta     103.12149892616962
_cell_angle_gamma    89.97416333157237

_space_group_name_H-M_alt    "P 1"
_space_group_IT_number       1

loop_
  _space_group_symop_operation_xyz
  'x, y, z'

loop_
  _atom_site_type_symbol
  _atom_site_label
  _atom_site_symmetry_multiplicity
  _atom_site_fract_x
  _atom_site_fract_y
  _atom_site_fract_z
  _atom_site_occupancy
  Co  Co1       1.0  0.37488101533072893  0.12505486934639987  0.7499434278785416  1.0000
  Co  Co2       1.0  0.6251148611074555  0.8749426998284163  0.2500556345697902  1.0000
  Ag  Ag1       1.0  0.8751464538616605  0.6249796468990496  0.7500411881837935  1.0000
  Ag  Ag2       1.0  0.12485684653302095  0.37501641088702803  0.24995714542830433  1.0000
  H   H1        1.0  0.8189003126142611  0.40953191309777265  0.056852042016608144  1.0000
  H   H2        1.0  0.6470298781166905  0.31931978986515464  0.5569952600904672  1.0000
  H   H3        1.0  0.9102079881110826  0.7377539743027981  0.5570922632168234  1.0000
  H   H4        1.0  0.23739492521699657  0.14718609389908013  0.057030875049662214  1.0000
  H   H5        1.0  0.18109255848143851  0.5904656548977982  0.9431467133715402  1.0000
  H   H6        1.0  0.35297564122605257  0.6806898050039436  0.4430033509908355  1.0000
  H   H7        1.0  0.08979390784417521  0.262243606484347  0.44290874779597544  1.0000
  H   H8        1.0  0.7626029417144125  0.8528205109904266  0.9429699804063035  1.0000
  H   H9        1.0  0.5724557675515386  0.322645895873336  0.14566161172535896  1.0000
  H   H10       1.0  0.8230325637220378  0.0729570779838227  0.6457455320958446  1.0000
  H   H11       1.0  0.42754226493122627  0.6773637238091297  0.8543402350378175  1.0000
  H   H12       1.0  0.17696822356816716  0.9270480183749896  0.35425480115566194  1.0000
  C   C1        1.0  0.7219840533258266  0.3377290917388577  0.8523244098587528  1.0000
  C   C2        1.0  0.5144585395392484  0.2221722370433596  0.35246423935375765  1.0000
  C   C3        1.0  0.8379741767987458  0.6300426369644899  0.3525235126533489  1.0000
  C   C4        1.0  0.1300515283672468  0.0145412356774628  0.8524831171336232  1.0000
  C   C5        1.0  0.2780148957743834  0.6622699698174869  0.1476731200261838  1.0000
  C   C6        1.0  0.48554919713360095  0.7778223266823971  0.6475357272501299  1.0000
  C   C7        1.0  0.16201776884742006  0.36996547990337797  0.647478225168939  1.0000
  C   C8        1.0  0.8699441869356267  0.9854533233313063  0.14751562122954454  1.0000
  C   C9        1.0  0.6177708256191681  0.2851446442268113  0.9224980310254766  1.0000
  C   C10       1.0  0.6371583403537289  0.1179713287260498  0.42262035082281824  1.0000
  C   C11       1.0  0.7853819681755354  0.8043883546436417  0.4226611362523798  1.0000
  C   C12       1.0  0.30430670152919254  0.13719520497169674  0.9225874997281664  1.0000
  C   C13       1.0  0.382226499418863  0.7148514482160949  0.07750502624268313  1.0000
  C   C14       1.0  0.3628437531440768  0.8820307210410121  0.5773744740971837  1.0000
  C   C15       1.0  0.2146196639965439  0.1956046877598467  0.5773360525224049  1.0000
  C   C16       1.0  0.6956965668742897  0.8627993986274232  0.07741801128393179  1.0000
  C   C17       1.0  0.6730257707043635  0.3332705200944091  0.020444289685087796  1.0000
  C   C18       1.0  0.686930743027162  0.17336200862486353  0.5205688422585766  1.0000
  C   C19       1.0  0.8337013793049693  0.8471761517271758  0.5206164640614476  1.0000
  C   C20       1.0  0.34689349945069387  0.1869118344914825  0.020539883836001124  1.0000
  C   C21       1.0  0.3269791305933865  0.666727061871974  0.9795570283878875  1.0000
  C   C22       1.0  0.3130771371168279  0.8266355467592775  0.47942877954226054  1.0000
  C   C23       1.0  0.1662937868904066  0.15283645380752378  0.4793820636164413  1.0000
  C   C24       1.0  0.6531070549686293  0.813088755872087  0.9794612977318665  1.0000
  C   C25       1.0  0.534162616108894  0.2842733352165325  0.06891125613739751  1.0000
  C   C26       1.0  0.7845480285420481  0.0344853863489405  0.5690054772896502  1.0000
  C   C27       1.0  0.46583333648091246  0.7157257344143987  0.9310873011314629  1.0000
  C   C28       1.0  0.21545568793903414  0.965518210733009  0.43099566820150415  1.0000
  N   N1        1.0  0.4390113936795218  0.18916713709725747  0.8784646965682443  1.0000
  N   N2        1.0  0.6892177801413127  0.9391331223492612  0.3785680936786946  1.0000
  N   N3        1.0  0.5609871614144879  0.8108244082977905  0.1215333575478894  1.0000
  N   N4        1.0  0.3107844425006121  0.06087048339689719  0.6214342327264788  1.0000
  O   O1        1.0  0.6251413095405882  0.27015782397988625  0.7646140730788462  1.0000
  O   O2        1.0  0.4945179952174642  0.12524598361495978  0.26476073371767234  1.0000
  O   O3        1.0  0.7702748571712379  0.6391863149859062  0.26479894881926924  1.0000
  O   O4        1.0  0.13931954978352226  0.9945772226148294  0.7647482756461275  1.0000
  O   O5        1.0  0.374863694405022  0.7298412862041063  0.2353907431469793  1.0000
  O   O6        1.0  0.5054760430307256  0.874745550757389  0.7352355253640895  1.0000
  O   O7        1.0  0.22972099277070163  0.36081122642741537  0.7351961102967409  1.0000
  O   O8        1.0  0.8606766036859668  0.0054248988243870006  0.23525661070637238  1.0000
  O   O9        1.0  0.8796618390860829  0.44715249075826335  0.8757050936035357  1.0000
  O   O10       1.0  0.42824499204679983  0.3799144950172177  0.3758302850709897  1.0000
  O   O11       1.0  0.9476471907911517  0.49572306155791074  0.375921914706197  1.0000
  O   O12       1.0  0.9958092294309396  0.9283951506659349  0.8759016434743145  1.0000
  O   O13       1.0  0.12033138077648432  0.5528511253308963  0.1242983132872624  1.0000
  O   O14       1.0  0.5717571996828285  0.6200890783405341  0.6241673707798157  1.0000
  O   O15       1.0  0.05236203972085462  0.5042714935036373  0.6240768709836786  1.0000
  O   O16       1.0  0.0041880779429206  0.0716009232693082  0.12409874490563773  1.0000
