data_image0
_chemical_formula_structural       Nd2P2H6C2O12
_chemical_formula_sum              "Nd2 P2 H6 C2 O12"
_cell_length_a       6.700339002555741
_cell_length_b       7.0951575750653655
_cell_length_c       8.315335200354896
_cell_angle_alpha    114.39429132634237
_cell_angle_beta     97.61564782663842
_cell_angle_gamma    90.25678773400985

_space_group_name_H-M_alt    "P 1"
_space_group_IT_number       1

loop_
  _space_group_symop_operation_xyz
  'x, y, z'

loop_
  _atom_site_type_symbol
  _atom_site_label
  _atom_site_symmetry_multiplicity
  _atom_site_fract_x
  _atom_site_fract_y
  _atom_site_fract_z
  _atom_site_occupancy
  Nd  Nd1       1.0  0.12563688211746893  0.21827323405121749  0.9344570470367588  1.0000
  Nd  Nd2       1.0  0.8743751232576641  0.7817204380986879  0.06553402204295379  1.0000
  P   P1        1.0  0.6742372621511024  0.2530518895403874  0.01172053542222074  1.0000
  P   P2        1.0  0.3257692964817664  0.7469188209237956  0.9882766776150337  1.0000
  H   H1        1.0  0.6521030767709064  0.3348780842280661  0.1939860149636204  1.0000
  H   H2        1.0  0.3478861846116103  0.6651210986089354  0.8059843684514978  1.0000
  H   H3        1.0  0.09321846666639999  0.29230906714154514  0.30966773795614  1.0000
  H   H4        1.0  0.9067753149611377  0.7077077659174121  0.6903331099397081  1.0000
  H   H5        1.0  0.1023718460575509  0.5157091080002444  0.3108518686691896  1.0000
  H   H6        1.0  0.897632656273423  0.48430359591392147  0.6891666152823748  1.0000
  C   C1        1.0  0.9930610846551102  0.1081859338091888  0.49908785081220947  1.0000
  C   C2        1.0  0.006953068902710418  0.8918289233533017  0.5008877456427998  1.0000
  O   O1        1.0  0.8051746986426948  0.063555618771538  0.9736804859135478  1.0000
  O   O2        1.0  0.19484376962931554  0.9364312050690062  0.02634494792028633  1.0000
  O   O3        1.0  0.4649895088599364  0.2020165310823359  0.90272866496224  1.0000
  O   O4        1.0  0.534988076499971  0.7980005149452224  0.09728639579427788  1.0000
  O   O5        1.0  0.8054072811450722  0.4140180516918193  0.9829987486275729  1.0000
  O   O6        1.0  0.1945606764414975  0.5859836585810357  0.017021046887862247  1.0000
  O   O7        1.0  0.02371859530305191  0.2625334496454315  0.6492893405021223  1.0000
  O   O8        1.0  0.9762904467986361  0.7374690454471063  0.35068519916095664  1.0000
  O   O9        1.0  0.04716992109878501  0.8867383245205432  0.6519751234019113  1.0000
  O   O10       1.0  0.9528383026887539  0.1132663009822537  0.348025325930415  1.0000
  O   O11       1.0  0.16130719150395828  0.378573391110308  0.2621959947332614  1.0000
  O   O12       1.0  0.8386974899765035  0.6214130799405027  0.7378184201759982  1.0000
