data_image0
_chemical_formula_structural       ZnH9C4S4N9O4
_chemical_formula_sum              "Zn1 H9 C4 S4 N9 O4"
_cell_length_a       7.669002960936474
_cell_length_b       7.722503119609997
_cell_length_c       7.929428724433537
_cell_angle_alpha    89.83777984624076
_cell_angle_beta     62.000813430483454
_cell_angle_gamma    65.61532956895584

_space_group_name_H-M_alt    "P 1"
_space_group_IT_number       1

loop_
  _space_group_symop_operation_xyz
  'x, y, z'

loop_
  _atom_site_type_symbol
  _atom_site_label
  _atom_site_symmetry_multiplicity
  _atom_site_fract_x
  _atom_site_fract_y
  _atom_site_fract_z
  _atom_site_occupancy
  Zn  Zn1       1.0  0.8407945521182187  0.470355387187162  0.7750506881035474  1.0000
  H   H1        1.0  0.6332033590031688  0.7904997305604765  0.04796030986871349  1.0000
  H   H2        1.0  0.48715880687817753  0.7939396122269853  0.9449347389745311  1.0000
  H   H3        1.0  0.4898682164226356  0.6712886539319315  0.11360573597517733  1.0000
  H   H4        1.0  0.1311251741600969  0.1466954815040253  0.4196133285447486  1.0000
  H   H5        1.0  0.1236991775312575  0.1157422733168119  0.20353078796694743  1.0000
  H   H6        1.0  0.1650877839131085  0.43137642366392  0.4232049908886209  1.0000
  H   H7        1.0  0.11030492888731659  0.7303029567118884  0.20313911092534895  1.0000
  H   H8        1.0  0.03913212445831977  0.7449856613641257  0.02057980459237989  1.0000
  H   H9        1.0  0.9568714887338742  0.0927620808430234  0.8126664862000011  1.0000
  C   C1        1.0  0.8282161550739885  0.31794076070494254  0.43522515633162573  1.0000
  C   C2        1.0  0.4442693776854796  0.531209118415461  0.5413608494902176  1.0000
  C   C3        1.0  0.7780188773976632  0.8690423918881153  0.3046583865343705  1.0000
  C   C4        1.0  0.4215037944813033  0.045716453051916496  0.598156544112278  1.0000
  S   S1        1.0  0.6718013189326086  0.36475896461907814  0.3213507009571615  1.0000
  S   S2        1.0  0.1766343048900297  0.6600741829171568  0.5645609908906405  1.0000
  S   S3        1.0  0.691631515574699  0.9299737999068681  0.5535136159084426  1.0000
  S   S4        1.0  0.188891808469748  0.1631113027413704  0.8414173125315114  1.0000
  N   N1        1.0  0.5900046819106138  0.7044152540976542  0.9916805102894055  1.0000
  N   N2        1.0  0.7046866250812371  0.42803182083027014  0.6200437826214652  1.0000
  N   N3        1.0  0.4866405933434096  0.5478501486143228  0.6791856024220021  1.0000
  N   N4        1.0  0.04368914385126035  0.189593532010626  0.3471237993525519  1.0000
  N   N5        1.0  0.08723966336248883  0.5120055804665142  0.5627315942555666  1.0000
  N   N6        1.0  0.6082350815057399  0.9365060305396752  0.2723027510069895  1.0000
  N   N7        1.0  0.4066118447147958  0.0360164706657997  0.44127819360589615  1.0000
  N   N8        1.0  0.9926341151488318  0.7634965688920232  0.16537799615260682  1.0000
  N   N9        1.0  0.9734870899398587  0.21486583232029935  0.8341183227605738  1.0000
  O   O1        1.0  0.22870721910911135  0.7354366729753536  0.38589170785650834  1.0000
  O   O2        1.0  0.033037517929905454  0.8001722516594466  0.7541138344210621  1.0000
  O   O3        1.0  0.18815777356401506  0.3409134399002624  0.9010365662246966  1.0000
  O   O4        1.0  0.23146065827064893  0.012418749264867296  0.9514821444522777  1.0000
