data_image0
_chemical_formula_structural       Ag4H28C44N8O16
_chemical_formula_sum              "Ag4 H28 C44 N8 O16"
_cell_length_a       5.033162750528776
_cell_length_b       14.353038425032446
_cell_length_c       14.773078724011132
_cell_angle_alpha    89.99993302164428
_cell_angle_beta     89.99988458583557
_cell_angle_gamma    96.24442452446682

_space_group_name_H-M_alt    "P 1"
_space_group_IT_number       1

loop_
  _space_group_symop_operation_xyz
  'x, y, z'

loop_
  _atom_site_type_symbol
  _atom_site_label
  _atom_site_symmetry_multiplicity
  _atom_site_fract_x
  _atom_site_fract_y
  _atom_site_fract_z
  _atom_site_occupancy
  Ag  Ag1       1.0  0.8779692996518801  0.8658218106583178  0.3371713090732413  1.0000
  Ag  Ag2       1.0  0.6220297056649426  0.6341780812343242  0.8371702176744478  1.0000
  Ag  Ag3       1.0  0.12202757758211648  0.1341786618419007  0.6628298975142357  1.0000
  Ag  Ag4       1.0  0.37797203567023263  0.3658188850297037  0.1628296350994134  1.0000
  H   H1        1.0  0.2739738162155305  0.9408909469300114  0.496441591697085  1.0000
  H   H2        1.0  0.22602436350484098  0.5591088310887712  0.9964418682469756  1.0000
  H   H3        1.0  0.7260230610249464  0.059109525571677986  0.5035575841694779  1.0000
  H   H4        1.0  0.7739698696309245  0.4408895394097527  0.003557984528662  1.0000
  H   H5        1.0  0.30367042296214913  0.9469972672700421  0.6647436663724308  1.0000
  H   H6        1.0  0.1963298717753972  0.553002990249233  0.1647438838149711  1.0000
  H   H7        1.0  0.6963304275337806  0.0530032039885668  0.3352561863997465  1.0000
  H   H8        1.0  0.8036652379920212  0.4469981837479153  0.8352559689587693  1.0000
  H   H9        1.0  0.5668941038298455  0.7608762055987343  0.6734250139793474  1.0000
  H   H10       1.0  0.9331059455894957  0.7391239230048328  0.1734235040058962  1.0000
  H   H11       1.0  0.4331063083459482  0.2391228639095857  0.3265761926077246  1.0000
  H   H12       1.0  0.06689269912187258  0.2608758480009072  0.8265756718604607  1.0000
  H   H13       1.0  0.5770328450498282  0.7587205611478822  0.5036736655965086  1.0000
  H   H14       1.0  0.9229660809720384  0.7412791125933254  0.003672837020573601  1.0000
  H   H15       1.0  0.4229633747147474  0.2412778087293432  0.4963261871784469  1.0000
  H   H16       1.0  0.07703411205230988  0.2587192560418075  0.9963263388460464  1.0000
  H   H17       1.0  0.441211429557569  0.8452057496448331  0.09703533708270841  1.0000
  H   H18       1.0  0.0587956951086852  0.6547960056375999  0.5970369731657641  1.0000
  H   H19       1.0  0.5587955999891818  0.15479542062602994  0.9029624849660324  1.0000
  H   H20       1.0  0.9411967705583423  0.3452030663573638  0.4029622027031011  1.0000
  H   H21       1.0  0.4145978339486689  0.8245566752675586  0.9279968812031144  1.0000
  H   H22       1.0  0.08539879556750647  0.6754432023153568  0.4279977123255989  1.0000
  H   H23       1.0  0.5854001532889582  0.1754409931142078  0.0720022946646637  1.0000
  H   H24       1.0  0.914594327571102  0.3245579723030829  0.5720021404488164  1.0000
  H   H25       1.0  0.18392787787133355  0.9600985497899116  0.17256260916634864  1.0000
  H   H26       1.0  0.316089574983593  0.5399058967029616  0.6725641997154954  1.0000
  H   H27       1.0  0.8160939347087321  0.0399054196305357  0.8274352128757414  1.0000
  H   H28       1.0  0.6839031098391856  0.4600938761661623  0.32743565305986533  1.0000
  C   C1        1.0  0.12213703477821967  0.9016056751431163  0.538264363309537  1.0000
  C   C2        1.0  0.37786186064753474  0.5983940649606154  0.0382644049066059  1.0000
  C   C3        1.0  0.8778616099288286  0.09839409586164291  0.4617361663707627  1.0000
  C   C4        1.0  0.6221345782727923  0.4016050057907776  0.9617361247748519  1.0000
  C   C5        1.0  0.13600633869382503  0.9054929062813598  0.6322704891272579  1.0000
  C   C6        1.0  0.3639921764774385  0.5945073988028399  0.1322698677284819  1.0000
  C   C7        1.0  0.8639903193822605  0.09450686534420069  0.3677307174606952  1.0000
  C   C8        1.0  0.6360047007587184  0.405493073697869  0.8677306619520238  1.0000
  C   C9        1.0  0.9330529990051984  0.8551219597511305  0.6824100982659332  1.0000
  C   C10       1.0  0.5669450064858168  0.6448781564832229  0.18241097675842613  1.0000
  C   C11       1.0  0.0669476323306668  0.1448778106323374  0.3175904314136915  1.0000
  C   C12       1.0  0.4330496649614587  0.35512161576362883  0.8175902298302093  1.0000
  C   C13       1.0  0.7273802010152152  0.8013391573482805  0.6363243417806786  1.0000
  C   C14       1.0  0.7726158925522453  0.6986603252551191  0.13632366455401268  1.0000
  C   C15       1.0  0.2726202111584185  0.1986599121595488  0.36367754171335787  1.0000
  C   C16       1.0  0.22738032721232315  0.3013380446221062  0.8636761882209428  1.0000
  C   C17       1.0  0.7313491264334856  0.8008466231217072  0.5421205510927508  1.0000
  C   C18       1.0  0.7686511027528197  0.699151592670688  0.04211919911531941  1.0000
  C   C19       1.0  0.268647093324617  0.1991517467540476  0.4578813324031259  1.0000
  C   C20       1.0  0.23134710364271874  0.300846776585736  0.9578799767519826  1.0000
  C   C21       1.0  0.9266599086047048  0.8580727543790801  0.7829287535370997  1.0000
  C   C22       1.0  0.5733396617367602  0.6419279168004763  0.28292827719245395  1.0000
  C   C23       1.0  0.07333807862428898  0.1419249140007253  0.21707312995857114  1.0000
  C   C24       1.0  0.4266600787577061  0.3580753585770822  0.717072929392451  1.0000
  C   C25       1.0  0.3153296899471981  0.8868089750869146  0.05717568942210251  1.0000
  C   C26       1.0  0.184679894664356  0.6131935380697655  0.5571772866224833  1.0000
  C   C27       1.0  0.6846788879082125  0.11319079281236097  0.942823486440851  1.0000
  C   C28       1.0  0.8153211749894922  0.3868076340635014  0.44282256614921783  1.0000
  C   C29       1.0  0.3004166270022281  0.8741097902512178  0.9623499209982145  1.0000
  C   C30       1.0  0.1995844142075284  0.625892139054521  0.4623480226528757  1.0000
  C   C31       1.0  0.6995899642179068  0.12588997826788528  0.0376512855863353  1.0000
  C   C32       1.0  0.8004084897710086  0.3741083346887706  0.5376525070289873  1.0000
  C   C33       1.0  0.140469634064928  0.9264600233115344  0.9125228237126422  1.0000
  C   C34       1.0  0.35952951906604363  0.5735412777691523  0.4125229061048188  1.0000
  C   C35       1.0  0.8595459994643233  0.07354324709666568  0.0874770290528843  1.0000
  C   C36       1.0  0.6404611791300922  0.42645849572175354  0.5874762697642526  1.0000
  C   C37       1.0  0.9907276671427141  0.9942094097773264  0.9517682066941476  1.0000
  C   C38       1.0  0.5092728132479037  0.5057910167070432  0.45176860583289624  1.0000
  C   C39       1.0  0.0092925971222115  0.005795962013237999  0.04823029225465091  1.0000
  C   C40       1.0  0.4907196524169634  0.4942080552874231  0.5482312469429473  1.0000
  C   C41       1.0  0.17212246680092844  0.9508855925792402  0.0994952490624996  1.0000
  C   C42       1.0  0.3278914786983832  0.5491189607819534  0.5994968210613437  1.0000
  C   C43       1.0  0.827891618419656  0.04911908020054061  0.9005032498888144  1.0000
  C   C44       1.0  0.672107166008665  0.4508808102228059  0.400503708618956  1.0000
  N   N1        1.0  0.9235223327868523  0.8508507255341724  0.49340549278583984  1.0000
  N   N2        1.0  0.5764778821130463  0.6491496407601717  0.9934050924588151  1.0000
  N   N3        1.0  0.07647432529354599  0.14914904609236856  0.5065943599881635  1.0000
  N   N4        1.0  0.42352231091346226  0.35084872787544436  0.006593406500833501  1.0000
  N   N5        1.0  0.45480447373984817  0.8775085223672291  0.3030093061476933  1.0000
  N   N6        1.0  0.04519295274485554  0.6224915358982911  0.8030082806243898  1.0000
  N   N7        1.0  0.5451926226520596  0.1224926510076472  0.6969919004393078  1.0000
  N   N8        1.0  0.9548050344927714  0.3775061324834751  0.19699089524338836  1.0000
  O   O1        1.0  0.7526320696678466  0.8157369048548233  0.8295629892414669  1.0000
  O   O2        1.0  0.74736720331866  0.6842636989106905  0.3295623456611096  1.0000
  O   O3        1.0  0.24737297324146107  0.1842642660353704  0.1704375404358487  1.0000
  O   O4        1.0  0.2526272489771769  0.31573537246297423  0.6704368302070804  1.0000
  O   O5        1.0  0.13402882591058327  0.9159830054502791  0.8176868111484767  1.0000
  O   O6        1.0  0.36597093192875707  0.5840184327252512  0.3176862003173185  1.0000
  O   O7        1.0  0.8659759978429661  0.08401746456574702  0.18231304162234352  1.0000
  O   O8        1.0  0.6340261644674782  0.4159827406506055  0.6823136524557399  1.0000
  O   O9        1.0  0.34585209601888756  0.9480343302728966  0.3305756629246019  1.0000
  O   O10       1.0  0.15414736047804914  0.5519663883957406  0.8305753198850354  1.0000
  O   O11       1.0  0.6541450003751875  0.0519668431024698  0.6694248667554348  1.0000
  O   O12       1.0  0.8458528325462992  0.4480319802393852  0.1694238559815844  1.0000
  O   O13       1.0  0.2985131243565816  0.8069990730968043  0.2800202850906075  1.0000
  O   O14       1.0  0.2014862161809887  0.6930003169047084  0.7800204262654874  1.0000
  O   O15       1.0  0.701485739510538  0.1930013987831032  0.7199795676822519  1.0000
  O   O16       1.0  0.7985117710587915  0.30699735147754137  0.21997807269531933  1.0000
