data_image0
_chemical_formula_structural       Ag2H20C38S2N4O8F6
_chemical_formula_sum              "Ag2 H20 C38 S2 N4 O8 F6"
_cell_length_a       8.93632559967735
_cell_length_b       10.344508499699726
_cell_length_c       10.797180564948697
_cell_angle_alpha    102.71043548018413
_cell_angle_beta     109.3212787299812
_cell_angle_gamma    99.48520194380914

_space_group_name_H-M_alt    "P 1"
_space_group_IT_number       1

loop_
  _space_group_symop_operation_xyz
  'x, y, z'

loop_
  _atom_site_type_symbol
  _atom_site_label
  _atom_site_symmetry_multiplicity
  _atom_site_fract_x
  _atom_site_fract_y
  _atom_site_fract_z
  _atom_site_occupancy
  Ag  Ag1       1.0  0.654249354493956  0.5752311612542512  0.9628716681039579  1.0000
  Ag  Ag2       1.0  0.3457546393575797  0.42476322738858124  0.03713000538624562  1.0000
  H   H1        1.0  0.7466455434302689  0.4445928328702562  0.7364710059918239  1.0000
  H   H2        1.0  0.253353660171058  0.5554087396795779  0.26352340235038707  1.0000
  H   H3        1.0  0.8995603792680669  0.4598573414529882  0.587023059080778  1.0000
  H   H4        1.0  0.10043967722811688  0.5401431944775722  0.4129713729175607  1.0000
  H   H5        1.0  0.7552290664862015  0.3750946577535075  0.3305873969766467  1.0000
  H   H6        1.0  0.24476914902243863  0.6249038455397907  0.6694070406829269  1.0000
  H   H7        1.0  0.30734498444824254  0.1374528302684013  0.966750930786617  1.0000
  H   H8        1.0  0.692649221380691  0.862540628195319  0.03324878572698259  1.0000
  H   H9        1.0  0.2952584917122465  0.2643689427778639  0.37773504954565607  1.0000
  H   H10       1.0  0.7047401899204361  0.7356347304466054  0.6222642738471222  1.0000
  H   H11       1.0  0.968528698682924  0.15297622577130449  0.4406053951091239  1.0000
  H   H12       1.0  0.03146899514993605  0.8470243858784697  0.5593948854408597  1.0000
  H   H13       1.0  0.46580805198475167  0.8692467704605986  0.13752194203480883  1.0000
  H   H14       1.0  0.5341916779782707  0.13075281664229269  0.8624814688544475  1.0000
  H   H15       1.0  0.601105478985822  0.9675596707613248  0.5701203984483101  1.0000
  H   H16       1.0  0.3988974095192788  0.03244604388149949  0.4298832769698322  1.0000
  H   H17       1.0  0.783828545141873  0.08140336483579348  0.8126119804471942  1.0000
  H   H18       1.0  0.21617434336322824  0.9186023498070315  0.18739169497094832  1.0000
  H   H19       1.0  0.05742220889674602  0.2327131905777193  0.8729259352628064  1.0000
  H   H20       1.0  0.9425815325032048  0.7672914874458312  0.12707776381146366  1.0000
  C   C1        1.0  0.6808370738319384  0.4091481810193614  0.6254243155286974  1.0000
  C   C2        1.0  0.3191618006004049  0.5908523735661859  0.37457072114586515  1.0000
  C   C3        1.0  0.7673063178399601  0.4164607521277616  0.5396977491246986  1.0000
  C   C4        1.0  0.23269472879899666  0.5835429068322638  0.4603031484351591  1.0000
  C   C5        1.0  0.6873000816643895  0.3683514143913626  0.39731885624192403  1.0000
  C   C6        1.0  0.3127008286052444  0.6316481079654607  0.6026783829320621  1.0000
  C   C7        1.0  0.5161564206642099  0.31022845038568647  0.33823627773238485  1.0000
  C   C8        1.0  0.48384127346152184  0.689772168945936  0.6617649306574408  1.0000
  C   C9        1.0  0.43298437551982977  0.2550999163396027  0.1936930628029289  1.0000
  C   C10       1.0  0.5670081218835747  0.7448955462260399  0.8062982558398488  1.0000
  C   C11       1.0  0.36235128751317097  0.20758507321230013  0.06870334167819446  1.0000
  C   C12       1.0  0.6376429191943772  0.792408408296957  0.931299158354932  1.0000
  C   C13       1.0  0.42760204644430644  0.3058336790295471  0.4238061942835501  1.0000
  C   C14       1.0  0.5723951233698159  0.6941689795219402  0.5761925064381188  1.0000
  C   C15       1.0  0.5094867279286818  0.35544195424780156  0.5670146706712985  1.0000
  C   C16       1.0  0.4905116236564029  0.6445606779668437  0.4329824975343116  1.0000
  C   C17       1.0  0.4139230781124327  0.34883959702737133  0.6520380741142091  1.0000
  C   C18       1.0  0.5860776381860546  0.6511630132409819  0.347959740418638  1.0000
  C   C19       1.0  0.1976386135682233  0.280089671096185  0.6938381097182997  1.0000
  C   C20       1.0  0.8023627619468384  0.7199149981462653  0.306161231669364  1.0000
  C   C21       1.0  0.0325877880597361  0.20056625977486678  0.6605489346009676  1.0000
  C   C22       1.0  0.967413781719344  0.7994353292379088  0.3394507592676846  1.0000
  C   C23       1.0  0.9282655541163861  0.13798926404611928  0.5221868974984859  1.0000
  C   C24       1.0  0.07173246917833619  0.8620123732497903  0.47781368255899553  1.0000
  C   C25       1.0  0.7710187791349485  0.05518816876188738  0.4885405318159216  1.0000
  C   C26       1.0  0.22897839155778857  0.9448145128351373  0.5114609524252673  1.0000
  C   C27       1.0  0.6605752597916067  0.989986424721842  0.34996311419502757  1.0000
  C   C28       1.0  0.33942191090113033  0.0100162568751827  0.6500383700461613  1.0000
  C   C29       1.0  0.5584156206085494  0.9284556938878904  0.235856095476386  1.0000
  C   C30       1.0  0.44158240327190174  0.07154595877170779  0.7641463402607729  1.0000
  C   C31       1.0  0.7213891246749996  0.03402407482951019  0.5951411970469139  1.0000
  C   C32       1.0  0.2786095572505475  0.9659796060768002  0.4048590541857068  1.0000
  C   C33       1.0  0.8247638157029799  0.0973698579690847  0.7316955381050435  1.0000
  C   C34       1.0  0.17523538965556892  0.9026317606718234  0.268304437276214  1.0000
  C   C35       1.0  0.9795749873506878  0.18150497548376882  0.765541545864757  1.0000
  C   C36       1.0  0.02042691247599039  0.8184976545388238  0.23446030319106376  1.0000
  C   C37       1.0  0.8995620309822457  0.19650391003952453  0.13601243535121205  1.0000
  C   C38       1.0  0.10044025766533338  0.803492567205545  0.8639910465064206  1.0000
  S   S1        1.0  0.9110443860711898  0.3587291071495287  0.08631126860775151  1.0000
  S   S2        1.0  0.0889563904649648  0.6412663477407179  0.9136906627389294  1.0000
  N   N1        1.0  0.45244085102726933  0.40101774977982524  0.7845692236540743  1.0000
  N   N2        1.0  0.5475639357743276  0.5989827653036881  0.2154292845182582  1.0000
  N   N3        1.0  0.31387732263458906  0.35672409724419657  0.811333950388793  1.0000
  N   N4        1.0  0.686125952348455  0.6432754031663278  0.1886639351124303  1.0000
  O   O1        1.0  0.2537952292318336  0.27400415022096064  0.5900085279234447  1.0000
  O   O2        1.0  0.7462046347575466  0.7259995120303556  0.40999111863295207  1.0000
  O   O3        1.0  0.7660420661683247  0.32321079286067794  0.9598414718204539  1.0000
  O   O4        1.0  0.23395686967316462  0.6767826370741475  0.04016139302730441  1.0000
  O   O5        1.0  0.06855027426309589  0.38150814623520546  0.07031357061074321  1.0000
  O   O6        1.0  0.931448467021511  0.6184883562474608  0.9296880139161914  1.0000
  O   O7        1.0  0.9053412825756767  0.45530655206306386  0.20411668714011458  1.0000
  O   O8        1.0  0.09465443507181699  0.5446879210736383  0.7958836520446013  1.0000
  F   F1        1.0  0.014311863311036174  0.21799535911215873  0.2642828940489181  1.0000
  F   F2        1.0  0.9856924591237402  0.7820000321312577  0.7357162954292563  1.0000
  F   F3        1.0  0.9267495312022263  0.09561249726913695  0.04831533507776702  1.0000
  F   F4        1.0  0.07325209764303511  0.9043819056381394  0.9516847642453571  1.0000
  F   F5        1.0  0.7497021299051811  0.1483250754357499  0.13833418804498623  1.0000
  F   F6        1.0  0.25030167114669416  0.8516724318459981  0.8616717721634404  1.0000
