data_image0
_chemical_formula_structural       Ca2H20C28O12F8
_chemical_formula_sum              "Ca2 H20 C28 O12 F8"
_cell_length_a       7.8153457543199325
_cell_length_b       10.206178923433155
_cell_length_c       10.206181117700128
_cell_angle_alpha    63.60820827955396
_cell_angle_beta     89.47524041596574
_cell_angle_gamma    89.47534555052353

_space_group_name_H-M_alt    "P 1"
_space_group_IT_number       1

loop_
  _space_group_symop_operation_xyz
  'x, y, z'

loop_
  _atom_site_type_symbol
  _atom_site_label
  _atom_site_symmetry_multiplicity
  _atom_site_fract_x
  _atom_site_fract_y
  _atom_site_fract_z
  _atom_site_occupancy
  Ca  Ca1       1.0  0.24999927027481303  0.052722316384233595  0.9472776258622914  1.0000
  Ca  Ca2       1.0  0.7499992761961564  0.947277228706156  0.05272306064065902  1.0000
  H   H1        1.0  0.3425093129429158  0.37181342386612926  0.884324497334383  1.0000
  H   H2        1.0  0.1574895156428511  0.11567481818572387  0.6281873605986946  1.0000
  H   H3        1.0  0.6574879602281029  0.6281861239397131  0.11567718149151322  1.0000
  H   H4        1.0  0.8425103277249235  0.8843236423342513  0.3718147791853358  1.0000
  H   H5        1.0  0.5043205038968421  0.26721814446337777  0.9420420620796649  1.0000
  H   H6        1.0  0.995679583566968  0.05795758432773109  0.732783533437008  1.0000
  H   H7        1.0  0.4956793283637068  0.7327814098524569  0.05795958624892725  1.0000
  H   H8        1.0  0.0043189691488124005  0.9420419667331072  0.26721813014023643  1.0000
  H   H9        1.0  0.3316865866447358  0.8604024003427282  0.7397027502415058  1.0000
  H   H10       1.0  0.16831028414824087  0.26029847318619653  0.13959844525196272  1.0000
  H   H11       1.0  0.6683119598262336  0.1395971447476612  0.26029793626144493  1.0000
  H   H12       1.0  0.8316907644937288  0.7397054416567242  0.8603982907833515  1.0000
  H   H13       1.0  0.5114405228568728  0.6344358771658916  0.8301383047893297  1.0000
  H   H14       1.0  0.9885582830331856  0.1698614792933384  0.3655645654182678  1.0000
  H   H15       1.0  0.48855674268692434  0.36556255893275846  0.1698609342691172  1.0000
  H   H16       1.0  0.0114453753720483  0.8301380728465942  0.6344350830157812  1.0000
  H   H17       1.0  0.620853256112049  0.541377177887675  0.6537273379993067  1.0000
  H   H18       1.0  0.8791490475742094  0.34627182178469706  0.4586263789609291  1.0000
  H   H19       1.0  0.37914781474437825  0.4586245493635346  0.3462703809468763  1.0000
  H   H20       1.0  0.12085334863829189  0.6537266392748292  0.5413747532515035  1.0000
  C   C1        1.0  0.40406200405575987  0.8460854611091334  0.4139599851292317  1.0000
  C   C2        1.0  0.09593767123919149  0.5860406664571939  0.15391560785059272  1.0000
  C   C3        1.0  0.5959377983631242  0.15391516909122058  0.5860382405210418  1.0000
  C   C4        1.0  0.9040646978964446  0.4139610819603448  0.846085027069833  1.0000
  C   C5        1.0  0.3448917711189168  0.89143221098422  0.5172738900321581  1.0000
  C   C6        1.0  0.15510857479704754  0.48272814832451855  0.1085675979677277  1.0000
  C   C7        1.0  0.6551106313383953  0.10856625604574789  0.4827282192545681  1.0000
  C   C8        1.0  0.8448924849521545  0.517274672722543  0.8914296295230244  1.0000
  C   C9        1.0  0.3815606993029164  0.8190273119592887  0.6652314745687634  1.0000
  C   C10       1.0  0.1184383441128887  0.3347702304245173  0.18097256912376755  1.0000
  C   C11       1.0  0.6184416858023596  0.18097224289608957  0.3347691661882309  1.0000
  C   C12       1.0  0.8815627218811243  0.6652325965929933  0.8190256354412855  1.0000
  C   C13       1.0  0.4815432573809985  0.6924175781431356  0.7143680654520211  1.0000
  C   C14       1.0  0.018456282133442397  0.28563153501118427  0.3075846321173188  1.0000
  C   C15       1.0  0.5184578294450688  0.3075819555459134  0.28562965933074486  1.0000
  C   C16       1.0  0.981546098109419  0.7143691196105024  0.6924164942585308  1.0000
  C   C17       1.0  0.5432160466687818  0.6402312994028635  0.6175784259811863  1.0000
  C   C18       1.0  0.9567859869755608  0.3824207835162596  0.35977154837090103  1.0000
  C   C19       1.0  0.4567863085948289  0.35976933133704136  0.3824187920974966  1.0000
  C   C20       1.0  0.04321767767447679  0.6175787745941221  0.640229077137441  1.0000
  C   C21       1.0  0.5039423698059835  0.7182216863557683  0.47045831446122593  1.0000
  C   C22       1.0  0.996061178882961  0.5295420250974417  0.28178071242430036  1.0000
  C   C23       1.0  0.4960574215056751  0.28178003764043785  0.5295394197336094  1.0000
  C   C24       1.0  0.003943747959809202  0.47045862409334666  0.7182184293056653  1.0000
  C   C25       1.0  0.3651250086641156  0.9289486055232742  0.2536683681560066  1.0000
  C   C26       1.0  0.1348721308306935  0.7463326379672636  0.07105079078785811  1.0000
  C   C27       1.0  0.6348735426692683  0.07104983980082122  0.7463318327280818  1.0000
  C   C28       1.0  0.8651251090186493  0.25367019122614204  0.9289494136717309  1.0000
  O   O1        1.0  0.37664827704165293  0.270256055897697  0.9401181236904534  1.0000
  O   O2        1.0  0.1233498339899057  0.0598815713205028  0.7297446034057417  1.0000
  O   O3        1.0  0.6233502694293164  0.7297434891926925  0.0598825628124971  1.0000
  O   O4        1.0  0.8766474391811059  0.9401179764853321  0.27025707542015476  1.0000
  O   O5        1.0  0.4865637648597598  0.9562211639781211  0.16231091045531804  1.0000
  O   O6        1.0  0.013433457352114403  0.8376909069943891  0.043778889775595214  1.0000
  O   O7        1.0  0.5134347642591733  0.043779468937685785  0.837688307517908  1.0000
  O   O8        1.0  0.9865650793940262  0.1623108376286027  0.9562227679650732  1.0000
  O   O9        1.0  0.21168034992147264  0.968307751081035  0.2144010945390208  1.0000
  O   O10       1.0  0.2883184572491544  0.7856002947106615  0.031691850046066075  1.0000
  O   O11       1.0  0.7883194809566801  0.0316906974980569  0.7855990910964223  1.0000
  O   O12       1.0  0.7116800732521752  0.21440144394188107  0.9683088306203089  1.0000
  F   F1        1.0  0.24698243085207847  0.015884720071809997  0.46875338717565285  1.0000
  F   F2        1.0  0.2530170555833705  0.5312470737763206  0.9841145550387651  1.0000
  F   F3        1.0  0.753017388918849  0.9841148223031336  0.5312463070043522  1.0000
  F   F4        1.0  0.74698271351383  0.468756837811604  0.01588219624520095  1.0000
  F   F5        1.0  0.5633531126474123  0.6660458097947313  0.37652692377460545  1.0000
  F   F6        1.0  0.936647887297596  0.6234727347162518  0.3339560115979908  1.0000
  F   F7        1.0  0.4366467071235149  0.3339537325802126  0.6234727704053997  1.0000
  F   F8        1.0  0.0633506702805988  0.37652571657828554  0.6660451663603908  1.0000
