data_image0
_chemical_formula_structural       Na2Cu4H38C24O24
_chemical_formula_sum              "Na2 Cu4 H38 C24 O24"
_cell_length_a       8.052507701693656
_cell_length_b       11.575583497212685
_cell_length_c       11.575458183596544
_cell_angle_alpha    101.8324287801342
_cell_angle_beta     104.9516042803513
_cell_angle_gamma    104.95202309934264

_space_group_name_H-M_alt    "P 1"
_space_group_IT_number       1

loop_
  _space_group_symop_operation_xyz
  'x, y, z'

loop_
  _atom_site_type_symbol
  _atom_site_label
  _atom_site_symmetry_multiplicity
  _atom_site_fract_x
  _atom_site_fract_y
  _atom_site_fract_z
  _atom_site_occupancy
  Na  Na1       1.0  0.2500014306004063  0.6050714937351177  0.3949295119537197  1.0000
  Na  Na2       1.0  0.74999665337171  0.3949310471820909  0.6050700577177395  1.0000
  Cu  Cu1       1.0  0.9556032701865507  0.48672145215228124  0.09562879754545868  1.0000
  Cu  Cu2       1.0  0.544396740183089  0.9043667820887155  0.5132814950495543  1.0000
  Cu  Cu3       1.0  0.044399000438396334  0.513273532045261  0.9043536111229995  1.0000
  Cu  Cu4       1.0  0.45560439606097713  0.09563953025232053  0.48672629484648416  1.0000
  H   H1        1.0  0.6056376998350218  0.23716190602718978  0.2697166296419696  1.0000
  H   H2        1.0  0.8943569245557652  0.7302800465100391  0.7628440284986481  1.0000
  H   H3        1.0  0.39436422491792206  0.7628406551201935  0.7302879630060984  1.0000
  H   H4        1.0  0.10564242664623444  0.269722519143386  0.23716096033621878  1.0000
  H   H5        1.0  0.7052032842251562  0.25584333738812154  0.1488496584131767  1.0000
  H   H6        1.0  0.7947965737820509  0.8511524926863391  0.7441644297388094  1.0000
  H   H7        1.0  0.2948003645427236  0.7441601706347144  0.8511580289868448  1.0000
  H   H8        1.0  0.20519892761809902  0.14885006519349284  0.25583812869952277  1.0000
  H   H9        1.0  0.5662304651221676  0.3443402502006522  0.18212146997447587  1.0000
  H   H10       1.0  0.9337801195679133  0.8178829316260448  0.6556689396922976  1.0000
  H   H11       1.0  0.43377704246861276  0.6556632531392098  0.8178860552420204  1.0000
  H   H12       1.0  0.06622057793317282  0.18212243366260594  0.3443359894550611  1.0000
  H   H13       1.0  0.14655614036777115  0.14623958076396804  0.9368865628211722  1.0000
  H   H14       1.0  0.3534395335213175  0.0631090652419033  0.8537605099167322  1.0000
  H   H15       1.0  0.8534420612898189  0.8537470460498188  0.06310466684338682  1.0000
  H   H16       1.0  0.646560143390474  0.9368888353830302  0.14624533446833252  1.0000
  H   H17       1.0  0.9482728698940407  0.08990536668292752  0.978562210980172  1.0000
  H   H18       1.0  0.5517244690579729  0.021438892643246305  0.9101037511588218  1.0000
  H   H19       1.0  0.05172484538324805  0.9100990145374724  0.021431611671751213  1.0000
  H   H20       1.0  0.4482760543827952  0.9785580607523773  0.089899466480837  1.0000
  H   H21       1.0  0.9289109949954265  0.0897129845428708  0.8202490835762716  1.0000
  H   H22       1.0  0.5710820805182664  0.17974876315902583  0.9102884435904668  1.0000
  H   H23       1.0  0.07108799216401714  0.9102698952294619  0.17973981303367734  1.0000
  H   H24       1.0  0.42891546158557514  0.8202500890243346  0.08972065773008353  1.0000
  H   H25       1.0  0.5902634340584357  0.7010168403507395  0.243456710082846  1.0000
  H   H26       1.0  0.9097485600552915  0.7565460869552255  0.2989887801597532  1.0000
  H   H27       1.0  0.4097285952557286  0.29898385699571867  0.7565465723984203  1.0000
  H   H28       1.0  0.09026147509436565  0.2434545913054721  0.7010143215939522  1.0000
  H   H29       1.0  0.5530095127081722  0.5542041031312837  0.2728959453342981  1.0000
  H   H30       1.0  0.9469840665706926  0.7271004202725209  0.4458019069034762  1.0000
  H   H31       1.0  0.44697352270927143  0.4457965913014875  0.7271048349306781  1.0000
  H   H32       1.0  0.05302115320090911  0.27289559366739274  0.5542011143873181  1.0000
  H   H33       1.0  0.6171810462823117  0.5752874123830267  0.13820288674381223  1.0000
  H   H34       1.0  0.8828230573517856  0.8617955869153987  0.4247158948158471  1.0000
  H   H35       1.0  0.3828290258383618  0.42471609890736073  0.8618068348659519  1.0000
  H   H36       1.0  0.1171735612740292  0.1381985505900829  0.5752834577313591  1.0000
  H   H37       1.0  0.9999984105785986  0.5000024170731978  0.5000011692596118  1.0000
  H   H38       1.0  0.49999710205006664  0.5000012873327648  0.500002890604236  1.0000
  C   C1        1.0  0.8313676793305406  0.4070248439623755  0.316622577267772  1.0000
  C   C2        1.0  0.6686357255991668  0.6833783297757564  0.592982349572118  1.0000
  C   C3        1.0  0.16865167890751567  0.5929898030552467  0.6833746447014235  1.0000
  C   C4        1.0  0.33136060428788744  0.31662330578791403  0.4070227672809423  1.0000
  C   C5        1.0  0.6663407084867288  0.3032788171176152  0.22476199120912102  1.0000
  C   C6        1.0  0.8336605160701184  0.7752404618646553  0.6967239284836777  1.0000
  C   C7        1.0  0.3336603117171252  0.6967218872947356  0.7752446576817817  1.0000
  C   C8        1.0  0.1663384634300442  0.22476394824415988  0.3032761775250136  1.0000
  C   C9        1.0  0.9951899809169263  0.2718964453184611  0.948204052359209  1.0000
  C   C10       1.0  0.5048156929993866  0.0517861825340944  0.7281082593428323  1.0000
  C   C11       1.0  0.0048226930510752025  0.7281012542319731  0.0517626507775617  1.0000
  C   C12       1.0  0.4951837162227265  0.9482191870836801  0.2718972999946061  1.0000
  C   C13       1.0  0.003226310830619601  0.14029277788645092  0.919196036018704  1.0000
  C   C14       1.0  0.49677062960955  0.08080036982941861  0.8597096402555877  1.0000
  C   C15       1.0  0.9967745924461653  0.8596994357412201  0.0807924816907572  1.0000
  C   C16       1.0  0.5032264767583214  0.9191975311493722  0.14029573612292273  1.0000
  C   C17       1.0  0.34189544953576956  0.5657948326395826  0.12337376823280269  1.0000
  C   C18       1.0  0.15811245026444015  0.8766172838313369  0.43421527857916686  1.0000
  C   C19       1.0  0.65810475031536  0.43420389877636023  0.8766107394869918  1.0000
  C   C20       1.0  0.8418916492744798  0.12338715463511112  0.5657918127961139  1.0000
  C   C21       1.0  0.5390901785481431  0.5996334073310551  0.19838114000967977  1.0000
  C   C22       1.0  0.9609135517559577  0.8016176752242429  0.4003729604893492  1.0000
  C   C23       1.0  0.46090487809499336  0.4003682118007745  0.8016202860666867  1.0000
  C   C24       1.0  0.03909212480070319  0.19837926085489946  0.5996277363899977  1.0000
  O   O1        1.0  0.9371863260542952  0.4813065912827455  0.2809866564214047  1.0000
  O   O2        1.0  0.5628141566473418  0.719019666992921  0.5186849213934295  1.0000
  O   O3        1.0  0.06279890472332994  0.5186773163798223  0.7190189465749339  1.0000
  O   O4        1.0  0.43718271210097737  0.28098566145678927  0.4813115280039  1.0000
  O   O5        1.0  0.8596273052695836  0.41648753580801673  0.43439776221951826  1.0000
  O   O6        1.0  0.6403704679177057  0.5656039298362786  0.5835212579200117  1.0000
  O   O7        1.0  0.1403712724586156  0.5835187602781103  0.5656061028965452  1.0000
  O   O8        1.0  0.3596266874492287  0.4343967875634291  0.41648728154113707  1.0000
  O   O9        1.0  0.9513589670672645  0.30993010974355434  0.04388110720432806  1.0000
  O   O10       1.0  0.5486393759246938  0.956117187417597  0.6900779750467905  1.0000
  O   O11       1.0  0.04862622933437419  0.6900667129050646  0.9560916482086482  1.0000
  O   O12       1.0  0.45136265885442844  0.0438909899628612  0.30992948699312  1.0000
  O   O13       1.0  0.03563052726581622  0.3350316717517501  0.8752992572415151  1.0000
  O   O14       1.0  0.46438276044471394  0.12469815373749074  0.6649687691880501  1.0000
  O   O15       1.0  0.964381464737592  0.6649567643536827  0.12468275008605191  1.0000
  O   O16       1.0  0.535616590757286  0.8753044119159413  0.3350362196468167  1.0000
  O   O17       1.0  0.30351427400484  0.5650435349091795  0.009175408699285006  1.0000
  O   O18       1.0  0.196496686869537  0.9908268456674776  0.43497231074802295  1.0000
  O   O19       1.0  0.6964929839383345  0.43496741251037474  0.9908266463094433  1.0000
  O   O20       1.0  0.8035069679123695  0.009176654050975203  0.5650336482652848  1.0000
  O   O21       1.0  0.2257197899856678  0.5423346026011516  0.18010077883403847  1.0000
  O   O22       1.0  0.2742775597381595  0.8198938495172358  0.4576741015466083  1.0000
  O   O23       1.0  0.7742697525060367  0.4576473438138678  0.819886211584361  1.0000
  O   O24       1.0  0.7257256812437304  0.18011155278729524  0.5423390733474989  1.0000
