data_image0
_chemical_formula_structural       Cd2H28C48N4O8
_chemical_formula_sum              "Cd2 H28 C48 N4 O8"
_cell_length_a       7.211858286375918
_cell_length_b       11.707377013850447
_cell_length_c       12.567706211696292
_cell_angle_alpha    117.75068205068222
_cell_angle_beta     97.95707268837599
_cell_angle_gamma    90.01720560934757

_space_group_name_H-M_alt    "P 1"
_space_group_IT_number       1

loop_
  _space_group_symop_operation_xyz
  'x, y, z'

loop_
  _atom_site_type_symbol
  _atom_site_label
  _atom_site_symmetry_multiplicity
  _atom_site_fract_x
  _atom_site_fract_y
  _atom_site_fract_z
  _atom_site_occupancy
  Cd  Cd1       1.0  0.25006291254342017  0.6137230554440124  5.669743259059082e-05  1.0000
  Cd  Cd2       1.0  0.7499350542234992  0.38627802989973514  0.9999407496774286  1.0000
  H   H1        1.0  0.9826757712786929  0.5687533926795184  0.745805784077263  1.0000
  H   H2        1.0  0.517479043614017  0.8230921070491277  0.2545472310956783  1.0000
  H   H3        1.0  0.017327693787486016  0.4312467274688886  0.2541956593916269  1.0000
  H   H4        1.0  0.4825161186638098  0.1769089640003117  0.7454555563987741  1.0000
  H   H5        1.0  0.8706182024299592  0.6906605356179586  0.6311751370229648  1.0000
  H   H6        1.0  0.6300309755620574  0.059583066862785514  0.36906054239185704  1.0000
  H   H7        1.0  0.12938236275100928  0.30933861472063034  0.3688240624700897  1.0000
  H   H8        1.0  0.3699640874989498  0.940417039104027  0.6309402261143192  1.0000
  H   H9        1.0  0.9755449566780355  0.9267813335420246  0.723915488321737  1.0000
  H   H10       1.0  0.5249155023948759  0.20303258764715792  0.27645041207406973  1.0000
  H   H11       1.0  0.024454307931378597  0.07321878088232132  0.27608482261266  1.0000
  H   H12       1.0  0.4750852617655497  0.7969684942234072  0.723552030342383  1.0000
  H   H13       1.0  0.1456130068054833  0.126450331503527  0.9019194952717772  1.0000
  H   H14       1.0  0.35446992934348737  0.22483367670618287  0.09855584905692892  1.0000
  H   H15       1.0  0.8543864584208264  0.873551718552982  0.09808167342659156  1.0000
  H   H16       1.0  0.6455281355486234  0.7751683709867196  0.9014452071476458  1.0000
  H   H17       1.0  0.7824752624042686  0.3403414191263892  0.6433343977308114  1.0000
  H   H18       1.0  0.7176788741525116  0.696855135539501  0.3570293271212608  1.0000
  H   H19       1.0  0.2175298057962607  0.6596606444847027  0.35666483578327074  1.0000
  H   H20       1.0  0.28232148986574396  0.303142077800196  0.6429698096609686  1.0000
  H   H21       1.0  0.7818052071580013  0.32759891304657174  0.44008580518244156  1.0000
  H   H22       1.0  0.7184339865764569  0.8874476896981637  0.5602258055843737  1.0000
  H   H23       1.0  0.21819716068259254  0.6724041136534001  0.5599136322260565  1.0000
  H   H24       1.0  0.28157027697322684  0.11254662591735351  0.4397731770864014  1.0000
  H   H25       1.0  0.3566625496239554  0.6108604875644021  0.7194126302957787  1.0000
  H   H26       1.0  0.14303852239179093  0.8914047780034414  0.2804698321185416  1.0000
  H   H27       1.0  0.6433369172397931  0.38914156659229354  0.2805861532431636  1.0000
  H   H28       1.0  0.8569619419349125  0.10859340315233372  0.7195297335456703  1.0000
  C   C1        1.0  0.02263694910222112  0.6715474515353181  0.7825370601804242  1.0000
  C   C2        1.0  0.47764517358622527  0.8891823887956323  0.21783205884851514  1.0000
  C   C3        1.0  0.977362415269823  0.32845362933837663  0.21746447468909486  1.0000
  C   C4        1.0  0.5223512898089807  0.11081771953478642  0.7821688221514481  1.0000
  C   C5        1.0  0.9616146233280957  0.740287308247659  0.7190148066616688  1.0000
  C   C6        1.0  0.5388542230335885  0.021417426732810402  0.28131490285556293  1.0000
  C   C7        1.0  0.03838484135239641  0.25971474044211373  0.2809871570898396  1.0000
  C   C8        1.0  0.4611479425526639  0.9785836602348117  0.7186860619483898  1.0000
  C   C9        1.0  0.018531405726257374  0.870218977115983  0.7703753241411211  1.0000
  C   C10       1.0  0.48185854593707234  0.10002441045329391  0.22999904943719687  1.0000
  C   C11       1.0  0.9814693595257964  0.1297821074880403  0.22962552816904502  1.0000
  C   C12       1.0  0.5181409181976022  0.8999776368697499  0.7700037093674512  1.0000
  C   C13       1.0  0.13371195043738035  0.931969376544402  0.8852586551830232  1.0000
  C   C14       1.0  0.36652916555943454  0.046937688834390215  0.11514702391058766  1.0000
  C   C15       1.0  0.8662860136004652  0.06803170196569401  0.11474276719271614  1.0000
  C   C16       1.0  0.6334690994037614  0.9530662931239464  0.884855685111106  1.0000
  C   C17       1.0  0.18998693337140082  0.8540514886392927  0.9416689489640366  1.0000
  C   C18       1.0  0.3102021430907413  0.9126047990485947  0.05875600164889526  1.0000
  C   C19       1.0  0.8100082299980611  0.14594958514360465  0.058332248424129325  1.0000
  C   C20       1.0  0.6897958214929218  0.08739628082823002  0.9412446256736974  1.0000
  C   C21       1.0  0.1932694762176439  0.0670229443878583  0.9449606021529608  1.0000
  C   C22       1.0  0.30686772252293787  0.12233720249820122  0.05549411292669502  1.0000
  C   C23       1.0  0.806728588674467  0.9329791033050513  0.05504045405161411  1.0000
  C   C24       1.0  0.6931288411807159  0.8776638736482956  0.9445071969552505  1.0000
  C   C25       1.0  0.5762982134587489  0.48869377436088984  0.8181963324471018  1.0000
  C   C26       1.0  0.923631608444488  0.670492088357662  0.18198217439567096  1.0000
  C   C27       1.0  0.4237008527170261  0.5113044098982161  0.1817999405107501  1.0000
  C   C28       1.0  0.0763674571854693  0.3295060945347075  0.8180148936153275  1.0000
  C   C29       1.0  0.5704411889905572  0.4788897509652942  0.6937324184488819  1.0000
  C   C30       1.0  0.9296383574753974  0.7850477417143156  0.3065011422986218  1.0000
  C   C31       1.0  0.4295609782331412  0.5211113401025218  0.3062661611956445  1.0000
  C   C32       1.0  0.07036320571434368  0.2149475369900884  0.6934980442665621  1.0000
  C   C33       1.0  0.6890141180492861  0.39624359897956657  0.6132519465797943  1.0000
  C   C34       1.0  0.8111947697073844  0.782829954400576  0.3870584571955791  1.0000
  C   C35       1.0  0.31098835009975545  0.6037603955364974  0.38674791971068617  1.0000
  C   C36       1.0  0.188806794573992  0.217165327037293  0.6129391392633183  1.0000
  C   C37       1.0  0.686888715293577  0.38857434411103514  0.5003662011622085  1.0000
  C   C38       1.0  0.8133168150612704  0.8881284006599023  0.4998829543355757  1.0000
  C   C39       1.0  0.3131151531896563  0.611429652768621  0.49963377762205874  1.0000
  C   C40       1.0  0.18668494929118398  0.11186881504339408  0.5001162949404334  1.0000
  C   C41       1.0  0.5617662975554935  0.45939095384119366  0.4599758260957717  1.0000
  C   C42       1.0  0.9383385286097765  0.9993712554368701  0.5400741094687975  1.0000
  C   C43       1.0  0.43823596997665254  0.5406111050427074  0.5400231824307442  1.0000
  C   C44       1.0  0.06166313488841269  0.0006249910836189003  0.4599255059783759  1.0000
  C   C45       1.0  0.44800510359967655  0.5491522456750461  0.6568819753222787  1.0000
  C   C46       1.0  0.05193528628322504  0.8922240519478922  0.3431503737970375  1.0000
  C   C47       1.0  0.5519958639067113  0.4508507786613266  0.34311734959243284  1.0000
  C   C48       1.0  0.9480621773040099  0.10777219021525752  0.6568473140624892  1.0000
  N   N1        1.0  0.1343893823332607  0.7267163117197061  0.8895572471181556  1.0000
  N   N2        1.0  0.3657779708404405  0.8373841348886661  0.1108578329424646  1.0000
  N   N3        1.0  0.8656085827962201  0.2732847695238549  0.11044258515129717  1.0000
  N   N4        1.0  0.6342213940774216  0.16261694735175788  0.8891429068739146  1.0000
  O   O1        1.0  0.5222291373430038  0.5892452251397843  0.901199300483626  1.0000
  O   O2        1.0  0.9779477669885495  0.688084998113716  0.09903401432556076  1.0000
  O   O3        1.0  0.47777242693836536  0.41075005629807776  0.09879829597527146  1.0000
  O   O4        1.0  0.02204999697821111  0.31191414613094554  0.9009657552330598  1.0000
  O   O5        1.0  0.6382275303739674  0.39080256635073607  0.8274675065413749  1.0000
  O   O6        1.0  0.861371382869514  0.563321940347713  0.17257195056139113  1.0000
  O   O7        1.0  0.36177263630228396  0.6091927195571858  0.17252600215802275  1.0000
  O   O8        1.0  0.1386304834288339  0.4366762472718549  0.8274253424371739  1.0000
