data_image0
_chemical_formula_structural       Ag2H40C48N8O4
_chemical_formula_sum              "Ag2 H40 C48 N8 O4"
_cell_length_a       8.229302410962257
_cell_length_b       11.356668849482466
_cell_length_c       11.694633698444274
_cell_angle_alpha    82.65273064375474
_cell_angle_beta     82.46196330793636
_cell_angle_gamma    70.22259906746211

_space_group_name_H-M_alt    "P 1"
_space_group_IT_number       1

loop_
  _space_group_symop_operation_xyz
  'x, y, z'

loop_
  _atom_site_type_symbol
  _atom_site_label
  _atom_site_symmetry_multiplicity
  _atom_site_fract_x
  _atom_site_fract_y
  _atom_site_fract_z
  _atom_site_occupancy
  Ag  Ag1       1.0  0.01072777675909717  0.512891489198367  0.8786576761077  1.0000
  Ag  Ag2       1.0  0.989260921797303  0.487115028552367  0.12134081224967018  1.0000
  H   H1        1.0  0.19052332147840187  0.0849037808055968  0.8551439428073165  1.0000
  H   H2        1.0  0.8094809504366722  0.9150979120787068  0.14485276450739087  1.0000
  H   H3        1.0  0.2799484174745075  0.2547970927495129  0.7304272827302397  1.0000
  H   H4        1.0  0.7200428117088007  0.7452065577448936  0.2695772935283642  1.0000
  H   H5        1.0  0.16953674076579273  0.8727217650288778  0.8404940332082872  1.0000
  H   H6        1.0  0.830467122763899  0.1272808672681265  0.15950259986818338  1.0000
  H   H7        1.0  0.3148461472833333  0.12992859441013851  0.4481371944365263  1.0000
  H   H8        1.0  0.6851573172310594  0.8700693544705443  0.5518617552089751  1.0000
  H   H9        1.0  0.40154659047708197  0.09256899839469669  0.025256785487840692  1.0000
  H   H10       1.0  0.5984466015734143  0.9074328033709664  0.9747409834172983  1.0000
  H   H11       1.0  0.015709852489095455  0.6818445096509153  0.7004138091318238  1.0000
  H   H12       1.0  0.9842895481664937  0.31815720525347774  0.2995876436730142  1.0000
  H   H13       1.0  0.9191110825511688  0.6601400541184433  0.5805391259255046  1.0000
  H   H14       1.0  0.08088706107340474  0.339864494847042  0.4194595399613306  1.0000
  H   H15       1.0  0.2363540234400788  0.791765011594606  0.6685002639707277  1.0000
  H   H16       1.0  0.763642140752438  0.2082385852337581  0.3315046952043375  1.0000
  H   H17       1.0  0.3495268548560305  0.9443487506158023  0.5439677774440311  1.0000
  H   H18       1.0  0.6504754057521255  0.05565200595435021  0.4560326589556212  1.0000
  H   H19       1.0  0.4945346342784092  0.6404140924948224  0.23789253831744614  1.0000
  H   H20       1.0  0.505463508091303  0.35958483891595716  0.7621076636422186  1.0000
  H   H21       1.0  0.3167124617693912  0.9319194778074691  0.1566607326367802  1.0000
  H   H22       1.0  0.6832881049776631  0.0680766390902363  0.8433370098798108  1.0000
  H   H23       1.0  0.4534900255002086  0.2803311690469812  0.5131277537779368  1.0000
  H   H24       1.0  0.5465007243532014  0.7196650288111927  0.4868734965778854  1.0000
  H   H25       1.0  0.4071753485676552  0.28717684859033454  0.3158276447213594  1.0000
  H   H26       1.0  0.5928211330706928  0.7128230448797341  0.6841708914856994  1.0000
  H   H27       1.0  0.30909713943316325  0.5320614271844377  0.4422738751506614  1.0000
  H   H28       1.0  0.6908977014688701  0.46793380024156755  0.5577262408454827  1.0000
  H   H29       1.0  0.6755461382187844  0.41169748219308394  0.14788472964945504  1.0000
  H   H30       1.0  0.32445118144024576  0.588300521902923  0.8521156645029391  1.0000
  H   H31       1.0  0.9862261285033682  0.7445553317246552  0.3855238571883817  1.0000
  H   H32       1.0  0.013781480184420004  0.25544162035222945  0.6144782317696098  1.0000
  H   H33       1.0  0.5923260956231573  0.2687371830052001  0.04218851906020404  1.0000
  H   H34       1.0  0.4076724504468884  0.7312636204073899  0.9578105617340639  1.0000
  H   H35       1.0  0.3767833338946857  0.31752343728998517  0.00146765602605831  1.0000
  H   H36       1.0  0.6232172812920992  0.682475464650615  0.9985331647590525  1.0000
  H   H37       1.0  0.15276894784931022  0.6724794236296603  0.20985685544385285  1.0000
  H   H38       1.0  0.8472291838954433  0.32751951305544946  0.7901424917813812  1.0000
  H   H39       1.0  0.0979227478185435  0.8976825589556798  0.25984310649138104  1.0000
  H   H40       1.0  0.9020856457651476  0.10231253011877328  0.7401565667397846  1.0000
  C   C1        1.0  0.1065771066834742  0.04720694250841011  0.9180097188415316  1.0000
  C   C2        1.0  0.89342965929859  0.9527947103570542  0.08198931676749044  1.0000
  C   C3        1.0  0.0103459927737788  0.1202569608875379  0.007346806570865298  1.0000
  C   C4        1.0  0.9896644771214366  0.8797446504098121  0.9926527299091105  1.0000
  C   C5        1.0  0.26446543392835753  0.3369395832581504  0.6686345140775386  1.0000
  C   C6        1.0  0.7355270051011047  0.6630640656869745  0.3313682347577185  1.0000
  C   C7        1.0  0.3068516620103452  0.018823559560210902  0.3132519212296003  1.0000
  C   C8        1.0  0.6931510116682347  0.9811734461827157  0.6867497848119227  1.0000
  C   C9        1.0  0.23731718820428682  0.9299774345860855  0.39068274202808323  1.0000
  C   C10       1.0  0.762690012098119  0.07002045690350661  0.609319272691671  1.0000
  C   C11       1.0  0.09607577392977619  0.9286772114454395  0.9106038755814864  1.0000
  C   C12       1.0  0.9039281214747774  0.07132540502858832  0.08939532169828367  1.0000
  C   C13       1.0  0.10723639504931269  0.7553518383801646  0.5346487922072213  1.0000
  C   C14       1.0  0.892769601346849  0.24464886079889692  0.4653547092666841  1.0000
  C   C15       1.0  0.022855061087952287  0.2481577190622987  0.014730622005011192  1.0000
  C   C16       1.0  0.9771431037865309  0.7518468193545405  0.9852697533506853  1.0000
  C   C17       1.0  0.338759370752669  0.11848023570873782  0.35557743055557006  1.0000
  C   C18       1.0  0.6612436747513826  0.8815186578589759  0.6444205901172637  1.0000
  C   C19       1.0  0.41129208403413026  0.20103041381911882  0.16103485002945206  1.0000
  C   C20       1.0  0.588707257556777  0.7989685213167094  0.8389626697724278  1.0000
  C   C21       1.0  0.3871151678497212  0.09894592459107096  0.11844949132311197  1.0000
  C   C22       1.0  0.6128842268659581  0.901052984173134  0.8815523021509291  1.0000
  C   C23       1.0  0.04081405540262754  0.6605770303682235  0.6093518415818266  1.0000
  C   C24       1.0  0.9591840869670775  0.33942190104255593  0.3906483603778383  1.0000
  C   C25       1.0  0.2071177674046182  0.8145431698575367  0.5783564641498913  1.0000
  C   C26       1.0  0.7928869707056592  0.18545474582791147  0.42164578647884093  1.0000
  C   C27       1.0  0.2701814157204083  0.9010405311392162  0.5078274171271386  1.0000
  C   C28       1.0  0.7298237367151615  0.09895925127371903  0.49217456707063423  1.0000
  C   C29       1.0  0.4434878871153741  0.5780872730383635  0.20251353423305568  1.0000
  C   C30       1.0  0.5565086263978429  0.4219126046087284  0.7974875661772954  1.0000
  C   C31       1.0  0.33678211738373404  0.009261158019398898  0.19289383191193823  1.0000
  C   C32       1.0  0.6632230031769737  0.9907386402165058  0.8071055880825355  1.0000
  C   C33       1.0  0.35041922314788104  0.3510860636940549  0.5580980627925313  1.0000
  C   C34       1.0  0.6495739888976573  0.6489101099682558  0.44190295165429916  1.0000
  C   C35       1.0  0.3901695709819748  0.2081021337399491  0.2807104190576979  1.0000
  C   C36       1.0  0.6098289903980714  0.7918958529837996  0.7192907118746348  1.0000
  C   C37       1.0  0.2819260156696331  0.47800613265372494  0.5213793684635206  1.0000
  C   C38       1.0  0.7180651331990687  0.5219947486207703  0.478619565323271  1.0000
  C   C39       1.0  0.5374137848551542  0.46337119100250135  0.15931842086172304  1.0000
  C   C40       1.0  0.4625839385042098  0.536628685095316  0.8406808521252813  1.0000
  C   C41       1.0  0.06874686437728868  0.7870678389042356  0.41942579320543427  1.0000
  C   C42       1.0  0.9312594872794833  0.21293194723374143  0.5805735088345471  1.0000
  C   C43       1.0  0.4545005627798488  0.30019320281583367  0.07534208652030826  1.0000
  C   C44       1.0  0.5454971499545633  0.699806678556307  0.9246563317322583  1.0000
  C   C45       1.0  0.2695923350492676  0.5955319280350652  0.18856208076146427  1.0000
  C   C46       1.0  0.7304049799247139  0.4044688874754599  0.811437117987296  1.0000
  C   C47       1.0  0.13283728776242035  0.872631086022004  0.34857600203789463  1.0000
  C   C48       1.0  0.8671707186857984  0.1273649319165031  0.6514253064239027  1.0000
  N   N1        1.0  0.42080646432444263  0.41899565470543376  0.12281991183110108  1.0000
  N   N2        1.0  0.5791912484099698  0.5810042266667068  0.8771785064214653  1.0000
  N   N3        1.0  0.15102107753676117  0.44774027856783494  0.6980826699991026  1.0000
  N   N4        1.0  0.8489770920227642  0.5522614484344857  0.3019189007602279  1.0000
  N   N5        1.0  0.16393479799331345  0.5323241330138729  0.6078199647235749  1.0000
  N   N6        1.0  0.8360621085952856  0.46767762190935275  0.39217915978694856  1.0000
  N   N7        1.0  0.2564329761944961  0.49844904904783516  0.14046827519425156  1.0000
  N   N8        1.0  0.7435647471648749  0.5015508270499753  0.8595309977927457  1.0000
  O   O1        1.0  0.12186691312808763  0.2865137303470533  0.9378998436529216  1.0000
  O   O2        1.0  0.8781312151864924  0.7134936353072732  0.06209677209584904  1.0000
  O   O3        1.0  0.9309138766930616  0.3092011824927923  0.0987263978029489  1.0000
  O   O4        1.0  0.06908096077879823  0.6908024739024229  0.9012709867167314  1.0000
