data_image0
_chemical_formula_structural       K4H40C20S8N4O8
_chemical_formula_sum              "K4 H40 C20 S8 N4 O8"
_cell_length_a       6.613477498019632
_cell_length_b       8.055123708037497
_cell_length_c       17.173811000034824
_cell_angle_alpha    90.00012104737671
_cell_angle_beta     89.99977272569349
_cell_angle_gamma    108.83366531506051

_space_group_name_H-M_alt    "P 1"
_space_group_IT_number       1

loop_
  _space_group_symop_operation_xyz
  'x, y, z'

loop_
  _atom_site_type_symbol
  _atom_site_label
  _atom_site_symmetry_multiplicity
  _atom_site_fract_x
  _atom_site_fract_y
  _atom_site_fract_z
  _atom_site_occupancy
  K   K1        1.0  0.30423003850879826  0.5191459372415679  0.7543555981909333  1.0000
  K   K2        1.0  0.6957612410462914  0.9808546195401463  0.254352938290573  1.0000
  K   K3        1.0  0.695759418948299  0.4808544105298012  0.2456446600011616  1.0000
  K   K4        1.0  0.3042348647107361  0.0191549060908898  0.7456432439274465  1.0000
  H   H1        1.0  0.7243993103723411  0.9364789899443837  0.6971497780599805  1.0000
  H   H2        1.0  0.2756030047931687  0.5635135697059823  0.19715025583494136  1.0000
  H   H3        1.0  0.2756000380825157  0.0635042849812208  0.3028516446797909  1.0000
  H   H4        1.0  0.7243945697110944  0.43649201707308544  0.8028482555077259  1.0000
  H   H5        1.0  0.12388459438855651  0.11932541774915961  0.4153608884423789  1.0000
  H   H6        1.0  0.8761100267110605  0.3806776605917365  0.9153607032065378  1.0000
  H   H7        1.0  0.8761169960804125  0.8806788516009477  0.5846387874604202  1.0000
  H   H8        1.0  0.12388746269475348  0.6193200523177964  0.08463780813222849  1.0000
  H   H9        1.0  0.30408876544790786  0.3166494376477189  0.45617764864147137  1.0000
  H   H10       1.0  0.6959105211082814  0.1833550249709148  0.9561781242587911  1.0000
  H   H11       1.0  0.6959143363202855  0.6833548297846335  0.5438237741059806  1.0000
  H   H12       1.0  0.3040855420636888  0.8166505637326154  0.04382562762251039  1.0000
  H   H13       1.0  0.7013574692636765  0.8295245938854523  0.7742025288606909  1.0000
  H   H14       1.0  0.29864968626764465  0.6704707312823643  0.2742024966380114  1.0000
  H   H15       1.0  0.2986499962273186  0.1704639200500964  0.22579947615741247  1.0000
  H   H16       1.0  0.7013513862546078  0.3295322263948463  0.7257960147006414  1.0000
  H   H17       1.0  0.08893974407720147  0.48994542168428984  0.4041201491620753  1.0000
  H   H18       1.0  0.9110529541925698  0.010056325320654504  0.9041172076256316  1.0000
  H   H19       1.0  0.9110562765593287  0.5100562300816803  0.5958806913075775  1.0000
  H   H20       1.0  0.08893896536701351  0.9899387700075408  0.09588537968969038  1.0000
  H   H21       1.0  0.14677100710819962  0.36226621868677006  0.3272588241533966  1.0000
  H   H22       1.0  0.85322500857027  0.13774193911266513  0.8272566825459149  1.0000
  H   H23       1.0  0.8532270853345238  0.6377406797668711  0.6727425985992426  1.0000
  H   H24       1.0  0.14676539968733943  0.8622531581338464  0.17274474020668854  1.0000
  H   H25       1.0  0.5471794059707874  0.19926642922492732  0.419023738632248  1.0000
  H   H26       1.0  0.4528196718394497  0.3007327134523621  0.9190206306987461  1.0000
  H   H27       1.0  0.4528220568449939  0.8007260293220001  0.58097710182858  1.0000
  H   H28       1.0  0.5471798893835781  0.6992702461426036  0.08097613379524657  1.0000
  H   H29       1.0  0.7326867143673966  0.39420183375669643  0.4578502538731683  1.0000
  H   H30       1.0  0.2673094912037186  0.10579869897446059  0.9578478173676785  1.0000
  H   H31       1.0  0.2673087032129331  0.6057906324690805  0.5421517511562044  1.0000
  H   H32       1.0  0.7326930926122373  0.8942042567861109  0.04215360537951799  1.0000
  H   H33       1.0  0.6919563148886282  0.15235981039160862  0.5507468419489496  1.0000
  H   H34       1.0  0.308046291965745  0.34764256217133754  0.05074522690438239  1.0000
  H   H35       1.0  0.30804467252690426  0.847635273417744  0.4492534162316274  1.0000
  H   H36       1.0  0.6919598749831832  0.6523656383535582  0.9492527021510497  1.0000
  H   H37       1.0  0.738799901321677  0.015468886517517398  0.4752958076167884  1.0000
  H   H38       1.0  0.2612027022660327  0.4845329837026923  0.9752949266402595  1.0000
  H   H39       1.0  0.2612005681416106  0.9845248856200612  0.5247044505635259  1.0000
  H   H40       1.0  0.73880191082894  0.5154712818063132  0.024702420132442192  1.0000
  C   C1        1.0  0.09774341551651841  0.23889232098985505  0.5840136924054136  1.0000
  C   C2        1.0  0.9022538245228944  0.261108809528409  0.08401224013491058  1.0000
  C   C3        1.0  0.9022475107043563  0.7611040879261922  0.41598540121968597  1.0000
  C   C4        1.0  0.09775942356045417  0.7389020066623075  0.9159856889163933  1.0000
  C   C5        1.0  0.13706486858237804  0.24821883918066584  0.4407431953079523  1.0000
  C   C6        1.0  0.8629310235264922  0.25178428597244823  0.9407434827847181  1.0000
  C   C7        1.0  0.8629301161606974  0.7517801892395115  0.5592553160334077  1.0000
  C   C8        1.0  0.13707363210392723  0.7482239164741172  0.05925677539963909  1.0000
  C   C9        1.0  0.06029474421991668  0.3555244273177394  0.3822431886973802  1.0000
  C   C10       1.0  0.9397042489282084  0.1444812069452368  0.8822426676196569  1.0000
  C   C11       1.0  0.9397088329623099  0.644477214849381  0.6177559049206207  1.0000
  C   C12       1.0  0.06029172916184676  0.8555165078854116  0.11775759056609299  1.0000
  C   C13       1.0  0.7146767049742522  0.2619038044228362  0.43533626984993384  1.0000
  C   C14       1.0  0.2853176844780235  0.2380953753317385  0.9353339389096149  1.0000
  C   C15       1.0  0.28531568999937207  0.7380886656401344  0.5646639883359369  1.0000
  C   C16       1.0  0.7146783361722839  0.7619062764314322  0.0646639901503292  1.0000
  C   C17       1.0  0.7789294111760299  0.1517939202175427  0.4964786801286678  1.0000
  C   C18       1.0  0.2210694938571365  0.3482106197726367  0.9964771412993086  1.0000
  C   C19       1.0  0.22107308755249722  0.8482011616712626  0.5035204134868607  1.0000
  C   C20       1.0  0.7789336504823298  0.651797584590007  0.0035196231945775  1.0000
  S   S1        1.0  0.9352228483741882  0.1957712208685507  0.666097311352523  1.0000
  S   S2        1.0  0.06477456537934502  0.30422481671529067  0.16609602701016257  1.0000
  S   S3        1.0  0.06477157586191137  0.8042225589462078  0.3339023645505037  1.0000
  S   S4        1.0  0.9352401514539963  0.6957820606229035  0.8339036488838473  1.0000
  S   S5        1.0  0.3685281998148469  0.30435125300622456  0.5954099391279825  1.0000
  S   S6        1.0  0.6314684143843934  0.19564858771956042  0.09540825542087818  1.0000
  S   S7        1.0  0.6314682962219322  0.6956477734973207  0.40459148362192104  1.0000
  S   S8        1.0  0.368544358276651  0.8043648537380578  0.9045937496056948  1.0000
  N   N1        1.0  0.008754715644961723  0.22052504675475154  0.51196684254014  1.0000
  N   N2        1.0  0.9912457536820654  0.27947856686505196  0.0119646895190542  1.0000
  N   N3        1.0  0.991247825610742  0.7794739720732906  0.4880369093328694  1.0000
  N   N4        1.0  0.008754843420632551  0.7205270160785062  0.9880373155129331  1.0000
  O   O1        1.0  0.8370289446228864  0.2766157258752954  0.3647304218027685  1.0000
  O   O2        1.0  0.16296766711004548  0.22338725334054743  0.8647294289298697  1.0000
  O   O3        1.0  0.16297260329410077  0.7233846065406057  0.6352698363800187  1.0000
  O   O4        1.0  0.8370211872936083  0.7766039088900669  0.13527141154001035  1.0000
  O   O5        1.0  0.6205301080695873  0.8426008946982507  0.727777840794559  1.0000
  O   O6        1.0  0.3794793885580033  0.6573838402917288  0.22778232923656105  1.0000
  O   O7        1.0  0.37948314737528926  0.1573639899470436  0.2722200882335953  1.0000
  O   O8        1.0  0.6205187464477291  0.3426269950938802  0.7722161821083161  1.0000
