data_image0
_chemical_formula_structural       CoH20C20N2O8
_chemical_formula_sum              "Co1 H20 C20 N2 O8"
_cell_length_a       5.667167333536884
_cell_length_b       7.93697525823224
_cell_length_c       10.608381831171805
_cell_angle_alpha    108.66444917100955
_cell_angle_beta     94.83196510694981
_cell_angle_gamma    98.61020062116717

_space_group_name_H-M_alt    "P 1"
_space_group_IT_number       1

loop_
  _space_group_symop_operation_xyz
  'x, y, z'

loop_
  _atom_site_type_symbol
  _atom_site_label
  _atom_site_symmetry_multiplicity
  _atom_site_fract_x
  _atom_site_fract_y
  _atom_site_fract_z
  _atom_site_occupancy
  Co  Co1       1.0  0.9999985398982857  1.3709616907999314e-06  1.1761290607729767e-06  1.0000
  H   H1        1.0  0.7835861792964778  0.7591635396835128  0.056998466719789934  1.0000
  H   H2        1.0  0.21641279170913924  0.24083416575852815  0.942999892214047  1.0000
  H   H3        1.0  0.5776554746230572  0.8852358038352858  0.06630082459987817  1.0000
  H   H4        1.0  0.42234766047215533  0.11476465107040919  0.9337002690398322  1.0000
  H   H5        1.0  0.8750129361956097  0.009543020321594  0.39595630849184  1.0000
  H   H6        1.0  0.12498455041105673  0.9904560752847118  0.6040441725043664  1.0000
  H   H7        1.0  0.13940332198131242  0.7617440137154787  0.383391053611092  1.0000
  H   H8        1.0  0.8605933021428598  0.23824421621731764  0.6166050246688712  1.0000
  H   H9        1.0  0.24351608270224998  0.5435990103958942  0.23126952693079517  1.0000
  H   H10       1.0  0.756483583138156  0.4564013831319187  0.7687285376851349  1.0000
  H   H11       1.0  0.40193336647953964  0.5326122482011754  0.09227988220024488  1.0000
  H   H12       1.0  0.5980647177463467  0.4673746107699299  0.9077150199506647  1.0000
  H   H13       1.0  0.6784705209241082  0.8696499374117649  0.747468769580145  1.0000
  H   H14       1.0  0.3215350776195791  0.1303465179392873  0.25253437566026804  1.0000
  H   H15       1.0  0.6622152869801569  0.6515011505471832  0.5215148007931063  1.0000
  H   H16       1.0  0.33777851415616317  0.34850474602995957  0.47848891427236134  1.0000
  H   H17       1.0  0.6659269839083208  0.4712923429125907  0.33636413694741657  1.0000
  H   H18       1.0  0.3340694046222197  0.5287161476224823  0.6636346497455747  1.0000
  H   H19       1.0  0.6714578612550214  0.24206149047599715  0.1204661950772632  1.0000
  H   H20       1.0  0.32854692588684037  0.7579457518531709  0.879537473534235  1.0000
  C   C1        1.0  0.7111521624468226  0.0066527785963189  0.44244373104261564  1.0000
  C   C2        1.0  0.288858010779883  0.9933394102490068  0.557548318344196  1.0000
  C   C3        1.0  0.5120159004117113  0.8703336167521697  0.3763003033705914  1.0000
  C   C4        1.0  0.487972825558046  0.12965870309297148  0.623698166139377  1.0000
  C   C5        1.0  0.2986166538810337  0.8645232370415454  0.4338713152516718  1.0000
  C   C6        1.0  0.7013930869145854  0.1354826765012405  0.5661332603212443  1.0000
  C   C7        1.0  0.33614264855880543  0.6248819057594871  0.17725179741216826  1.0000
  C   C8        1.0  0.6638505767693273  0.3751145171934879  0.8227497326113705  1.0000
  C   C9        1.0  0.15747450270074384  0.720314389489566  0.12282634438055604  1.0000
  C   C10       1.0  0.8425227215288518  0.2796832948648174  0.8771709730080488  1.0000
  C   C11       1.0  0.8203203794138645  0.7911664559254915  0.7239579615116511  1.0000
  C   C12       1.0  0.179664160655264  0.20884482471535648  0.2760455371796695  1.0000
  C   C13       1.0  0.8138764451832189  0.6664389131236347  0.5968229283534755  1.0000
  C   C14       1.0  0.1861298967897227  0.3335601919080275  0.4031780307024206  1.0000
  C   C15       1.0  0.9997498911106604  0.5665029063035687  0.567098536393722  1.0000
  C   C16       1.0  0.00023546527943099781  0.43351096641013237  0.43289993831318446  1.0000
  C   C17       1.0  0.8146562086663066  0.3980696730325803  0.3262324969823567  1.0000
  C   C18       1.0  0.18535724192352626  0.6019444218680902  0.6737769668485852  1.0000
  C   C19       1.0  0.8165407372594302  0.26910960979575543  0.2021571108040234  1.0000
  C   C20       1.0  0.18344057406766717  0.7308947279158884  0.7978361498371598  1.0000
  N   N1        1.0  0.0037462011089672165  0.8262515353888413  0.8248195241752613  1.0000
  N   N2        1.0  0.9962745232326284  0.1737490343804851  0.17518725525034992  1.0000
  O   O1        1.0  0.7033818677956775  0.8399636868297479  0.012176865533810062  1.0000
  O   O2        1.0  0.29661983149505744  0.16003811983505042  0.9878244583016668  1.0000
  O   O3        1.0  0.545673962327136  0.7462747030206741  0.2580113386990064  1.0000
  O   O4        1.0  0.4543268526434403  0.2537229466986872  0.7419842780468642  1.0000
  O   O5        1.0  0.936721690110737  0.6527807047611203  0.10931464073097166  1.0000
  O   O6        1.0  0.06328056066432447  0.34721559319913087  0.8906807458191467  1.0000
  O   O7        1.0  0.2452929367025547  0.8595098587854861  0.09404633256480818  1.0000
  O   O8        1.0  0.7547070401093947  0.1404919075890803  0.9059530037921277  1.0000
