data_image0
_chemical_formula_structural       Cd6H78C108N18O24
_chemical_formula_sum              "Cd6 H78 C108 N18 O24"
_cell_length_a       11.777449175000411
_cell_length_b       25.593630997595124
_cell_length_c       25.593682376860134
_cell_angle_alpha    120.00005106979144
_cell_angle_beta     90.0000259659577
_cell_angle_gamma    90.00000022320565

_space_group_name_H-M_alt    "P 1"
_space_group_IT_number       1

loop_
  _space_group_symop_operation_xyz
  'x, y, z'

loop_
  _atom_site_type_symbol
  _atom_site_label
  _atom_site_symmetry_multiplicity
  _atom_site_fract_x
  _atom_site_fract_y
  _atom_site_fract_z
  _atom_site_occupancy
  Cd  Cd1       1.0  0.9999995097639809  0.5262722014271545  0.5884815293013972  1.0000
  Cd  Cd2       1.0  2.326949442e-07  0.06220862029635303  0.4737276709600806  1.0000
  Cd  Cd3       1.0  0.999996285118769  0.41151904898740815  0.9377904884488617  1.0000
  Cd  Cd4       1.0  0.9999994228571866  0.47372766465203836  0.41151848873069946  1.0000
  Cd  Cd5       1.0  0.9999969317162325  0.9377916247159063  0.5262717552751044  1.0000
  Cd  Cd6       1.0  0.9999975530203072  0.5884814938426359  0.06220885283401162  1.0000
  H   H1        1.0  0.2062036978061528  0.6125272043240029  0.6178528676707131  1.0000
  H   H2        1.0  0.41626616360306196  0.6166775083618531  0.6203636422875862  1.0000
  H   H3        1.0  0.4145187205134421  0.422912444417676  0.5471644516987055  1.0000
  H   H4        1.0  0.2045938069215296  0.4277307305480703  0.5471020002871044  1.0000
  H   H5        1.0  0.20620358498604924  0.005325639519455131  0.3874720514144201  1.0000
  H   H6        1.0  0.4162660475139361  0.0036855497993001354  0.3833216891169897  1.0000
  H   H7        1.0  0.41451788631079006  0.12425167370300017  0.5770866722490169  1.0000
  H   H8        1.0  0.2045921213079751  0.119371272545628  0.5722685242106209  1.0000
  H   H9        1.0  0.2062030339861209  0.38214704797425697  0.9946728915845214  1.0000
  H   H10       1.0  0.41626549935893553  0.37963396278574624  0.9963123584985425  1.0000
  H   H11       1.0  0.4145188819211327  0.4528345257821654  0.8757472862180721  1.0000
  H   H12       1.0  0.20459227260017343  0.45289821865225827  0.8806285181017657  1.0000
  H   H13       1.0  0.20620273306179374  0.3874724423830499  0.3821454689044614  1.0000
  H   H14       1.0  0.41626689455689814  0.3833213872479887  0.37963397192670106  1.0000
  H   H15       1.0  0.41451867407935333  0.57708639049455  0.45283400391151224  1.0000
  H   H16       1.0  0.20459376055487868  0.5722688554813686  0.4528971777229246  1.0000
  H   H17       1.0  0.2062045440429259  0.9946731048527581  0.6125271874923327  1.0000
  H   H18       1.0  0.4162661615668384  0.9963110899730764  0.6166781809255257  1.0000
  H   H19       1.0  0.41451781012180794  0.8757479426538666  0.42291256480466904  1.0000
  H   H20       1.0  0.20459289892771435  0.880629546095868  0.4277309840770941  1.0000
  H   H21       1.0  0.2062025478023273  0.6178533197323829  0.005327068321769015  1.0000
  H   H22       1.0  0.41626501156115847  0.6203652026560816  0.0036873302122942195  1.0000
  H   H23       1.0  0.4145193617527241  0.5471658720196402  0.12425273227968604  1.0000
  H   H24       1.0  0.20459359671613697  0.547101923238074  0.11937166693456906  1.0000
  H   H25       1.0  0.7937951647648093  0.3874723196887259  0.38214493523347676  1.0000
  H   H26       1.0  0.5837335480480021  0.3833216249285627  0.37963376989487335  1.0000
  H   H27       1.0  0.5854792929781283  0.577087575010907  0.4528352001194379  1.0000
  H   H28       1.0  0.7954059047309342  0.5722694540192774  0.4528982678359696  1.0000
  H   H29       1.0  0.7937961266657254  0.9946735984644944  0.6125268189602552  1.0000
  H   H30       1.0  0.5837336641384  0.9963125602659486  0.616678309171853  1.0000
  H   H31       1.0  0.5854809762611097  0.8757475038357825  0.4229130400130574  1.0000
  H   H32       1.0  0.7954058921834886  0.8806289724667024  0.42773090202468483  1.0000
  H   H33       1.0  0.7937966776662364  0.6178533621768239  0.005327150955714881  1.0000
  H   H34       1.0  0.5837342122930664  0.620364824030723  0.0036869630417938936  1.0000
  H   H35       1.0  0.5854808297311394  0.5471652680627983  0.1242525911831436  1.0000
  H   H36       1.0  0.7954065899718047  0.5471015751926487  0.11937135929932907  1.0000
  H   H37       1.0  0.7937986767507111  0.6125257281274299  0.617853687497096  1.0000
  H   H38       1.0  0.5837362134166638  0.6166781810134834  0.6203661310578212  1.0000
  H   H39       1.0  0.5854801884925749  0.42291194515437514  0.5471657687943791  1.0000
  H   H40       1.0  0.7954059510967396  0.4277291498903394  0.5471013623737022  1.0000
  H   H41       1.0  0.7937968657698208  0.005326914576066537  0.3874724643262866  1.0000
  H   H42       1.0  0.5837343991657847  0.0036870200922364646  0.38332181736343784  1.0000
  H   H43       1.0  0.5854810524501701  0.1242518511910403  0.5770873125964258  1.0000
  H   H44       1.0  0.7954068127247211  0.11937148036133743  0.5722692236021629  1.0000
  H   H45       1.0  0.793795465689854  0.3821470299734741  0.9946738161057526  1.0000
  H   H46       1.0  0.5837330019309093  0.37963537263351543  0.9963133286323969  1.0000
  H   H47       1.0  0.5854795008195239  0.4528349288537611  0.8757477009822879  1.0000
  H   H48       1.0  0.7954061149365473  0.45289781016179376  0.8806290523541663  1.0000
  H   H49       1.0  0.9999985915601073  0.6183336507593251  0.44789129721190335  1.0000
  H   H50       1.0  0.9999977292820148  0.7463871937354296  0.42118200470507366  1.0000
  H   H51       1.0  0.999991768380234  0.6651172114084002  0.3857885223916213  1.0000
  H   H52       1.0  3.073576522000001e-07  0.8248257359171232  0.6266268373694787  1.0000
  H   H53       1.0  0.999999535340315  0.7340796210866144  0.6407937638800407  1.0000
  H   H54       1.0  1.8701172169999994e-07  0.8295602788179435  0.381667460946467  1.0000
  H   H55       1.0  0.9999976470022887  0.6747955947265041  0.25361435153938333  1.0000
  H   H56       1.0  0.9999976869019064  0.7206736048046805  0.3348858431241267  1.0000
  H   H57       1.0  8.558263429999993e-08  0.8017996184443631  0.1751741607336754  1.0000
  H   H58       1.0  1.301018102e-07  0.9067147077750802  0.26592023286629285  1.0000
  H   H59       1.0  0.9999993043748319  0.5521085698725796  0.1704415353556286  1.0000
  H   H60       1.0  4.4048233292000006e-06  0.5788173504571077  0.3252047349059098  1.0000
  H   H61       1.0  9.4767459373e-06  0.6142117274852623  0.27932822807811425  1.0000
  H   H62       1.0  2.644389788e-06  0.3733730167546056  0.19819909078579204  1.0000
  H   H63       1.0  8.946964201000001e-07  0.3592053471007333  0.09328656305130786  1.0000
  H   H64       1.0  1.1200918664e-06  0.38166597794700147  0.5521079638846231  1.0000
  H   H65       1.0  2.842098894e-07  0.2536121489419329  0.5788183238615687  1.0000
  H   H66       1.0  0.9999995225181592  0.33488372214383577  0.6142112096127548  1.0000
  H   H67       1.0  1.8332563909999994e-07  0.17517336938750108  0.3733727342618351  1.0000
  H   H68       1.0  0.9999993972804758  0.2659194635478173  0.3592054727083465  1.0000
  H   H69       1.0  0.9999986755608888  0.17044214539006916  0.6183336933154067  1.0000
  H   H70       1.0  0.9999995874595838  0.32520554821324044  0.7463882968502561  1.0000
  H   H71       1.0  0.9999995475606268  0.2793293266083126  0.6651181425700942  1.0000
  H   H72       1.0  0.9999987769896779  0.19819949864931616  0.8248263934159183  1.0000
  H   H73       1.0  0.9999987324701393  0.0932859279596769  0.734079584090992  1.0000
  H   H74       1.0  2.1054386323e-06  0.44789155424977856  0.8295595746551996  1.0000
  H   H75       1.0  2.8785031033999994e-06  0.42118247584766505  0.6747964600575925  1.0000
  H   H76       1.0  2.0519821575000006e-06  0.385788489542186  0.7206733576078436  1.0000
  H   H77       1.0  3.9353476919999993e-07  0.6266268699949578  0.8018012622895868  1.0000
  H   H78       1.0  0.9999988169559302  0.6407950630503478  0.9067134794889287  1.0000
  C   C1        1.0  0.2568301026470934  0.5716291899852874  0.6022360136064863  1.0000
  C   C2        1.0  0.3747172602745934  0.573215136966489  0.6035070524700928  1.0000
  C   C3        1.0  0.4370354985738416  0.5196988483133964  0.583436246644851  1.0000
  C   C4        1.0  0.3736898533329481  0.4664391321339209  0.5631018096427027  1.0000
  C   C5        1.0  0.2556855231598192  0.4684800265933687  0.5629238575717467  1.0000
  C   C6        1.0  0.25683086663248395  0.030605716901163753  0.4283701212787179  1.0000
  C   C7        1.0  0.3747188719387609  0.03029167898795036  0.4267860587920325  1.0000
  C   C8        1.0  0.437037146337282  0.06373679338047811  0.480300813149384  1.0000
  C   C9        1.0  0.3736898390396703  0.09666188444094816  0.5335603708774457  1.0000
  C   C10       1.0  0.2556846588732782  0.09444446129643319  0.5315188974756709  1.0000
  C   C11       1.0  0.2568302831266323  0.39776425870595483  0.9693932157796399  1.0000
  C   C12       1.0  0.3747165912059032  0.39649348690647906  0.9697083031915811  1.0000
  C   C13       1.0  0.4370365210515105  0.41656350250457297  0.9362632087857748  1.0000
  C   C14       1.0  0.3736891714202244  0.4368983999249989  0.9033369938639454  1.0000
  C   C15       1.0  0.25568484242513273  0.4370750239283294  0.905554685776309  1.0000
  C   C16       1.0  0.2568300022787682  0.42836984772962683  0.39776217206907216  1.0000
  C   C17       1.0  0.37471885682043654  0.4267859318365338  0.3964922780846366  1.0000
  C   C18       1.0  0.43703711477671453  0.4803007712966758  0.4165629967424281  1.0000
  C   C19       1.0  0.3736897912918237  0.5335608690469583  0.43689780664946914  1.0000
  C   C20       1.0  0.2556854612955703  0.5315191760948323  0.4370749440865823  1.0000
  C   C21       1.0  0.25683093645452004  0.9693921928951779  0.5716291923112564  1.0000
  C   C22       1.0  0.3747180942371528  0.9697074200065714  0.573214460120802  1.0000
  C   C23       1.0  0.43703801425468203  0.9362625402009356  0.519699497708608  1.0000
  C   C24       1.0  0.3736898055850162  0.903337500433814  0.46643908027570563  1.0000
  C   C25       1.0  0.2556846274218003  0.9055557484201414  0.4684804600432957  1.0000
  C   C26       1.0  0.25682982180060066  0.6022366721757563  0.0306077653927161  1.0000
  C   C27       1.0  0.3747169786490758  0.6035074610061597  0.030292711137839504  1.0000
  C   C28       1.0  0.43703863954102934  0.5834370032439793  0.06373827423778512  1.0000
  C   C29       1.0  0.37369047320473914  0.5631019919782574  0.09666301315007793  1.0000
  C   C30       1.0  0.2556852929501545  0.5629245694821918  0.09444450660375744  1.0000
  C   C31       1.0  0.7431687599240605  0.4283707247498184  0.39776218001956215  1.0000
  C   C32       1.0  0.6252816022968588  0.42678494290725405  0.3964917574606447  1.0000
  C   C33       1.0  0.5629625149174302  0.4803010059765427  0.4165627888686033  1.0000
  C   C34       1.0  0.6263081601587359  0.533560661710922  0.4368980677582784  1.0000
  C   C35       1.0  0.7443133394117467  0.5315198276966341  0.43707517794182865  1.0000
  C   C36       1.0  0.743169694099727  0.9693924536092524  0.5716290351227189  1.0000
  C   C37       1.0  0.6252816887939475  0.9697070473834799  0.5732141046359517  1.0000
  C   C38       1.0  0.5629634143953979  0.9362627748808092  0.5196992898347832  1.0000
  C   C39       1.0  0.6263107216925121  0.9033371279593252  0.466438725080181  1.0000
  C   C40       1.0  0.7443142036984796  0.9055557837159467  0.46848052875975554  1.0000
  C   C41       1.0  0.7431702776061259  0.60223592586145  0.030607052343547977  1.0000
  C   C42       1.0  0.6252839695273451  0.6035072535219398  0.030292971958154224  1.0000
  C   C43       1.0  0.5629623415208515  0.5834370727850882  0.06373745005903694  1.0000
  C   C44       1.0  0.6263096911518319  0.5631020102260251  0.09666304867617014  1.0000
  C   C45       1.0  0.7443157183074333  0.5629247699166982  0.09444519162502735  1.0000
  C   C46       1.0  0.7431705584532509  0.5716279320584048  0.6022365936105132  1.0000
  C   C47       1.0  0.6252834020721352  0.5732126898414832  0.6035064271513733  1.0000
  C   C48       1.0  0.5629617477949936  0.5196980155197364  0.5834363247977948  1.0000
  C   C49       1.0  0.6263090712801898  0.4664380829080911  0.5631021311954356  1.0000
  C   C50       1.0  0.7443150994369461  0.46847915955421365  0.5629248286195435  1.0000
  C   C51       1.0  0.7431696242781598  0.030607375366109572  0.42837091067291777  1.0000
  C   C52       1.0  0.6252824664959108  0.030292929699470405  0.42678642430708186  1.0000
  C   C53       1.0  0.5629616973981939  0.06373758392130911  0.480301612301993  1.0000
  C   C54       1.0  0.6263099060671422  0.09666251899489706  0.5335605715426723  1.0000
  C   C55       1.0  0.7443150842304433  0.09444488731467966  0.5315193569141101  1.0000
  C   C56       1.0  0.7431690407719529  0.3977642938362817  0.9693932841739467  1.0000
  C   C57       1.0  0.62528273300358  0.39649311428356526  0.9697079477070859  1.0000
  C   C58       1.0  0.5629627702722148  0.41656357204586664  0.9362623846073819  1.0000
  C   C59       1.0  0.62630923844781  0.4368988088952078  0.9033374201120099  1.0000
  C   C60       1.0  0.7443144187021176  0.4370752243627719  0.9055553707974584  1.0000
  C   C61       1.0  0.9999943976157653  0.6168140709537651  0.5526308510919336  1.0000
  C   C62       1.0  0.9999960919442828  0.6710946716826528  0.5448963191963402  1.0000
  C   C63       1.0  0.9999977617488583  0.6636993884618574  0.48716848535298857  1.0000
  C   C64       1.0  0.99999945574217  0.7141845336598392  0.47874703862324  1.0000
  C   C65       1.0  2.6014088659999995e-07  0.7731484164084675  0.5304542157354248  1.0000
  C   C66       1.0  2.8845553150000007e-07  0.7791128423640145  0.5880961208867747  1.0000
  C   C67       1.0  0.9999986642990563  0.7293373678455453  0.5960863062400606  1.0000
  C   C68       1.0  2.5769850959999995e-07  0.8288098194773139  0.5255500815650578  1.0000
  C   C69       1.0  1.0367743215000003e-06  0.9358183209592355  0.3831848548993479  1.0000
  C   C70       1.0  1.0101448069e-06  0.8738033833937704  0.3289052460719759  1.0000
  C   C71       1.0  1.6472770880000008e-07  0.8234712516119556  0.3363008085432783  1.0000
  C   C72       1.0  1.8381217615e-06  0.764563714749471  0.28581707599198586  1.0000
  C   C73       1.0  1.8091582986999998e-06  0.7573068202428743  0.22685292704538546  1.0000
  C   C74       1.0  9.571168036000002e-07  0.8089833206956598  0.22088790420374244  1.0000
  C   C75       1.0  1.3245564649999997e-07  0.8667496828820233  0.2706631320615145  1.0000
  C   C76       1.0  8.368895270000006e-08  0.6967407367416881  0.17119245548234138  1.0000
  C   C77       1.0  0.999996704994281  0.44736825861807  0.06418409210482424  1.0000
  C   C78       1.0  1.7598881996e-06  0.4551029743883319  0.12619764103207845  1.0000
  C   C79       1.0  9.355014967000001e-07  0.5128319522804503  0.1765314752915402  1.0000
  C   C80       1.0  9.644354719e-07  0.5212524345817471  0.23543700104352186  1.0000
  C   C81       1.0  4.364352491800001e-06  0.46954537410573494  0.24269383224753946  1.0000
  C   C82       1.0  1.79175737e-06  0.4119037266974955  0.19101532660611298  1.0000
  C   C83       1.0  1.7633835654e-06  0.4039147601820686  0.13325054944276363  1.0000
  C   C84       1.0  6.0922649538e-06  0.47445245931744745  0.3032599404245603  1.0000
  C   C85       1.0  1.0686347665e-06  0.3831847158623988  0.44736847044780603  1.0000
  C   C86       1.0  1.0724671071e-06  0.32890512216212636  0.4551035582045202  1.0000
  C   C87       1.0  1.949903222e-06  0.33630001466072906  0.5128310013263687  1.0000
  C   C88       1.0  2.8031506787e-06  0.28581509504667224  0.521252222473649  1.0000
  C   C89       1.0  3.6268636592e-06  0.22685130520252272  0.46954552103538566  1.0000
  C   C90       1.0  1.0513082458e-06  0.22088665366304375  0.4119038414665114  1.0000
  C   C91       1.0  1.9827292159999997e-07  0.27066242599936163  0.4039135711610342  1.0000
  C   C92       1.0  5.327467008000001e-06  0.1711906835785513  0.47445043664970404  1.0000
  C   C93       1.0  0.9999978257977133  0.06418293108164615  0.6168151271969577  1.0000
  C   C94       1.0  0.9999961542668246  0.1261982593693671  0.6710951267459464  1.0000
  C   C95       1.0  0.9999969996838161  0.17653061673491505  0.6636993386918064  1.0000
  C   C96       1.0  0.9999970244509839  0.23543764198495143  0.7141843642965285  1.0000
  C   C97       1.0  0.9999970534144468  0.2426945364915412  0.7731485132431362  1.0000
  C   C98       1.0  0.9999962072947782  0.1910168638715034  0.7791123639189692  1.0000
  C   C99       1.0  0.9999970319557151  0.13325095285261995  0.7293366848955287  1.0000
  C   C100      1.0  0.9999996279641722  0.3032612362989082  0.8288091499453146  1.0000
  C   C101      1.0  3.0066587087e-06  0.5526316399204344  0.9358172434886073  1.0000
  C   C102      1.0  1.2780364358e-06  0.5448975286673557  0.8738028771823281  1.0000
  C   C103      1.0  0.9999996252311547  0.4871684578706945  0.8234685672488169  1.0000
  C   C104      1.0  2.0734891635e-06  0.4787480684739406  0.7645635171708777  1.0000
  C   C105      1.0  2.0698931209e-06  0.5304547382278172  0.7573062952454848  1.0000
  C   C106      1.0  0.999999618056094  0.58809639742487  0.8089857834047224  1.0000
  C   C107      1.0  0.9999996464290462  0.5960863267203605  0.8667488163492152  1.0000
  C   C108      1.0  2.0401410907000002e-06  0.5255464204039908  0.6967398567906642  1.0000
  N   N1        1.0  0.1980380750136774  0.520104912191165  0.5818923530030062  1.0000
  N   N2        1.0  0.19803802517689212  0.06178680058750521  0.4798946976036902  1.0000
  N   N3        1.0  0.19803740104625686  0.4181086726854487  0.9382126055320229  1.0000
  N   N4        1.0  0.19803799457307036  0.479894507752533  0.4181062068584538  1.0000
  N   N5        1.0  0.19803804441067996  0.9382124984659868  0.5201055460328166  1.0000
  N   N6        1.0  0.19803697038086193  0.5818927008700214  0.06178790793847369  1.0000
  N   N7        1.0  0.8019616366379907  0.47989455137652465  0.4181062917888313  1.0000
  N   N8        1.0  0.8019616864753801  0.9382129932574584  0.5201051797975255  1.0000
  N   N9        1.0  0.8019623106062072  0.5818915118818921  0.061787662591051284  1.0000
  N   N10       1.0  0.8019634152393564  0.5201030464518225  0.581892784404083  1.0000
  N   N11       1.0  0.801963365402784  0.06178762565637181  0.4798955639780189  1.0000
  N   N12       1.0  0.8019601940313804  0.41810927217039756  0.938213697488827  1.0000
  N   N13       1.0  3.6033438207e-06  0.7068087463618155  0.4222513672202553  1.0000
  N   N14       1.0  3.5399350792999997e-06  0.7154438945111963  0.293192813294482  1.0000
  N   N15       1.0  0.9999951150206597  0.57774927473028  0.2845572654220589  1.0000
  N   N16       1.0  1.1327412039000003e-06  0.2931913659716087  0.5777487602725274  1.0000
  N   N17       1.0  0.9999987189590273  0.2845578529458448  0.7068090177163739  1.0000
  N   N18       1.0  2.0493915329e-06  0.4222512401141572  0.715444235310038  1.0000
  O   O1        1.0  0.9999944239389293  0.6253763460011184  0.6062222156675503  1.0000
  O   O2        1.0  0.9999943749665546  0.563725787914734  0.5064639808886113  1.0000
  O   O3        1.0  0.9999995023700876  0.8798961274040947  0.5738590099445987  1.0000
  O   O4        1.0  1.9300555748999996e-06  0.8247459101932434  0.4730218967341031  1.0000
  O   O5        1.0  1.03254105e-06  0.9808468941360855  0.37462248447302215  1.0000
  O   O6        1.0  1.911931768500001e-06  0.9427413805265132  0.4362734940290594  1.0000
  O   O7        1.0  9.076729981000001e-07  0.6939628477513438  0.1201054904216506  1.0000
  O   O8        1.0  0.9999976085231806  0.6482770370605805  0.1752577269930811  1.0000
  O   O9        1.0  0.9999966829039693  0.3937774708389695  0.019154256068013475  1.0000
  O   O10       1.0  0.9999975506461  0.4935337681187804  0.057261255708311976  1.0000
  O   O11       1.0  7.7918188097e-06  0.42614394747678114  0.30603750143225744  1.0000
  O   O12       1.0  3.5688016807999995e-06  0.5269801405166701  0.3517229943752866  1.0000
  O   O13       1.0  1.0423118795e-06  0.37462344784353957  0.39377766173306833  1.0000
  O   O14       1.0  0.9999994631722801  0.4362729059969509  0.49353486497719967  1.0000
  O   O15       1.0  6.1528444347999996e-06  0.12010405716367954  0.42614125817931386  1.0000
  O   O16       1.0  4.504190229700001e-06  0.17525459286268583  0.5269786214807723  1.0000
  O   O17       1.0  0.9999978300309778  0.019154357904795766  0.6253774976232833  1.0000
  O   O18       1.0  0.999999497881106  0.05726071340441044  0.5637264276237843  1.0000
  O   O19       1.0  4.320911273e-07  0.3060382716103334  0.8798951929315352  1.0000
  O   O20       1.0  1.2540494581000003e-06  0.3517245452575822  0.8247434877126028  1.0000
  O   O21       1.0  5.5759902864000005e-06  0.6062232091444739  0.9808478609694903  1.0000
  O   O22       1.0  2.1610061225e-06  0.5064645675302087  0.9427385169977002  1.0000
  O   O23       1.0  0.9999970143147578  0.5738544486176733  0.6939614293869454  1.0000
  O   O24       1.0  6.261764454500001e-06  0.4730181833438676  0.6482757958136247  1.0000
