data_image0
_chemical_formula_structural       Zn4H32C46N12Cl4O8
_chemical_formula_sum              "Zn4 H32 C46 N12 Cl4 O8"
_cell_length_a       7.138286055931602
_cell_length_b       9.046676987563918
_cell_length_c       19.515
_cell_angle_alpha    100.80054013431574
_cell_angle_beta     91.30932383018691
_cell_angle_gamma    94.89643732654409

_space_group_name_H-M_alt    "P 1"
_space_group_IT_number       1

loop_
  _space_group_symop_operation_xyz
  'x, y, z'

loop_
  _atom_site_type_symbol
  _atom_site_label
  _atom_site_symmetry_multiplicity
  _atom_site_fract_x
  _atom_site_fract_y
  _atom_site_fract_z
  _atom_site_occupancy
  Zn  Zn1       1.0  0.394934791061189  0.1949403285799818  0.12092865719083792  1.0000
  Zn  Zn2       1.0  0.6050711031917828  0.8050559036743152  0.8790706548304571  1.0000
  Zn  Zn3       1.0  0.5137573374663944  0.3168174437353528  0.44396451614736787  1.0000
  Zn  Zn4       1.0  0.4862304688152221  0.6831799185488521  0.556034742856646  1.0000
  H   H1        1.0  0.9589452535630655  0.7122657582286394  0.3211857870425234  1.0000
  H   H2        1.0  0.0410541481358919  0.2877349941452749  0.6788154006531998  1.0000
  H   H3        1.0  0.7902300927607371  0.049974442441389  0.2081554805878696  1.0000
  H   H4        1.0  0.20976930893822038  0.9500263099325252  0.7918441698288348  1.0000
  H   H5        1.0  0.950005296448097  0.6265710705454737  0.09649794978727753  1.0000
  H   H6        1.0  0.05000404252690768  0.3734308118583414  0.9035034191313971  1.0000
  H   H7        1.0  0.9366008696762123  0.4570790153867108  0.30636062790855334  1.0000
  H   H8        1.0  0.0634099990006263  0.542923997047005  0.6936403395346603  1.0000
  H   H9        1.0  0.14643430292371556  0.2142536696564505  0.2648265951155011  1.0000
  H   H10       1.0  0.8535705753852626  0.7857459526875559  0.7351724904840395  1.0000
  H   H11       1.0  0.1853932937825888  0.4925303135115087  0.11396092362249992  1.0000
  H   H12       1.0  0.8146089104411087  0.5074704388623985  0.8860387502182334  1.0000
  H   H13       1.0  0.9141895220173096  0.8575378824710143  0.413652310461174  1.0000
  H   H14       1.0  0.08581153782293428  0.1424651299627016  0.5863495998506352  1.0000
  H   H15       1.0  0.7497200246488942  0.0767064298326972  0.501783465481502  1.0000
  H   H16       1.0  0.2502770882831555  0.9232988426608203  0.4982160460403122  1.0000
  H   H17       1.0  0.6827964618172544  0.1574029952537828  0.29733180873312653  1.0000
  H   H18       1.0  0.3172002657964227  0.8425988871500323  0.7026679174984238  1.0000
  H   H19       1.0  0.8920688110284942  0.1336531567771502  0.11325095883326952  1.0000
  H   H20       1.0  0.107931104428296  0.8663521157163743  0.8867465264072154  1.0000
  H   H21       1.0  0.744985151986242  0.1243191097762946  0.9790754799291862  1.0000
  H   H22       1.0  0.25501526565670213  0.8756782525079103  0.020923372056586214  1.0000
  H   H23       1.0  0.7138505712313757  0.6803729242691716  0.018200693364896405  1.0000
  H   H24       1.0  0.2861599121270827  0.3196266980748348  0.9817984390826954  1.0000
  H   H25       1.0  0.5009108236591473  0.634291434844485  0.16577574844296095  1.0000
  H   H26       1.0  0.4990939262103709  0.3657070574696135  0.8342247751967308  1.0000
  H   H27       1.0  0.5358452290912368  0.4966763932265437  0.2632948158365949  1.0000
  H   H28       1.0  0.4641441068922063  0.503322099087562  0.7367055789709768  1.0000
  H   H29       1.0  0.35083122254207666  0.874917742383019  0.4057206703815837  1.0000
  H   H30       1.0  0.6491568406184526  0.1250818799609874  0.5942787871001656  1.0000
  H   H31       1.0  0.3233736270156697  0.015029397713242099  0.3094027281131774  1.0000
  H   H32       1.0  0.676623614355833  0.984977004810183  0.6905979075001839  1.0000
  C   C1        1.0  0.9636132459764822  0.6569880854512888  0.20928167523799607  1.0000
  C   C2        1.0  0.036388829807755485  0.3430115368927176  0.790718411790202  1.0000
  C   C3        1.0  0.9330768329901316  0.7503387257289802  0.2725921030533343  1.0000
  C   C4        1.0  0.06692384153173948  0.2496608966150262  0.7274079722628529  1.0000
  C   C5        1.0  0.8706839660907377  0.8922377107101553  0.2722108095128348  1.0000
  C   C6        1.0  0.1293198962742466  0.1077653017235605  0.7277895869439774  1.0000
  C   C7        1.0  0.8437376211915506  0.9416991195754604  0.2094424174349143  1.0000
  C   C8        1.0  0.15626930057709384  0.05830615291805691  0.7905566636446509  1.0000
  C   C9        1.0  0.8707142883685818  0.8444849070585576  0.14671152344789823  1.0000
  C   C10       1.0  0.1292953074853429  0.155519235405059  0.8532900439485119  1.0000
  C   C11       1.0  0.9308171615798384  0.7016830281846893  0.14575158395857812  1.0000
  C   C12       1.0  0.06918797360805938  0.2983188542191257  0.854250262250396  1.0000
  C   C13       1.0  0.018395703722418895  0.4276880676330492  0.2604818781524898  1.0000
  C   C14       1.0  0.9816107042883926  0.572312684740865  0.7395188556769483  1.0000
  C   C15       1.0  0.1193861456738929  0.3062403638409137  0.23859957601365528  1.0000
  C   C16       1.0  0.8806202623369188  0.6937603885329935  0.7614006453894433  1.0000
  C   C17       1.0  0.14145374316623816  0.4447311786338872  0.1585610242070743  1.0000
  C   C18       1.0  0.8585483326179996  0.5552684437101192  0.8414395752474633  1.0000
  C   C19       1.0  0.8439108829384309  0.9518411379571462  0.40219986755478493  1.0000
  C   C20       1.0  0.156090305341273  0.0481630045064776  0.5978000922905411  1.0000
  C   C21       1.0  0.7617355444818585  0.0617369237043306  0.44587173689025417  1.0000
  C   C22       1.0  0.23826169688964424  0.9382694788190946  0.554128898723107  1.0000
  C   C23       1.0  0.7293588357599672  0.1104174819064951  0.3412381389142993  1.0000
  C   C24       1.0  0.27063343118767585  0.8895821404375113  0.6587618661298151  1.0000
  C   C25       1.0  0.8360717566419636  0.0394403036832784  0.07351387713700322  1.0000
  C   C26       1.0  0.16392943163774015  0.9605638387803381  0.9264850578556435  1.0000
  C   C27       1.0  0.7666101381463335  0.0343517790289383  0.0072204481298072986  1.0000
  C   C28       1.0  0.23339333890027086  0.9656478433150681  0.9927786257577226  1.0000
  C   C29       1.0  0.7514561148826927  0.8007843906400254  0.02339274171374231  1.0000
  C   C30       1.0  0.24855042156757173  0.1992174917637897  0.9766070665018918  1.0000
  C   C31       1.0  0.41132720012031837  0.8334998863690544  0.23103163023199616  1.0000
  C   C32       1.0  0.5886738597199255  0.1665031260646614  0.7689697676534736  1.0000
  C   C33       1.0  0.4672645065883786  0.6864603953579902  0.2184435427325155  1.0000
  C   C34       1.0  0.5327376976353192  0.3135403570159241  0.7815597180925878  1.0000
  C   C35       1.0  0.4873092616352039  0.609367495298379  0.2730659786051675  1.0000
  C   C36       1.0  0.51268848192246  0.3906309970157267  0.7269355113271488  1.0000
  C   C37       1.0  0.445109591143769  0.676811070014125  0.340900021193221  1.0000
  C   C38       1.0  0.5548829326827942  0.3231908123896901  0.6591012071813083  1.0000
  C   C39       1.0  0.3828907783122019  0.8221769867384765  0.3530519455671381  1.0000
  C   C40       1.0  0.6171054355436354  0.1778203755457284  0.6469494334142922  1.0000
  C   C41       1.0  0.36812186642357847  0.9010090028191868  0.2987999324504004  1.0000
  C   C42       1.0  0.6318774068359116  0.0989906195248196  0.7012006435801086  1.0000
  C   C43       1.0  0.40466963738623457  0.9162474560645321  0.17137202969085052  1.0000
  C   C44       1.0  0.5953317962007032  0.0837465161299562  0.8286255114376503  1.0000
  C   C45       1.0  0.4693323399911264  0.5967789621761597  0.40021673046131684  1.0000
  C   C46       1.0  0.5306568675528566  0.4032184001080452  0.5997815154020216  1.0000
  N   N1        1.0  0.1948961486192147  0.3183362039253197  0.17484052167768743  1.0000
  N   N2        1.0  0.8051114037750435  0.681662288388786  0.825159000533347  1.0000
  N   N3        1.0  0.03334330313569469  0.5149399365228859  0.20906926635122156  1.0000
  N   N4        1.0  0.9666603023503695  0.4850608158510212  0.7909319564805344  1.0000
  N   N5        1.0  0.6912387090011407  0.1597545874824462  0.4073196939436273  1.0000
  N   N6        1.0  0.30875636047124283  0.8402450348615602  0.5926787972454977  1.0000
  N   N7        1.0  0.8241215305068648  0.9836300091655091  0.335579453724769  1.0000
  N   N8        1.0  0.17587519710680508  0.016371873238306  0.664420784933121  1.0000
  N   N9        1.0  0.7148166033265113  0.885142252947638  0.9766037285260083  1.0000
  N   N10       1.0  0.285191334386127  0.114859629456177  0.023395066548957302  1.0000
  N   N11       1.0  0.8278605109008836  0.8910217985342541  0.08320357284959101  1.0000
  N   N12       1.0  0.1721432230246407  0.1089800838695609  0.9167967243683536  1.0000
  Cl  Cl1       1.0  0.6342992944214103  0.3681513121503457  0.11117414745844911  1.0000
  Cl  Cl2       1.0  0.36570023571700017  0.6318505702534623  0.8888271394761348  1.0000
  Cl  Cl3       1.0  0.2147956807320952  0.2240001775719946  0.4303840283123393  1.0000
  Cl  Cl4       1.0  0.785193013054048  0.775992664592593  0.5696133081691954  1.0000
  O   O1        1.0  0.3865663471420575  0.842901735164105  0.1104705159231401  1.0000
  O   O2        1.0  0.613441450559442  0.1570865868808724  0.8895281248500951  1.0000
  O   O3        1.0  0.423723580536489  0.0635540117887601  0.18928743296716993  1.0000
  O   O4        1.0  0.5762744199000949  0.9364467405851542  0.8107122057375238  1.0000
  O   O5        1.0  0.5629994830259547  0.48061753827143855  0.38995457314073434  1.0000
  O   O6        1.0  0.4369897245180283  0.5193798240127663  0.6100436727226042  1.0000
  O   O7        1.0  0.3938281637028993  0.649372813933283  0.45708451791318083  1.0000
  O   O8        1.0  0.6061559409777643  0.3506166381415952  0.5429135105683898  1.0000
