data_image0
_chemical_formula_structural       Cd4H72C104N8O16
_chemical_formula_sum              "Cd4 H72 C104 N8 O16"
_cell_length_a       13.996583518671827
_cell_length_b       16.524916152106698
_cell_length_c       16.054972636689847
_cell_angle_alpha    107.09353120911328
_cell_angle_beta     89.97991652577223
_cell_angle_gamma    115.0023061636437

_space_group_name_H-M_alt    "P 1"
_space_group_IT_number       1

loop_
  _space_group_symop_operation_xyz
  'x, y, z'

loop_
  _atom_site_type_symbol
  _atom_site_label
  _atom_site_symmetry_multiplicity
  _atom_site_fract_x
  _atom_site_fract_y
  _atom_site_fract_z
  _atom_site_occupancy
  Cd  Cd1       1.0  0.047116627809664635  0.5552808356411703  0.9079108620256877  1.0000
  Cd  Cd2       1.0  0.4923408458797453  0.44485047847565795  0.5922294694497553  1.0000
  Cd  Cd3       1.0  0.9528820564138413  0.4447142695632351  0.09208309027518168  1.0000
  Cd  Cd4       1.0  0.5076532222680469  0.5551496917755046  0.4077715369939909  1.0000
  H   H1        1.0  0.2553849408132152  0.3236053029325703  0.48279740015600947  1.0000
  H   H2        1.0  0.3588878519392649  0.5637164064820437  0.21834090177062387  1.0000
  H   H3        1.0  0.06892249084272348  0.32337450492740055  0.9824340362243974  1.0000
  H   H4        1.0  0.7545644676201348  0.6786161851342386  0.018394291821920202  1.0000
  H   H5        1.0  0.06532757095870068  0.7606067782606587  0.3108596915973862  1.0000
  H   H6        1.0  0.31710457823846366  0.973203238065892  0.6021902198237612  1.0000
  H   H7        1.0  0.3859905781003121  0.2403863912329172  0.4482725772319754  1.0000
  H   H8        1.0  0.7522985522530943  0.3052347777178851  0.43621615720888235  1.0000
  H   H9        1.0  0.3051775138881183  0.23940805759801975  0.18931546093771356  1.0000
  H   H10       1.0  0.9346651286168635  0.23938636074024797  0.6891405527710932  1.0000
  H   H11       1.0  0.6848373974109803  0.864546497581422  0.13335494475830958  1.0000
  H   H12       1.0  0.38617318158096475  0.2812652124070638  0.8230563791344141  1.0000
  H   H13       1.0  0.4463438831207964  0.6949433827071444  0.06401908456830792  1.0000
  H   H14       1.0  0.7358056926142778  0.11898920217945631  0.06001416854761031  1.0000
  H   H15       1.0  0.6561137821228796  0.973454601751939  0.10281214022575812  1.0000
  H   H16       1.0  0.31516461402497936  0.13544669026516937  0.8666478039951857  1.0000
  H   H17       1.0  0.6411143843414281  0.4362886736440004  0.7816602597837773  1.0000
  H   H18       1.0  0.3636128216437697  0.4563499938408455  0.8255907262210018  1.0000
  H   H19       1.0  0.24543342091731554  0.32139020133764973  0.981602259739475  1.0000
  H   H20       1.0  0.41195721569930294  0.6704575133565314  0.5446042292241132  1.0000
  H   H21       1.0  0.9074979594799115  0.5439908284744703  0.6744816465605155  1.0000
  H   H22       1.0  0.9231445966194727  0.6783772102469428  0.5182183772553373  1.0000
  H   H23       1.0  0.7446155133857884  0.6763962082625453  0.5172008734139838  1.0000
  H   H24       1.0  0.17956066751189328  0.8640024284510445  0.63291845158993  1.0000
  H   H25       1.0  0.820958772444662  0.558493483370455  0.1811544579643538  1.0000
  H   H26       1.0  0.1753279531728537  0.5558181461022399  0.2086991829409897  1.0000
  H   H27       1.0  0.20871193203449678  0.0637518539407367  0.13908749493405284  1.0000
  H   H28       1.0  0.2954772300172905  0.067163438659847  0.3982695541285893  1.0000
  H   H29       1.0  0.5231593135525543  0.49553791472988  0.8320917096649865  1.0000
  H   H30       1.0  0.6363941291267633  0.5436573765897562  0.17441918739679346  1.0000
  H   H31       1.0  0.6194370026135941  0.4439200917470529  0.29095541953370235  1.0000
  H   H32       1.0  0.9720290230773683  0.4952127645300521  0.33200283915036993  1.0000
  H   H33       1.0  0.6138309654853699  0.7187351140770701  0.1769521460334147  1.0000
  H   H34       1.0  0.06263278801975511  0.645864025859787  0.5161981912734674  1.0000
  H   H35       1.0  0.7045129148625193  0.9328460451039503  0.601740342752244  1.0000
  H   H36       1.0  0.14491634598996933  0.9363406155258855  0.36121028392497584  1.0000
  H   H37       1.0  0.2622730055587326  0.4411861594693036  0.31885868754411467  1.0000
  H   H38       1.0  0.07686407081340015  0.3216264411227315  0.48178175224173714  1.0000
  H   H39       1.0  0.41733738185499186  0.35390973728223674  0.9836443866376572  1.0000
  H   H40       1.0  0.3805731373615515  0.5560779251430789  0.7090437234090815  1.0000
  H   H41       1.0  0.1451191606116922  0.7594233219411278  0.05184995665103994  1.0000
  H   H42       1.0  0.4768364613348125  0.504467101527247  0.16790631979312556  1.0000
  H   H43       1.0  0.6828944287223775  0.026801097492779005  0.39780886065625515  1.0000
  H   H44       1.0  0.8246720809177288  0.4441868139402985  0.7912963378996452  1.0000
  H   H45       1.0  0.264199444220182  0.8810002254148657  0.9399769151789529  1.0000
  H   H46       1.0  0.24771204357885793  0.6947584324184392  0.5637878425119355  1.0000
  H   H47       1.0  0.7950879486795587  0.43600243845779824  0.2815402782255347  1.0000
  H   H48       1.0  0.8548820034382912  0.24058390340136523  0.9481530637263306  1.0000
  H   H49       1.0  0.6167162222460476  0.8810039602019868  0.4402188650708538  1.0000
  H   H50       1.0  0.7912747377921505  0.9362420885569948  0.8609173406856243  1.0000
  H   H51       1.0  0.38327636676051907  0.11900183105683482  0.5597825011069519  1.0000
  H   H52       1.0  0.5826699692270906  0.6460941438852643  0.016366399248816766  1.0000
  H   H53       1.0  0.09250251176233344  0.456012148402145  0.325519537522645  1.0000
  H   H54       1.0  0.22814907963479666  0.9326602339143051  0.10185876307303225  1.0000
  H   H55       1.0  0.9310836345707896  0.6766355008724502  0.017567908597463572  1.0000
  H   H56       1.0  0.10460640222105157  0.718442091657181  0.6769667426449573  1.0000
  H   H57       1.0  0.9373705634091961  0.35413041134237483  0.4837974384240128  1.0000
  H   H58       1.0  0.20492362092031155  0.5639984416602103  0.7184615511969029  1.0000
  H   H59       1.0  0.5536597536351876  0.3050659320250516  0.9359832862373169  1.0000
  H   H60       1.0  0.6139898694673533  0.7596222706226855  0.5517314796579598  1.0000
  H   H61       1.0  0.34388318710018945  0.026539933243995503  0.89718787921818  1.0000
  H   H62       1.0  0.7377078874701368  0.5587990728734411  0.6811324477000584  1.0000
  H   H63       1.0  0.17904923517524912  0.4415059868927996  0.8188469693396456  1.0000
  H   H64       1.0  0.8204454282306698  0.1359989314505725  0.3670729251754637  1.0000
  H   H65       1.0  0.8953950675716983  0.28155572780863025  0.3230230006675328  1.0000
  H   H66       1.0  0.5880440837022575  0.3295242323355581  0.4553883988716479  1.0000
  H   H67       1.0  0.742280098183144  0.32946999653120906  0.9552569071714602  1.0000
  H   H68       1.0  0.8550817257049629  0.0636532668788874  0.6387920408496017  1.0000
  H   H69       1.0  0.7718542679001386  0.0673499350995854  0.8981507044826105  1.0000
  H   H70       1.0  0.6948012159741666  0.7605842887655073  0.8106801984168968  1.0000
  H   H71       1.0  0.027977822680092888  0.5047872370773447  0.6679906414409303  1.0000
  H   H72       1.0  0.2577181934194782  0.6705314754117423  0.04473948660614003  1.0000
  C   C1        1.0  0.12590626442438693  0.44393982960851736  0.6007422254824064  1.0000
  C   C2        1.0  0.2550647681042619  0.4967427672329734  0.37158090962818596  1.0000
  C   C3        1.0  0.3678443997428927  0.121330459161527  0.6267929513040686  1.0000
  C   C4        1.0  0.14661776495539408  0.8976893346643704  0.2936251636233465  1.0000
  C   C5        1.0  0.1308403951529655  0.7043995352332715  0.8379114910445722  1.0000
  C   C6        1.0  0.13543222610233838  0.37535616940814265  0.03361889104439799  1.0000
  C   C7        1.0  0.7593095654034197  0.6243826431167675  0.4660762679210394  1.0000
  C   C8        1.0  0.7861913481957288  0.49028881839243615  0.33452792503975814  1.0000
  C   C9        1.0  0.8444762593374473  0.42131872816240445  0.5546403255875135  1.0000
  C   C10       1.0  0.7148142944469241  0.37504665156933475  0.0019545676287861897  1.0000
  C   C11       1.0  0.7524410366292075  0.36199638205238227  0.49220874531658865  1.0000
  C   C12       1.0  0.3446627193025548  0.505925951583265  0.8760689945135312  1.0000
  C   C13       1.0  0.31043766972167214  0.04322674723487549  0.737437453836698  1.0000
  C   C14       1.0  0.8050322031090855  0.494698218103693  0.8398770598706237  1.0000
  C   C15       1.0  0.33909584226190487  0.6248470676671828  0.497853948319225  1.0000
  C   C16       1.0  0.7583713910479304  0.5029297094307169  0.1284137214522403  1.0000
  C   C17       1.0  0.6893515059843266  0.49439080188723483  0.33964877762350204  1.0000
  C   C18       1.0  0.2491289985450038  0.10230081405898517  0.20661872086351002  1.0000
  C   C19       1.0  0.24756375762238034  0.638000945321444  0.5077908245010079  1.0000
  C   C20       1.0  0.7330657706785927  0.04360946246129059  0.2379336432024246  1.0000
  C   C21       1.0  0.24652079381548472  0.8785391986405385  0.8729002006277611  1.0000
  C   C22       1.0  0.31065541126991997  0.5056064839074139  0.6603489110651283  1.0000
  C   C23       1.0  0.42278370387640507  0.5788836458286681  0.9455532121018281  1.0000
  C   C24       1.0  0.6297321650168398  0.7871674311079885  0.22444097719577624  1.0000
  C   C25       1.0  0.6978968430536481  0.7995809670989401  0.7656791521264952  1.0000
  C   C26       1.0  0.4259587912224774  0.4524523496772304  0.10703028486764765  1.0000
  C   C27       1.0  0.026986692359905428  0.45275689394186  0.6071116763427613  1.0000
  C   C28       1.0  0.6682472929959146  0.8685329633776746  0.20050205267431656  1.0000
  C   C29       1.0  0.05247648745735492  0.6430845643083885  0.14882216659349004  1.0000
  C   C30       1.0  0.10128429175843935  0.7995738423344037  0.2658556252980517  1.0000
  C   C31       1.0  0.20000753374770847  0.8681206536009822  0.7001347634934447  1.0000
  C   C32       1.0  0.7545914684213245  0.9479543356992153  0.7351321240739922  1.0000
  C   C33       1.0  0.853377815328386  0.10230528193858389  0.7063786171874825  1.0000
  C   C34       1.0  0.060244360779940095  0.593703604001405  0.4546182029794467  1.0000
  C   C35       1.0  0.6895543023894672  0.9567663652100932  0.262561537114088  1.0000
  C   C36       1.0  0.8208962013234214  0.20873810495699274  0.18890547622989126  1.0000
  C   C37       1.0  0.2669276189510796  0.9563893502713299  0.7620694675127453  1.0000
  C   C38       1.0  0.7044537719341972  0.8958194980273644  0.6479010453111584  1.0000
  C   C39       1.0  0.2851919052169975  0.6249592131519249  0.9980505552379242  1.0000
  C   C40       1.0  0.19324241587092675  0.9478897864541623  0.23534460350944636  1.0000
  C   C41       1.0  0.6519373575190385  0.7977687018485112  0.6197636219374658  1.0000
  C   C42       1.0  0.7999911130655022  0.13188009877918463  0.2998608017364219  1.0000
  C   C43       1.0  0.6817433109241476  0.5563634769969638  0.8993709166933144  1.0000
  C   C44       1.0  0.8390886323413796  0.49429427388236036  0.6240791917697665  1.0000
  C   C45       1.0  0.8586003763397371  0.6247233867201274  0.4661935314989805  1.0000
  C   C46       1.0  0.8741034603793806  0.5560659388703186  0.3992585085288952  1.0000
  C   C47       1.0  0.5772195540267973  0.4211249093129154  0.05444644991813867  1.0000
  C   C48       1.0  0.6321596466772236  0.87867395451363  0.3732098885379855  1.0000
  C   C49       1.0  0.35248000149699266  0.2514784170278119  0.3214549984952556  1.0000
  C   C50       1.0  0.806752048172889  0.05211260906911969  0.7646620222331182  1.0000
  C   C51       1.0  0.8645774046541631  0.6246536997336064  0.9663767844613675  1.0000
  C   C52       1.0  0.8545960052508262  0.2023748305265798  0.8801046007744802  1.0000
  C   C53       1.0  0.6101101453108272  0.3618158407125022  0.9919880013928266  1.0000
  C   C54       1.0  0.655337090464819  0.49407713345631527  0.12393720435422037  1.0000
  C   C55       1.0  0.8987140806935442  0.2004235020018541  0.7341445733446221  1.0000
  C   C56       1.0  0.2406898578205058  0.37561680485675447  0.5339239084156446  1.0000
  C   C57       1.0  0.9397643204210411  0.4062929210391104  0.545376776255239  1.0000
  C   C58       1.0  0.3317532244390121  0.1314701078021798  0.7995035191504416  1.0000
  C   C59       1.0  0.5732746113460223  0.7043296888044778  0.33775700229872285  1.0000
  C   C60       1.0  0.3302416880411415  0.040169629100077514  0.6508780382322927  1.0000
  C   C61       1.0  0.42672513518542826  0.2956718362503635  0.662241898314271  1.0000
  C   C62       1.0  0.14541169059756237  0.7976268788685275  0.11990307287133109  1.0000
  C   C63       1.0  0.7656483893864277  0.6250158595187256  0.9663636636454385  1.0000
  C   C64       1.0  0.5740427159318956  0.5475569931622601  0.8929733402467194  1.0000
  C   C65       1.0  0.2955253356404767  0.1041879144726678  0.3521101306347917  1.0000
  C   C66       1.0  0.9475168163859136  0.35691407328965147  0.851172795458716  1.0000
  C   C67       1.0  0.19497038453686594  0.5053047037218477  0.16012161626333918  1.0000
  C   C68       1.0  0.7449325007841381  0.5032523656908907  0.6284142967586633  1.0000
  C   C69       1.0  0.7040947814280327  0.4905696688337641  0.8346892978060014  1.0000
  C   C70       1.0  0.808871662757383  0.10429338759973919  0.8519511295463148  1.0000
  C   C71       1.0  0.30208405325035403  0.20041285725447008  0.23432004389322  1.0000
  C   C72       1.0  0.4096603268047048  0.3568273994747814  0.35130113854849304  1.0000
  C   C73       1.0  0.2138176480519149  0.5097140595268996  0.6654688686286648  1.0000
  C   C74       1.0  0.590334389620047  0.643172635669629  0.6486935994702068  1.0000
  C   C75       1.0  0.34804560401026663  0.20223784095875164  0.38023982932443096  1.0000
  C   C76       1.0  0.3182610164561482  0.4436443581939996  0.1006279165561636  1.0000
  C   C77       1.0  0.3898974366934239  0.6381899289298402  0.008012733286754727  1.0000
  C   C78       1.0  0.6121383965077598  0.7913683305537306  0.3111971498907593  1.0000
  C   C79       1.0  0.3702769593645598  0.21283427751144054  0.7755666960045106  1.0000
  C   C80       1.0  0.6697534891774666  0.959829902031807  0.3491259003623313  1.0000
  C   C81       1.0  0.4669030446549343  0.4060460568662024  0.045255431153677306  1.0000
  C   C82       1.0  0.17911675394059753  0.7912541015433305  0.8110845310501064  1.0000
  C   C83       1.0  0.23435668307172353  0.3749863146367431  0.03363292963204859  1.0000
  C   C84       1.0  0.1609059224745693  0.5056954289673357  0.37592443170278506  1.0000
  C   C85       1.0  0.15722715287452615  0.7868941072494948  0.7242972075480836  1.0000
  C   C86       1.0  0.5331027904458239  0.5939619392117806  0.9547509234930162  1.0000
  C   C87       1.0  0.8994422486351181  0.2515564284084775  0.8213140319661891  1.0000
  C   C88       1.0  0.29590956024188136  0.5094410573045353  0.16531347600911064  1.0000
  C   C89       1.0  0.7100163889822823  0.04042344989217378  0.15135846062718633  1.0000
  C   C90       1.0  0.7534746929912258  0.1214523653523898  0.12709211777468002  1.0000
  C   C91       1.0  0.19113167984050963  0.8957124786728629  0.1480539942114376  1.0000
  C   C92       1.0  0.7508537540910966  0.8976924381467697  0.7933865411854555  1.0000
  C   C93       1.0  0.28998022996724876  0.9595761074078197  0.8486467311623687  1.0000
  C   C94       1.0  0.6475072462015489  0.7485209701794915  0.6785420475272305  1.0000
  C   C95       1.0  0.10055572350530176  0.7484444051908808  0.17868529440781333  1.0000
  C   C96       1.0  0.14140116328788818  0.3752760062023127  0.5338041368885058  1.0000
  C   C97       1.0  0.9730201721027069  0.5472402840776595  0.3928809977840402  1.0000
  C   C98       1.0  0.15552290163144283  0.5786744747074266  0.4453630508772621  1.0000
  C   C99       1.0  0.8427800414945634  0.21310516132323443  0.27569481767525167  1.0000
  C   C100      1.0  0.8691754276213642  0.2955941219253191  0.1620807990373194  1.0000
  C   C101      1.0  0.24163236505942354  0.4970726945225721  0.8715935282146534  1.0000
  C   C102      1.0  0.660904043987976  0.3751404337514756  0.5021453077128726  1.0000
  C   C103      1.0  0.24539734914188924  0.052043908376283816  0.26487705467529576  1.0000
  C   C104      1.0  0.38786388102856506  0.2086325411342713  0.6888040556073493  1.0000
  N   N1        1.0  0.343402239795715  0.5555279720692141  0.4307665902699966  1.0000
  N   N2        1.0  0.8843397937706142  0.5605476977689322  0.904528114710189  1.0000
  N   N3        1.0  0.3243601994427436  0.439752070924186  0.5957653423283775  1.0000
  N   N4        1.0  0.2118414298686773  0.5557572561423783  0.930852463224227  1.0000
  N   N5        1.0  0.7881598282285722  0.44424586853720177  0.06915561565868698  1.0000
  N   N6        1.0  0.11566666981024555  0.43946012278662755  0.09547009105077112  1.0000
  N   N7        1.0  0.6565929462539515  0.4444601299922297  0.569227854264348  1.0000
  N   N8        1.0  0.6756431635222099  0.5602466824911545  0.4042352579872245  1.0000
  O   O1        1.0  0.5506891077385843  0.6249026023230754  0.27985821485663814  1.0000
  O   O2        1.0  0.050491339512760164  0.5982659083695337  0.06796295116001962  1.0000
  O   O3        1.0  0.5476424583926444  0.5983545910347842  0.5678590072377007  1.0000
  O   O4        1.0  0.4354927696356085  0.28592120949305416  0.5809584397298481  1.0000
  O   O5        1.0  0.41512608429361814  0.40022167170072004  0.2963833370041939  1.0000
  O   O6        1.0  0.1492429493592836  0.7143160640116334  0.9192355820042338  1.0000
  O   O7        1.0  0.07394956909414666  0.6249013881691068  0.7801591363954259  1.0000
  O   O8        1.0  0.9260394012954974  0.3751014467221053  0.2198351562294079  1.0000
  O   O9        1.0  0.850790439243447  0.28566555645265623  0.08075202150542543  1.0000
  O   O10       1.0  0.44931489908780253  0.37510173052073276  0.7201408640640496  1.0000
  O   O11       1.0  0.5645016696742999  0.7140768428732754  0.4190419617541394  1.0000
  O   O12       1.0  0.5848708282924875  0.5997713167823662  0.7036100110052033  1.0000
  O   O13       1.0  0.014393949063261914  0.5996625930986568  0.20366116805309534  1.0000
  O   O14       1.0  0.45234405742595374  0.4016504841517943  0.43214153239722464  1.0000
  O   O15       1.0  0.9855986619722754  0.40033179603350527  0.7963319577048935  1.0000
  O   O16       1.0  0.9495105751223177  0.40173280540579975  0.9320357691404197  1.0000
