data_image0
_chemical_formula_structural       Cd4H28C28N4O28
_chemical_formula_sum              "Cd4 H28 C28 N4 O28"
_cell_length_a       6.284946788496152
_cell_length_b       10.75074204812188
_cell_length_c       15.930183885862434
_cell_angle_alpha    92.44556240559511
_cell_angle_beta     102.74993757422303
_cell_angle_gamma    101.54748370354024

_space_group_name_H-M_alt    "P 1"
_space_group_IT_number       1

loop_
  _space_group_symop_operation_xyz
  'x, y, z'

loop_
  _atom_site_type_symbol
  _atom_site_label
  _atom_site_symmetry_multiplicity
  _atom_site_fract_x
  _atom_site_fract_y
  _atom_site_fract_z
  _atom_site_occupancy
  Cd  Cd1       1.0  0.18848854114160227  0.4046087793745558  0.5668437421894978  1.0000
  Cd  Cd2       1.0  0.8115066516329746  0.5953918739909198  0.43315729401417974  1.0000
  Cd  Cd3       1.0  0.45518433817289156  0.4700607108443152  0.8728901947073384  1.0000
  Cd  Cd4       1.0  0.544815262439421  0.5299389588376117  0.12710927698952906  1.0000
  H   H1        1.0  0.8143529010669042  0.16126522118906914  0.25473962864510474  1.0000
  H   H2        1.0  0.185651500849751  0.8387382301124688  0.7452597479470242  1.0000
  H   H3        1.0  0.6619102675539493  0.9518622122616237  0.46827160704543763  1.0000
  H   H4        1.0  0.3380901450394092  0.04813554109694709  0.5317272293534218  1.0000
  H   H5        1.0  0.6511701786341673  0.8364056838633754  0.6657098055562827  1.0000
  H   H6        1.0  0.34882863322030017  0.163592079703939  0.3342895295857033  1.0000
  H   H7        1.0  0.9358437231437192  0.9508445281177489  0.9372933075800207  1.0000
  H   H8        1.0  0.0641530257479985  0.04915613542321753  0.0627059713370599  1.0000
  H   H9        1.0  0.5442372884459844  0.8727345644535733  0.3218825106784352  1.0000
  H   H10       1.0  0.4557593488913767  0.1272661500479941  0.678113621879959  1.0000
  H   H11       1.0  0.8481101845636869  0.041434453563347504  0.7180827400561114  1.0000
  H   H12       1.0  0.15189224545834895  0.9585642324516573  0.28191629514880395  1.0000
  H   H13       1.0  0.6507830667790698  0.39563179681800165  0.5792600244514716  1.0000
  H   H14       1.0  0.3492121036846356  0.6043688667395912  0.4207403824804673  1.0000
  H   H15       1.0  0.5133152541974653  0.3300145994885425  0.49029559847225107  1.0000
  H   H16       1.0  0.48667949957643936  0.6699851212038653  0.5097041109105052  1.0000
  H   H17       1.0  0.16002212873479493  0.6036279871901371  0.9392915324606224  1.0000
  H   H18       1.0  0.8399787228592288  0.3963706988415012  0.0607086307591516  1.0000
  H   H19       1.0  0.06406954421498068  0.587356486089199  0.8338438708863338  1.0000
  H   H20       1.0  0.9359312850681646  0.4126422101345567  0.16615566306170856  1.0000
  H   H21       1.0  0.17249644222638946  0.2595494872479236  0.7539297985166018  1.0000
  H   H22       1.0  0.8275011409572457  0.7404492497775691  0.24606947437420257  1.0000
  H   H23       1.0  0.17857058969381964  0.23353473031961158  0.8538733884835994  1.0000
  H   H24       1.0  0.8214257648189757  0.7664649801640521  0.14612582215603714  1.0000
  H   H25       1.0  0.7882870354660483  0.29208360936841865  0.9108054518440697  1.0000
  H   H26       1.0  0.2117142328177692  0.7079160195283976  0.08919540892488702  1.0000
  H   H27       1.0  0.9120025763604571  0.43406831859829953  0.911458097562104  1.0000
  H   H28       1.0  0.08799702425186245  0.5659313510836272  0.08854137413476343  1.0000
  C   C1        1.0  0.03155552421824129  0.3852735228337493  0.3549470511893916  1.0000
  C   C2        1.0  0.9684454612410107  0.6147251020451705  0.6450568876608004  1.0000
  C   C3        1.0  0.9419883347171878  0.25595287659275817  0.3832520940983103  1.0000
  C   C4        1.0  0.05801131142919059  0.7440429604590764  0.6167472350173995  1.0000
  C   C5        1.0  0.8288901819307382  0.1533771689514722  0.3234620286745553  1.0000
  C   C6        1.0  0.17111229180072482  0.8466253089251481  0.6765396661984655  1.0000
  C   C7        1.0  0.7270505878216299  0.04081280710644819  0.3533301137744972  1.0000
  C   C8        1.0  0.2729549990564379  0.9591858788753029  0.6466666654007085  1.0000
  C   C9        1.0  0.7432752948526298  0.0356860565503752  0.4422928691385267  1.0000
  C   C10       1.0  0.25672913028721916  0.9643135723131949  0.5577057356007133  1.0000
  C   C11       1.0  0.8669821944731595  0.14143097814662298  0.49764312244282405  1.0000
  C   C12       1.0  0.13301984116996118  0.858566754811079  0.5023558444846472  1.0000
  C   C13       1.0  0.8970625849335149  0.14289600027635882  0.5946870241148474  1.0000
  C   C14       1.0  0.10294026177831482  0.8571036286038307  0.40531270863924374  1.0000
  C   C15       1.0  0.47042009344225727  0.5917724010446933  0.6882957214607688  1.0000
  C   C16       1.0  0.5295759336242298  0.4082263258053019  0.3117053087166327  1.0000
  C   C17       1.0  0.5994587801452127  0.6968553490399999  0.7558268675354542  1.0000
  C   C18       1.0  0.400540008486061  0.30314623696528287  0.24417323945941405  1.0000
  C   C19       1.0  0.6811291759534653  0.8172156252079503  0.7332450388624707  1.0000
  C   C20       1.0  0.3188704469697256  0.18278403428185902  0.2667550621061352  1.0000
  C   C21       1.0  0.8052501473434006  0.9129485174947264  0.7989503856607245  1.0000
  C   C22       1.0  0.1947478079082856  0.08705118278018628  0.20104832623579236  1.0000
  C   C23       1.0  0.8398606944723213  0.8801029929273059  0.8847828077985725  1.0000
  C   C24       1.0  0.1601340369907192  0.11989673795721961  0.1152162723124448  1.0000
  C   C25       1.0  0.7460883505836404  0.7579851057893593  0.9011857743009275  1.0000
  C   C26       1.0  0.2539153295077838  0.24201640882120753  0.09881535355152951  1.0000
  C   C27       1.0  0.7658670861955484  0.7221556846259177  0.9928814245362221  1.0000
  C   C28       1.0  0.2341321869704558  0.27784300142234747  0.007119866698410205  1.0000
  N   N1        1.0  0.9648424154497164  0.24805641794483077  0.4685863880309925  1.0000
  N   N2        1.0  0.0351600582817468  0.7519460599317895  0.5314153068420284  1.0000
  N   N3        1.0  0.6271783318242115  0.6670504906480659  0.838091745290953  1.0000
  N   N4        1.0  0.37282170778877344  0.3329501117069286  0.16190905322682883  1.0000
  O   O1        1.0  0.02104544184795289  0.3952105489196994  0.2765785662856217  1.0000
  O   O2        1.0  0.9789570755929304  0.6047957208185224  0.7234257882554973  1.0000
  O   O3        1.0  0.10698887280360489  0.47859729244118665  0.4156810284487237  1.0000
  O   O4        1.0  0.8930092386241809  0.5214023364888831  0.5843220883499499  1.0000
  O   O5        1.0  0.6141800454676627  0.9439906472437869  0.2940556641841568  1.0000
  O   O6        1.0  0.38582194464138536  0.05601091834400051  0.7059434453244721  1.0000
  O   O7        1.0  0.7812304016795791  0.05005529761051971  0.622083787787908  1.0000
  O   O8        1.0  0.21876762141704378  0.9499405598421902  0.377915410799183  1.0000
  O   O9        1.0  0.03594569686556779  0.2359475063161298  0.6416047362337522  1.0000
  O   O10       1.0  0.9640482458396278  0.7640503184537905  0.35839420732238386  1.0000
  O   O11       1.0  0.43220422990631846  0.6137050073987922  0.6088241808221968  1.0000
  O   O12       1.0  0.567790850401579  0.38629950917312783  0.3911751101474224  1.0000
  O   O13       1.0  0.3947614969712632  0.4834954507002037  0.7120215694267602  1.0000
  O   O14       1.0  0.6052401433806054  0.5165051414460465  0.287978730347895  1.0000
  O   O15       1.0  0.8909126551249003  0.030112901054010904  0.7833854449167745  1.0000
  O   O16       1.0  0.1090893805182134  0.9698848319036911  0.21661352201070375  1.0000
  O   O17       1.0  0.9013626566690717  0.7970478218801416  0.05272166355694454  1.0000
  O   O18       1.0  0.0986438296088821  0.2029565315014707  0.9472797996564567  1.0000
  O   O19       1.0  0.6375727629979836  0.6170838754242992  0.0015727220153110184  1.0000
  O   O20       1.0  0.3624292717328074  0.3829176697792533  0.9984276460367882  1.0000
  O   O21       1.0  0.5130969973663541  0.33041344019734004  0.552346653969181  1.0000
  O   O22       1.0  0.4868977564075578  0.6695862804950679  0.44765305541357503  1.0000
  O   O23       1.0  0.11710574177143938  0.5450984009454629  0.8861758503072893  1.0000
  O   O24       1.0  0.8828967328723466  0.454900264685307  0.11382444344110354  1.0000
  O   O25       1.0  0.267161027974268  0.27455186026101336  0.81344660926964  1.0000
  O   O26       1.0  0.732836971899161  0.7254478196296574  0.18655336117034696  1.0000
  O   O27       1.0  0.7831410446589046  0.3792562770801453  0.9290362174079478  1.0000
  O   O28       1.0  0.21685855595340797  0.6207433926017811  0.07096325428891963  1.0000
