data_image0
_chemical_formula_structural       CdH36C36Br2N4O5
_chemical_formula_sum              "Cd1 H36 C36 Br2 N4 O5"
_cell_length_a       5.793168335790152
_cell_length_b       13.288094817175697
_cell_length_c       12.259358402889207
_cell_angle_alpha    111.64433954368877
_cell_angle_beta     93.56497958205748
_cell_angle_gamma    89.28307975103128

_space_group_name_H-M_alt    "P 1"
_space_group_IT_number       1

loop_
  _space_group_symop_operation_xyz
  'x, y, z'

loop_
  _atom_site_type_symbol
  _atom_site_label
  _atom_site_symmetry_multiplicity
  _atom_site_fract_x
  _atom_site_fract_y
  _atom_site_fract_z
  _atom_site_occupancy
  Cd  Cd1       1.0  0.8142174920437311  0.4087397299434699  0.4421535407098532  1.0000
  H   H1        1.0  0.3914247478554315  0.4510259127391052  0.25159961888565635  1.0000
  H   H2        1.0  0.27431607063983404  0.3880944197100222  0.6412338715485932  1.0000
  H   H3        1.0  0.584747366995181  0.6202297204342956  0.6453588950505779  1.0000
  H   H4        1.0  0.047575902076495376  0.19667899870735536  0.23081250186690747  1.0000
  H   H5        1.0  0.612403832822622  0.3474826039068048  0.7308711449504843  1.0000
  H   H6        1.0  0.57040261970058  0.36316602333001663  0.8789394324171415  1.0000
  H   H7        1.0  0.7547044085913014  0.45320131194147  0.8492085504772365  1.0000
  H   H8        1.0  0.1323816374404672  0.7079552437224947  0.008292539569666173  1.0000
  H   H9        1.0  0.6001627327274476  0.0598131324882232  0.6616680843602227  1.0000
  H   H10       1.0  0.46189495363626065  0.12134721756851971  0.8831823179479347  1.0000
  H   H11       1.0  0.459075187341277  0.6681230954826702  0.10367588253309629  1.0000
  H   H12       1.0  0.6906494095955296  0.6025779667934897  0.015351417841316101  1.0000
  H   H13       1.0  0.50684496130296  0.5274573262424552  0.06606724665884657  1.0000
  H   H14       1.0  0.7985256838956186  0.0555829885775623  0.488961539749319  1.0000
  H   H15       1.0  0.49135504557784065  0.18592807429151034  0.5588130242284921  1.0000
  H   H16       1.0  0.9134584412598485  0.9185674730967006  0.5771391588208844  1.0000
  H   H17       1.0  0.07979355150879998  0.5107920598612097  0.16150020478908547  1.0000
  H   H18       1.0  0.8859004568688461  0.4029615452163639  0.08223991240965488  1.0000
  H   H19       1.0  0.05067584484658741  0.4631679755395907  0.005656805463225052  1.0000
  H   H20       1.0  0.36447582439824794  0.6902384975674069  0.42759241459494063  1.0000
  H   H21       1.0  0.6854166076895963  0.6863427640739487  0.2644962316513856  1.0000
  H   H22       1.0  0.5725552573008698  0.9728244676949062  0.9573532560881478  1.0000
  H   H23       1.0  0.7480705876510496  0.954599939597827  0.07211276302590611  1.0000
  H   H24       1.0  0.5344885913921046  0.7648144935590864  0.8430120220958204  1.0000
  H   H25       1.0  0.6907085151276106  0.7515476790751804  0.9648003687735385  1.0000
  H   H26       1.0  0.8627585333082094  0.8697958523765976  0.811456834782476  1.0000
  H   H27       1.0  0.031588858058086054  0.8499700945409784  0.9266788935446048  1.0000
  H   H28       1.0  0.9074049685055738  0.06931852843526802  0.912788641133567  1.0000
  H   H29       1.0  0.07434332265376038  0.05421746149783499  0.031224738025507306  1.0000
  H   H30       1.0  0.4821564727136903  0.8388672173247824  0.3646845293519051  1.0000
  H   H31       1.0  0.8078542134402369  0.827616864856978  0.1892640197005378  1.0000
  H   H32       1.0  0.11881808163121822  0.1682546444263906  0.7987752408451174  1.0000
  H   H33       1.0  0.10808070382525865  0.30950475305662917  0.8313377235167041  1.0000
  H   H34       1.0  0.9152844259740148  0.2502420686843152  0.8961278205101241  1.0000
  H   H35       1.0  0.33378121753269596  0.4739609775071258  0.44496393721075134  1.0000
  H   H36       1.0  0.3431530146275036  0.3538540943456995  0.4430935658192895  1.0000
  C   C1        1.0  0.5848368990070154  0.30543399524463405  0.16487966726893435  1.0000
  C   C2        1.0  0.05314049219372653  0.5241450448028928  0.7232941563027996  1.0000
  C   C3        1.0  0.406365055555632  0.37909262638296326  0.1724000100692393  1.0000
  C   C4        1.0  0.24097660396305534  0.45653429565531667  0.720808272789782  1.0000
  C   C5        1.0  0.7403854608336574  0.6016877240240318  0.6880920099501824  1.0000
  C   C6        1.0  0.6050947798855119  0.21392929400608549  0.06034779640823733  1.0000
  C   C7        1.0  0.38957513052638854  0.4796107192437303  0.8211439053495229  1.0000
  C   C8        1.0  0.8920512595535327  0.21921552079445664  0.19113133344567507  1.0000
  C   C9        1.0  0.24796501321108616  0.35922606264267637  0.07595877369158192  1.0000
  C   C10       1.0  0.5917212921679036  0.4070717831844988  0.8195574195130748  1.0000
  C   C11       1.0  0.16203077797526785  0.6388430143768532  0.9281156129892384  1.0000
  C   C12       1.0  0.34987533969838575  0.5708919295116246  0.9250429522460809  1.0000
  C   C13       1.0  0.26690181562623366  0.26548674912261566  0.9716183109531831  1.0000
  C   C14       1.0  0.1356185184517073  0.1305695825214315  0.5207859398917238  1.0000
  C   C15       1.0  0.42575545883517657  0.0578934034685545  0.62217646526738  1.0000
  C   C16       1.0  0.06697223451220675  0.21450292942068222  0.4697808285788058  1.0000
  C   C17       1.0  0.4469648656692015  0.19237376880074214  0.9634746830748642  1.0000
  C   C18       1.0  0.5093996891182541  0.5939168028653512  0.032956324215206195  1.0000
  C   C19       1.0  0.9741069400577229  0.055403304917454904  0.5262583204123106  1.0000
  C   C20       1.0  0.36306092058451594  0.12974600283199317  0.5665405624486086  1.0000
  C   C21       1.0  0.2615132494591846  0.9835689066574318  0.6258090254087494  1.0000
  C   C22       1.0  0.036528571646442694  0.9797640212337128  0.5767871258774876  1.0000
  C   C23       1.0  0.05654761864681029  0.43810940961211026  0.0817384829769239  1.0000
  C   C24       1.0  0.01530734069974213  0.6142260474116696  0.8268088090720274  1.0000
  C   C25       1.0  0.24015505109723279  0.7225308889114999  0.3788605914280013  1.0000
  C   C26       1.0  0.8596388573399878  0.7204045606361189  0.28514883560546883  1.0000
  C   C27       1.0  0.013932425947487578  0.6811365066225363  0.352133770804251  1.0000
  C   C28       1.0  0.7522961639384961  0.9621365177287516  0.9857245662050932  1.0000
  C   C29       1.0  0.7102281401264391  0.759834570446806  0.8798103587485077  1.0000
  C   C30       1.0  0.8530122482535063  0.8607444965800185  0.8967999029474785  1.0000
  C   C31       1.0  0.8963757246516336  0.06169555300493101  0.998717204079249  1.0000
  C   C32       1.0  0.93278674319847  0.5930568320163516  0.3904532306405671  1.0000
  C   C33       1.0  0.3089925192603998  0.8038878253947598  0.3409147123552075  1.0000
  C   C34       1.0  0.15406186867892294  0.8394492860175972  0.2715131730842374  1.0000
  C   C35       1.0  0.928289713953376  0.7986821553337435  0.24284046555113298  1.0000
  C   C36       1.0  0.09379164114098157  0.24669320089632416  0.8692090998278633  1.0000
  Br  Br1       1.0  0.3490454981472623  0.8827420755268207  0.6985591885377789  1.0000
  Br  Br2       1.0  0.257875925650353  0.9449243373306757  0.21302514418660934  1.0000
  N   N1        1.0  0.7665890534940233  0.30539430141246277  0.24485663964363621  1.0000
  N   N2        1.0  0.8780760691024554  0.5192538280062848  0.6384924953012006  1.0000
  N   N3        1.0  0.8138750502753708  0.6616651479383152  0.8014887938563791  1.0000
  N   N4        1.0  0.803790756922389  0.16140901594837226  0.07990149544009743  1.0000
  O   O1        1.0  0.8678600770784113  0.2564397674867536  0.49246096071148343  1.0000
  O   O2        1.0  0.21297920474763996  0.23885805355391196  0.410200537340778  1.0000
  O   O3        1.0  0.08487453741259536  0.527651925049831  0.40595037480505186  1.0000
  O   O4        1.0  0.7195166444716746  0.5848724304823207  0.4022486972676661  1.0000
  O   O5        1.0  0.42907841747268083  0.42468008275143637  0.4722923706215811  1.0000
