data_image0
_chemical_formula_structural       Cd2H40C44N4O8
_chemical_formula_sum              "Cd2 H40 C44 N4 O8"
_cell_length_a       9.98248385330205
_cell_length_b       10.197843282798098
_cell_length_c       11.48376450488922
_cell_angle_alpha    102.59678870771566
_cell_angle_beta     99.60743410152823
_cell_angle_gamma    119.22959091980127

_space_group_name_H-M_alt    "P 1"
_space_group_IT_number       1

loop_
  _space_group_symop_operation_xyz
  'x, y, z'

loop_
  _atom_site_type_symbol
  _atom_site_label
  _atom_site_symmetry_multiplicity
  _atom_site_fract_x
  _atom_site_fract_y
  _atom_site_fract_z
  _atom_site_occupancy
  Cd  Cd1       1.0  0.9418356656970702  0.6007346083372413  0.6280397554314376  1.0000
  Cd  Cd2       1.0  0.058165617500961275  0.3992672579600338  0.37196043057723926  1.0000
  H   H1        1.0  0.05502282317387858  0.3798439460527022  0.6894700408554825  1.0000
  H   H2        1.0  0.9449805153009835  0.6201579430173185  0.3105295957122464  1.0000
  H   H3        1.0  0.20801975986396573  0.35303848581201436  0.8684840079901761  1.0000
  H   H4        1.0  0.7919777932095896  0.6469621526741703  0.13151623458133338  1.0000
  H   H5        1.0  0.23521245743850738  0.7565176550601579  0.11650966029007037  1.0000
  H   H6        1.0  0.7647817132603552  0.2434805534615592  0.8834913293623429  1.0000
  H   H7        1.0  0.08268812481465217  0.7669032821539262  0.9270220612826987  1.0000
  H   H8        1.0  0.9173118476252143  0.2330961868955157  0.0729774559473739  1.0000
  H   H9        1.0  0.25461642720004835  0.5177604190451036  0.1856738579850727  1.0000
  H   H10       1.0  0.7453811258735074  0.48224021944108836  0.8143263845864366  1.0000
  H   H11       1.0  0.3247534566917878  0.42755316796255016  0.08541097573084498  1.0000
  H   H12       1.0  0.6752417498153349  0.5724450569174805  0.9145893059918178  1.0000
  H   H13       1.0  0.49077747823287865  0.7869996780931955  0.23051937752449442  1.0000
  H   H14       1.0  0.5092201476405549  0.21299737735009933  0.7694801788567317  1.0000
  H   H15       1.0  0.5626580042989248  0.7132319100231328  0.12109758184031694  1.0000
  H   H16       1.0  0.4373369272582935  0.286763933967386  0.8789013231739916  1.0000
  H   H17       1.0  0.4012705419515186  0.4222164298535489  0.27543042129718737  1.0000
  H   H18       1.0  0.5987307977067005  0.5777818434569396  0.7245699449397731  1.0000
  H   H19       1.0  0.5780456745415634  0.40385137736933524  0.44043092539873635  1.0000
  H   H20       1.0  0.4219579388832031  0.5961528925901973  0.5595700878773471  1.0000
  H   H21       1.0  0.9711178824835399  0.8548264271096001  0.500110692111235  1.0000
  H   H22       1.0  0.0288848169519227  0.1451742732804036  0.4998877436486353  1.0000
  H   H23       1.0  0.8108156258848496  0.8940282716717435  0.33407782653728896  1.0000
  H   H24       1.0  0.1891810131994092  0.1059687972449055  0.6659198385179933  1.0000
  H   H25       1.0  0.015423467847853126  0.09571267208238511  0.8929176781641385  1.0000
  H   H26       1.0  0.9845761078231449  0.9042879692887598  0.10708374780355  1.0000
  H   H27       1.0  0.9564668571323764  0.07485253931286448  0.7335168294321048  1.0000
  H   H28       1.0  0.04353339025740151  0.9251493106260896  0.2664840645063221  1.0000
  H   H29       1.0  0.792384704893685  0.9224331275692492  0.9807467207690904  1.0000
  H   H30       1.0  0.2076142317379137  0.0775663251218788  0.019253504390732708  1.0000
  H   H31       1.0  0.520727986148337  0.8542081880451561  0.991311516583927  1.0000
  H   H32       1.0  0.47927061907317653  0.1457924767432459  0.00868715163925772  1.0000
  H   H33       1.0  0.33215683488938924  0.8559832960940242  0.8215237488475251  1.0000
  H   H34       1.0  0.6678469003543412  0.14401742065429343  0.17847397898258777  1.0000
  H   H35       1.0  0.6840954653604782  0.9872670536600051  0.6266265451857719  1.0000
  H   H36       1.0  0.3159088435638679  0.012734811992757498  0.37337584912646077  1.0000
  H   H37       1.0  0.4396554215953615  0.002350502422650902  0.5649885553410811  1.0000
  H   H38       1.0  0.5603462420318481  0.9976501816090322  0.43501058834853257  1.0000
  H   H39       1.0  0.2935973866337633  0.9398877518995832  0.6461391519407086  1.0000
  H   H40       1.0  0.7064046247432287  0.060111729978707694  0.3538606822669833  1.0000
  C   C1        1.0  0.0978738426884505  0.4607112292417526  0.7858178152336277  1.0000
  C   C2        1.0  0.9021261297514087  0.5392882398076894  0.21418170199644496  1.0000
  C   C3        1.0  0.18252669743331046  0.4465893500180372  0.8861148978828267  1.0000
  C   C4        1.0  0.8174702002611625  0.5534100898442347  0.11388501029938414  1.0000
  C   C5        1.0  0.23453044921857472  0.5519792492853811  0.008713687494498917  1.0000
  C   C6        1.0  0.7654644986783339  0.4480166046490339  0.9912843511012426  1.0000
  C   C7        1.0  0.19841820117387254  0.6701936931638885  0.023741266506114325  1.0000
  C   C8        1.0  0.8015780248018203  0.3298045381305669  0.976259173705358  1.0000
  C   C9        1.0  0.11368796098032884  0.6773286420757361  0.9188610488652953  1.0000
  C   C10       1.0  0.8863119787801425  0.32267080708592033  0.08114020120191161  1.0000
  C   C11       1.0  0.32258098028749066  0.5358974554492733  0.11831580139230616  1.0000
  C   C12       1.0  0.6774142098799418  0.46410075948686114  0.8816853467489165  1.0000
  C   C13       1.0  0.49505087066359715  0.6819532796969837  0.18802812343917444  1.0000
  C   C14       1.0  0.5049474269286165  0.3180449843141133  0.8119709009127901  1.0000
  C   C15       1.0  0.5913017310960598  0.6610956417209691  0.28986718500836867  1.0000
  C   C16       1.0  0.40869953576228113  0.3389062146324093  0.710133867418868  1.0000
  C   C17       1.0  0.5271393296032585  0.5222920271373753  0.321056848924492  1.0000
  C   C18       1.0  0.4728625926341651  0.4777110278399235  0.6789445378920431  1.0000
  C   C19       1.0  0.6255256411514053  0.5105532905106075  0.41402546129990714  1.0000
  C   C20       1.0  0.374477713663147  0.48944860850330224  0.5859733088492616  1.0000
  C   C21       1.0  0.8441303739532202  0.7626677252340031  0.44732422223895435  1.0000
  C   C22       1.0  0.1558715482842032  0.2373353297432956  0.5526771645775809  1.0000
  C   C23       1.0  0.7541628951072211  0.7838694902932487  0.35614095337118096  1.0000
  C   C24       1.0  0.24583774905141811  0.21613118732400244  0.6438580318296302  1.0000
  C   C25       1.0  0.9520516903769688  0.8735300347382944  0.7639617305789128  1.0000
  C   C26       1.0  0.0479508872395371  0.1264742188629171  0.23603999062692074  1.0000
  C   C27       1.0  0.9250310951870305  0.010689762366979499  0.7999591871508756  1.0000
  C   C28       1.0  0.07497122381926152  0.9893121202886164  0.20004029092804385  1.0000
  C   C29       1.0  0.7574926059379479  0.9611813750892252  0.8034539499612376  1.0000
  C   C30       1.0  0.24250935641996557  0.0388180769573907  0.1965484835021485  1.0000
  C   C31       1.0  0.7088037583788207  0.9205154651227829  0.9048149005490983  1.0000
  C   C32       1.0  0.2911935762050106  0.07947919948709628  0.09518414554234057  1.0000
  C   C33       1.0  0.5561230629815483  0.8814314674709252  0.9106260786902423  1.0000
  C   C34       1.0  0.4438779125871903  0.11856799804905188  0.08937446344720712  1.0000
  C   C35       1.0  0.4496294411155334  0.8816481944556076  0.8151344759248146  1.0000
  C   C36       1.0  0.5503701999142335  0.1183524866911156  0.18486348436861988  1.0000
  C   C37       1.0  0.4936799575156742  0.9183178467276036  0.7114468454265789  1.0000
  C   C38       1.0  0.5063200149241852  0.08168162232183822  0.28855267180349387  1.0000
  C   C39       1.0  0.6480260827354842  0.9575046345790456  0.7067285557343935  1.0000
  C   C40       1.0  0.3519738897043752  0.0424948344703964  0.29327096149567916  1.0000
  C   C41       1.0  0.3742372052001032  0.9132710860508054  0.6072492970930269  1.0000
  C   C42       1.0  0.6257667559744535  0.08673198175534219  0.3927524067011277  1.0000
  C   C43       1.0  0.2714429379957935  0.7459991105854514  0.5061568508613873  1.0000
  C   C44       1.0  0.728556047654891  0.25400037193735153  0.49384077504274865  1.0000
  N   N1        1.0  0.06405160726811235  0.574507460001243  0.8014864325163413  1.0000
  N   N2        1.0  0.9359506953984891  0.42549441271045646  0.19851391198114496  1.0000
  N   N3        1.0  0.7817432029530735  0.6277672698775659  0.4762433238012206  1.0000
  N   N4        1.0  0.2182594801427058  0.3722334205685343  0.5237559783772099  1.0000
  O   O1        1.0  0.07405597769578533  0.9011232337894343  0.7272539042609621  1.0000
  O   O2        1.0  0.9259432665651134  0.09887861967898459  0.2727459647700883  1.0000
  O   O3        1.0  0.8524359877841692  0.7391523026157358  0.770358643805231  1.0000
  O   O4        1.0  0.14756961555864478  0.2608519503409638  0.22964528570416573  1.0000
  O   O5        1.0  0.3275276250393945  0.7036169912674382  0.4263763811833526  1.0000
  O   O6        1.0  0.6724723236196724  0.29638609065658267  0.5736212229813091  1.0000
  O   O7        1.0  0.12825081177128786  0.6493731420163797  0.5102015489529562  1.0000
  O   O8        1.0  0.8717491770082687  0.35062633697695134  0.48979710185854936  1.0000
