data_image0
_chemical_formula_structural       Zn2H8C8N4Cl4
_chemical_formula_sum              "Zn2 H8 C8 N4 Cl4"
_cell_length_a       3.5503217430052296
_cell_length_b       7.056200288453441
_cell_length_c       12.177076104778681
_cell_angle_alpha    89.99870998651262
_cell_angle_beta     89.99980489725853
_cell_angle_gamma    89.99997571404742

_space_group_name_H-M_alt    "P 1"
_space_group_IT_number       1

loop_
  _space_group_symop_operation_xyz
  'x, y, z'

loop_
  _atom_site_type_symbol
  _atom_site_label
  _atom_site_symmetry_multiplicity
  _atom_site_fract_x
  _atom_site_fract_y
  _atom_site_fract_z
  _atom_site_occupancy
  Zn  Zn1       1.0  0.9999994079332951  1.6883345919999722e-07  0.5000013056492352  1.0000
  Zn  Zn2       1.0  0.9999995090380907  9.815852436599996e-06  2.788043502700001e-06  1.0000
  H   H1        1.0  0.9999975553998864  0.9158097689123111  0.7500044038937619  1.0000
  H   H2        1.0  0.9999980139685789  0.08419761381134087  0.2500031362936853  1.0000
  H   H3        1.0  4.229075049999802e-08  0.4174589194931357  0.9273487752881809  1.0000
  H   H4        1.0  7.235055219999966e-08  0.582550331536929  0.4273655977164027  1.0000
  H   H5        1.0  0.9999988347821257  0.5825485680638421  0.07263873126998283  1.0000
  H   H6        1.0  2.1122370341999986e-06  0.417430333514595  0.5726363664277871  1.0000
  H   H7        1.0  3.813422516399999e-06  0.6047756186488158  0.7499872343758299  1.0000
  H   H8        1.0  0.999997880280894  0.39523470324700577  0.2500027358079181  1.0000
  C   C1        1.0  0.9999979190737561  0.0697722762612258  0.7499992849372036  1.0000
  C   C2        1.0  0.9999948336782579  0.93018833911443  0.2500066131284059  1.0000
  C   C3        1.0  5.384827658999976e-07  0.34884988175882364  0.8473727199252469  1.0000
  C   C4        1.0  3.3261901819999998e-06  0.651161038146931  0.3473927471579545  1.0000
  C   C5        1.0  0.9999955218894384  0.6511618572041584  0.15262381997360566  1.0000
  C   C6        1.0  1.6750356194999987e-06  0.34883805041761917  0.6526092168638231  1.0000
  C   C7        1.0  1.0627971036999986e-06  0.45103848576015076  0.7499972775020682  1.0000
  C   C8        1.0  1.1218251642999996e-06  0.5489506825781235  0.24999811686465997  1.0000
  N   N1        1.0  0.9999984478566758  0.15814040601926393  0.6528760463546919  1.0000
  N   N2        1.0  0.9999982550761217  0.8418508838961427  0.15288042908472485  1.0000
  N   N3        1.0  0.9999999382256988  0.8418542221700777  0.3471208181175102  1.0000
  N   N4        1.0  0.9999973142941626  0.1581522472475072  0.8471271111306468  1.0000
  Cl  Cl1       1.0  0.49999607200099666  0.7871887680368345  0.5730722183688928  1.0000
  Cl  Cl2       1.0  0.49999923665192364  0.21282129506360548  0.07307008237923182  1.0000
  Cl  Cl3       1.0  0.5000056216365464  0.21281871925049237  0.4269292488462926  1.0000
  Cl  Cl4       1.0  0.5000024569759489  0.7871975297545359  0.9269322059766838  1.0000
