data_image0
_chemical_formula_structural       Zn2H84C46N18O24
_chemical_formula_sum              "Zn2 H84 C46 N18 O24"
_cell_length_a       10.134745447681572
_cell_length_b       10.570260399746093
_cell_length_c       16.478787609100063
_cell_angle_alpha    91.49284014590904
_cell_angle_beta     94.137529374567
_cell_angle_gamma    90.88914889810016

_space_group_name_H-M_alt    "P 1"
_space_group_IT_number       1

loop_
  _space_group_symop_operation_xyz
  'x, y, z'

loop_
  _atom_site_type_symbol
  _atom_site_label
  _atom_site_symmetry_multiplicity
  _atom_site_fract_x
  _atom_site_fract_y
  _atom_site_fract_z
  _atom_site_occupancy
  Zn  Zn1       1.0  0.35747453572080456  0.5057622244701533  0.4747178008122576  1.0000
  Zn  Zn2       1.0  0.6952331078394423  0.4990786977636999  0.4519888779766603  1.0000
  H   H1        1.0  0.9796055037814283  0.32303590157075485  0.5133406513746905  1.0000
  H   H2        1.0  0.27653534189283857  0.9089981189364379  0.6811360414112857  1.0000
  H   H3        1.0  0.4431972026615868  0.9564981334687699  0.7077217229276584  1.0000
  H   H4        1.0  0.3999748455009283  0.7929356967398391  0.7015531988177701  1.0000
  H   H5        1.0  0.6133293709687422  0.7772628090434495  0.6315052406543062  1.0000
  H   H6        1.0  0.8328867890983532  0.9462828513602869  0.6174168241327039  1.0000
  H   H7        1.0  0.7625079051784169  0.9768271536207391  0.7115314183942587  1.0000
  H   H8        1.0  0.8106294270461945  0.8210092033968193  0.683588902964175  1.0000
  H   H9        1.0  0.3715926346787128  0.13429254407114397  0.5813989948625891  1.0000
  H   H10       1.0  0.6510978932254686  0.20280104429920692  0.6298041466383211  1.0000
  H   H11       1.0  0.8200978593174997  0.7358288161048561  0.5291492288684482  1.0000
  H   H12       1.0  0.13350934086194852  0.34522251136882426  0.42005147283716593  1.0000
  H   H13       1.0  0.15183712049131506  0.7835123754355917  0.5566224061271897  1.0000
  H   H14       1.0  0.9397463259982077  0.5711306969152616  0.3762277095081644  1.0000
  H   H15       1.0  0.0507611347625456  0.7375406297367703  0.38609634237078444  1.0000
  H   H16       1.0  0.7643832473853821  0.5919076746079737  0.625993755133621  1.0000
  H   H17       1.0  0.7371193187824832  0.49804151750538467  0.7513567983109228  1.0000
  H   H18       1.0  0.7942469488593815  0.6547542473584683  0.7700334462290715  1.0000
  H   H19       1.0  0.9072552299465145  0.5292435826688473  0.7811598787036901  1.0000
  H   H20       1.0  0.21207741898015087  0.5537845152758007  0.7348463185590859  1.0000
  H   H21       1.0  0.016901449916851195  0.7110710733360506  0.770499271456579  1.0000
  H   H22       1.0  0.030690574450971994  0.7392258343976578  0.6652530524206028  1.0000
  H   H23       1.0  0.3393633191465781  0.8636797562713523  0.4346612416798764  1.0000
  H   H24       1.0  0.1728049084050909  0.7568018385330715  0.737383025211223  1.0000
  H   H25       1.0  0.8086642311511697  0.28243028229753964  0.43486344654741066  1.0000
  H   H26       1.0  0.9625474937829069  0.4059945300947374  0.32591467893885107  1.0000
  H   H27       1.0  0.7752156987023399  0.3520771566048281  0.5946081865948045  1.0000
  H   H28       1.0  0.8756628804863668  0.18617513908879596  0.6928299384364395  1.0000
  H   H29       1.0  0.7833755454198014  0.30952460452093783  0.7365248189052809  1.0000
  H   H30       1.0  0.9577123622187147  0.3198991696482166  0.7411092542127165  1.0000
  H   H31       1.0  0.25253523684940404  0.42104438659137594  0.6428525839314646  1.0000
  H   H32       1.0  0.18910048110068803  0.19556941770471775  0.6609472593305628  1.0000
  H   H33       1.0  0.18735417284921851  0.24169711080677556  0.5581305610100389  1.0000
  H   H34       1.0  0.7431433832536244  0.9519567233176002  0.5040338406853665  1.0000
  H   H35       1.0  0.035311273238917806  0.22635384880894088  0.6060985006176908  1.0000
  H   H36       1.0  0.3580540193643529  0.7391834275879106  0.9183287839295603  1.0000
  H   H37       1.0  0.07674634108808928  0.6431707265593543  0.9035721013096849  1.0000
  H   H38       1.0  0.1290539830551722  0.801152548404964  0.8889416025533379  1.0000
  H   H39       1.0  0.13983067991067344  0.7391913049692747  0.9886139629901579  1.0000
  H   H40       1.0  0.5687108764243192  0.8039141470740317  0.9853968347518249  1.0000
  H   H41       1.0  0.5624021788966687  0.9107887377473958  0.8601105765524368  1.0000
  H   H42       1.0  0.5643138308982146  0.7634953512527571  0.8061808710255463  1.0000
  H   H43       1.0  0.7072332582189916  0.8159206205018206  0.867489648959179  1.0000
  H   H44       1.0  0.7534320226666864  0.5854271325951215  0.9798744571406176  1.0000
  H   H45       1.0  0.3013855889808498  0.6354660580717206  0.12985100091091795  1.0000
  H   H46       1.0  0.193076802239311  0.43000512015819226  0.9566746002563138  1.0000
  H   H47       1.0  0.7161418084244249  0.46821340595396777  0.07669360935446433  1.0000
  H   H48       1.0  0.8774672559020119  0.5859367199999282  0.155079905977253  1.0000
  H   H49       1.0  0.7239900264197702  0.617321221192256  0.19772985948259966  1.0000
  H   H50       1.0  0.794640519196989  0.7297631649449554  0.13373694843031816  1.0000
  H   H51       1.0  0.2806762615622418  0.35394986177267634  0.05827979687190781  1.0000
  H   H52       1.0  0.0750637164358849  0.38315829995728007  0.11723605503151903  1.0000
  H   H53       1.0  0.0785034713302366  0.5473565399143111  0.09737414586277993  1.0000
  H   H54       1.0  0.19085901958063542  0.48327797921417925  0.17449131288808672  1.0000
  H   H55       1.0  0.321642861091334  0.34369252816616574  0.8753947310377871  1.0000
  H   H56       1.0  0.45722415243934483  0.7224252890774138  0.08299200886602162  1.0000
  H   H57       1.0  0.34082720680213197  0.17075378654810436  0.7853816665900198  1.0000
  H   H58       1.0  0.5080070986546305  0.14533014981813608  0.8211235437568691  1.0000
  H   H59       1.0  0.46777171370644066  0.2811468137041757  0.7631163822352323  1.0000
  H   H60       1.0  0.6914165570415493  0.4389644498652316  0.886570188869726  1.0000
  H   H61       1.0  0.650812627583484  0.17123676574443178  0.9303350393627243  1.0000
  H   H62       1.0  0.7957224100905764  0.26370144952527846  0.9498306667493853  1.0000
  H   H63       1.0  0.7499327214158882  0.20527368422471423  0.8486216960172898  1.0000
  H   H64       1.0  0.39163770903689255  0.23675914121457708  0.9380063200136349  1.0000
  H   H65       1.0  0.6119118740358119  0.26442842765705876  0.0957856185594892  1.0000
  H   H66       1.0  0.5153448079313421  0.8199297760498679  0.333249605578807  1.0000
  H   H67       1.0  0.31751853731839924  0.9830197259463984  0.533095070756268  1.0000
  H   H68       1.0  0.37835303550475885  0.8124263310272257  0.22406682804176375  1.0000
  H   H69       1.0  0.2901820315586435  0.9463305035684396  0.25508195984593135  1.0000
  H   H70       1.0  0.2664390772754217  0.7976196169839227  0.30290848791279507  1.0000
  H   H71       1.0  0.8347942480393941  0.8376406584729209  0.4218823932307744  1.0000
  H   H72       1.0  0.8227956580321278  0.8089805081006459  0.28409322098291784  1.0000
  H   H73       1.0  0.6750928666795915  0.8957712047194519  0.2719461475911373  1.0000
  H   H74       1.0  0.674932287531256  0.7419496347988425  0.31525825036312244  1.0000
  H   H75       1.0  0.36250453163560087  0.21715823343976118  0.36983553117215723  1.0000
  H   H76       1.0  0.16834309444926274  0.14532274214619884  0.29066879347178093  1.0000
  H   H77       1.0  0.1388699962871556  0.15474598462818528  0.3965508327455539  1.0000
  H   H78       1.0  0.7673630582341248  0.15559339669212588  0.5213421236401743  1.0000
  H   H79       1.0  0.16683040497753862  0.006845655448444202  0.3501061422997723  1.0000
  H   H80       1.0  0.5435808906051564  0.08377439741396128  0.32224641704966234  1.0000
  H   H81       1.0  0.6952630983523136  0.10952307972214466  0.23281212054651235  1.0000
  H   H82       1.0  0.8173927996914756  0.08313192458168568  0.3133770042080998  1.0000
  H   H83       1.0  0.7666331393178113  0.2405767398900806  0.29037928524053314  1.0000
  H   H84       1.0  0.3833127036163759  0.7982353487530813  0.5611368979079927  1.0000
  C   C1        1.0  0.555196726096682  0.7348888931635287  0.4744196801100388  1.0000
  C   C2        1.0  0.6499347840177166  0.0907400161088674  0.4304220990026694  1.0000
  C   C3        1.0  0.540279291474313  0.9261222197780296  0.5675869125256909  1.0000
  C   C4        1.0  0.5501733760017588  0.8794868535339685  0.4733114176022967  1.0000
  C   C5        1.0  0.5267686924198074  0.12950322430282307  0.4790040295200982  1.0000
  C   C6        1.0  0.4733623400579887  0.5463426473114764  0.6553239691869523  1.0000
  C   C7        1.0  0.5467805155155503  0.0786368949494687  0.5682776427401421  1.0000
  C   C8        1.0  0.9581108694525967  0.6319907339981511  0.4935621246054894  1.0000
  C   C9        1.0  0.11114291808709001  0.6434136762121695  0.48378411420183215  1.0000
  C   C10       1.0  0.9239782156760085  0.48046289836233297  0.6208379025277395  1.0000
  C   C11       1.0  0.06937200149192081  0.47821570321895  0.6588677374798453  1.0000
  C   C12       1.0  0.5043541321184791  0.35853129742388024  0.018844655155703504  1.0000
  C   C13       1.0  0.9567042459097268  0.4043609025261146  0.4760826805275259  1.0000
  C   C14       1.0  0.08055749979563841  0.4339591881733752  0.42788753352546394  1.0000
  C   C15       1.0  0.51323997248452  0.2753301402416497  0.48797299665154276  1.0000
  C   C16       1.0  0.4954707722937571  0.47882802097878135  0.310464881475923  1.0000
  C   C17       1.0  0.3244617552294287  0.5527367104809782  0.9347410041043533  1.0000
  C   C18       1.0  0.5762651268863622  0.6225671572872143  0.9472637097653448  1.0000
  C   C19       1.0  0.5796792642205092  0.5999039747610622  0.045159287933081806  1.0000
  C   C20       1.0  0.3318302761850235  0.5340015559061584  0.0327846012368269  1.0000
  C   C21       1.0  0.4824941101602179  0.47212058713419947  0.22263912941806305  1.0000
  C   C22       1.0  0.46920303546866654  0.5247330588296109  0.9036203843131859  1.0000
  C   C23       1.0  0.5142846728993717  0.3830242323422509  0.9217569698961869  1.0000
  C   C24       1.0  0.4747653309311844  0.4922812062993314  0.062212420951972505  1.0000
  C   C25       1.0  0.3805015676416376  0.8851282573386707  0.6741897399148444  1.0000
  C   C26       1.0  0.7652709391280227  0.9077887656367307  0.66033680171865  1.0000
  C   C27       1.0  0.8211152661856362  0.562771383494592  0.7441764802400502  1.0000
  C   C28       1.0  0.08144633601725812  0.702960484038982  0.720120492411411  1.0000
  C   C29       1.0  0.8701009951970206  0.28935378537380524  0.7020868699899554  1.0000
  C   C30       1.0  0.13895230811421302  0.2558047682325579  0.6151157554917291  1.0000
  C   C31       1.0  0.15115688468640093  0.7160657792190931  0.9239163431718185  1.0000
  C   C32       1.0  0.5982038023385956  0.8133017769707107  0.8631219012930063  1.0000
  C   C33       1.0  0.7800397558176472  0.6285975838179707  0.14364472915977441  1.0000
  C   C34       1.0  0.478906865783742  0.47691492753617115  0.14899144217667984  1.0000
  C   C35       1.0  0.1404447321322166  0.4661993503340156  0.11340584487195572  1.0000
  C   C36       1.0  0.43370279116033583  0.2175604064100796  0.8087716862467432  1.0000
  C   C37       1.0  0.7117277521499403  0.24469149298911919  0.9047633954797619  1.0000
  C   C38       1.0  0.33951653806493454  0.8609332139549436  0.277004458132943  1.0000
  C   C39       1.0  0.731146380395657  0.8325571091531071  0.312571736051801  1.0000
  C   C40       1.0  0.1964698188049496  0.10707316341685667  0.3507387542172254  1.0000
  C   C41       1.0  0.7325273933827606  0.14155794580489098  0.29436991538733553  1.0000
  C   C42       1.0  0.4607901855220718  0.5370348247283301  0.8159832436927206  1.0000
  C   C43       1.0  0.45790234756025683  0.5391707044514715  0.7420233821784594  1.0000
  C   C44       1.0  0.4264471277010459  0.9193882890612954  0.4194320056441968  1.0000
  C   C45       1.0  0.6795574898210647  0.9468243666199424  0.4472129447266156  1.0000
  C   C46       1.0  0.3946800013354235  0.06253251762927188  0.4388178346261143  1.0000
  N   N1        1.0  0.9180553994278428  0.5083160280704745  0.5302869419431886  1.0000
  N   N2        1.0  0.5421027843428305  0.753924173715049  0.9326481314676587  1.0000
  N   N3        1.0  0.7158317673384149  0.5648959486601939  0.07058519185639511  1.0000
  N   N4        1.0  0.23047026682585436  0.4385399679092358  0.049779839641154004  1.0000
  N   N5        1.0  0.4075916400354629  0.28954580951100434  0.8835508739102739  1.0000
  N   N6        1.0  0.6352198404941802  0.35758588970539756  0.8858540613133956  1.0000
  N   N7        1.0  0.4525698202749596  0.8939141943866601  0.33433801578222955  1.0000
  N   N8        1.0  0.7688271306919817  0.8930991804110557  0.3909254619045371  1.0000
  N   N9        1.0  0.339913592384498  0.12295935144933166  0.366575671940673  1.0000
  N   N10       1.0  0.6242625984661956  0.13307220661422997  0.34848339409735735  1.0000
  N   N11       1.0  0.1658618537597718  0.5252462097445231  0.4659535606185657  1.0000
  N   N12       1.0  0.4053340874116245  0.8856856905135969  0.5874207442918263  1.0000
  N   N13       1.0  0.6343677007215902  0.8709396895826198  0.624900683215735  1.0000
  N   N14       1.0  0.851767198432164  0.5786940976363439  0.6595033150669067  1.0000
  N   N15       1.0  0.12073458656954733  0.572308137786706  0.7075801874062579  1.0000
  N   N16       1.0  0.8681832611160231  0.3512547523851096  0.6234484613851523  1.0000
  N   N17       1.0  0.15432457222370743  0.38722871755015836  0.6429299754816641  1.0000
  N   N18       1.0  0.2824344801005553  0.6736905623804502  0.9059099891185485  1.0000
  O   O1        1.0  0.4455589446434303  0.6759185797917411  0.46619380752969874  1.0000
  O   O2        1.0  0.5546066534342843  0.7137340572460856  0.08755976610880373  1.0000
  O   O3        1.0  0.29653366767685446  0.0619638692355409  0.4992371455039831  1.0000
  O   O4        1.0  0.7712416894799647  0.1548163518667778  0.4615824138952008  1.0000
  O   O5        1.0  0.45532300216915206  0.13460269354882115  0.6180405071248388  1.0000
  O   O6        1.0  0.671959561521213  0.12145702632096086  0.6046899242993719  1.0000
  O   O7        1.0  0.9187694877505381  0.7375151229648295  0.5352909715747814  1.0000
  O   O8        1.0  0.1785705689492474  0.6951237556328066  0.5554200643508694  1.0000
  O   O9        1.0  0.8899476503427267  0.6283748676320895  0.4143444327298981  1.0000
  O   O10       1.0  0.12952674603133124  0.7400381265285815  0.423900271045568  1.0000
  O   O11       1.0  0.8444623847542873  0.3707687709519404  0.4206039976544958  1.0000
  O   O12       1.0  0.6675024893770498  0.6815184900372911  0.48630460248524804  1.0000
  O   O13       1.0  0.0322877042010461  0.4691451166997495  0.3419407631222668  1.0000
  O   O14       1.0  0.7047083750580897  0.5981982399464555  0.9229873722052491  1.0000
  O   O15       1.0  0.22970082091926972  0.46054843303341625  0.9021875631209542  1.0000
  O   O16       1.0  0.4148315007753637  0.2681607053797989  0.0306783506601676  1.0000
  O   O17       1.0  0.6349235283624993  0.32014236001647584  0.0523744942895235  1.0000
  O   O18       1.0  0.38425756371314185  0.49023052028282865  0.6075409202794049  1.0000
  O   O19       1.0  0.5721001714563415  0.6061812054127029  0.6337751525133728  1.0000
  O   O20       1.0  0.3978252013796536  0.31792837670608515  0.4777538291537483  1.0000
  O   O21       1.0  0.6160584396483914  0.3450295759320241  0.50844854320507  1.0000
  O   O22       1.0  0.3919078857826932  0.4697527371725485  0.34769813727353244  1.0000
  O   O23       1.0  0.6154119007871941  0.496951434892189  0.33970293170911964  1.0000
  O   O24       1.0  0.30368632806604273  0.6524283174796393  0.07166819793036443  1.0000
