data_image0
_chemical_formula_structural       Zn8H108C148N16O44
_chemical_formula_sum              "Zn8 H108 C148 N16 O44"
_cell_length_a       15.008580735743035
_cell_length_b       15.008722860504399
_cell_length_c       20.934419386117266
_cell_angle_alpha    83.71939665511097
_cell_angle_beta     83.71960005437475
_cell_angle_gamma    67.50803357631041

_space_group_name_H-M_alt    "P 1"
_space_group_IT_number       1

loop_
  _space_group_symop_operation_xyz
  'x, y, z'

loop_
  _atom_site_type_symbol
  _atom_site_label
  _atom_site_symmetry_multiplicity
  _atom_site_fract_x
  _atom_site_fract_y
  _atom_site_fract_z
  _atom_site_occupancy
  Zn  Zn1       1.0  0.008224516392729702  0.014608340161494504  0.6813785780881004  1.0000
  Zn  Zn2       1.0  0.9853958960938344  0.9917783335934798  0.8186332589824586  1.0000
  Zn  Zn3       1.0  0.991781693917382  0.985398227299044  0.3186276917935444  1.0000
  Zn  Zn4       1.0  0.014618116395084303  0.008217137019087802  0.1813732634614666  1.0000
  Zn  Zn5       1.0  0.9508671858384262  0.43410072396458316  0.006414640326106278  1.0000
  Zn  Zn6       1.0  0.5659055632356456  0.04913420617792509  0.4935810412456689  1.0000
  Zn  Zn7       1.0  0.0491382475763231  0.5659015019561126  0.9935786467398771  1.0000
  Zn  Zn8       1.0  0.4340925540173686  0.9508668440229187  0.5064171959041133  1.0000
  H   H1        1.0  0.6813901814384378  0.10554174217573142  0.8444755127144815  1.0000
  H   H2        1.0  0.8944611885803795  0.31859817041520705  0.6555423147627693  1.0000
  H   H3        1.0  0.3186109586531387  0.8944674485885928  0.15553954304343875  1.0000
  H   H4        1.0  0.1055387047310603  0.6813833562787367  0.3444735240712332  1.0000
  H   H5        1.0  0.5024046697504971  0.15372174547864165  0.8476906774159118  1.0000
  H   H6        1.0  0.8462563144764844  0.4975855545182455  0.6523247178728155  1.0000
  H   H7        1.0  0.497600251248592  0.8462551565779463  0.15231844294959268  1.0000
  H   H8        1.0  0.15372836527100017  0.5023992688306791  0.3476843914643482  1.0000
  H   H9        1.0  0.5259906218767015  0.1178687868594395  0.6442786070936818  1.0000
  H   H10       1.0  0.8820960213490068  0.4740069892769087  0.8557368578053256  1.0000
  H   H11       1.0  0.47403051517729006  0.8821185268107713  0.35572990523530723  1.0000
  H   H12       1.0  0.1178781473622905  0.5259993863311364  0.14426853905474957  1.0000
  H   H13       1.0  0.7051571394168974  0.06815892981537548  0.6419960973161876  1.0000
  H   H14       1.0  0.9318363377466525  0.29483957920611903  0.8580193883598995  1.0000
  H   H15       1.0  0.2948623840655884  0.9318591695743876  0.35801400032443803  1.0000
  H   H16       1.0  0.06815607097771449  0.7051696852100519  0.1419934649255623  1.0000
  H   H17       1.0  0.2682266166627585  0.41978042122322273  0.8632896107286995  1.0000
  H   H18       1.0  0.5801981352066861  0.731785186620762  0.6367060730740589  1.0000
  H   H19       1.0  0.7317975650218712  0.5802111374096841  0.1366978024005974  1.0000
  H   H20       1.0  0.4197828729799866  0.2682359524362853  0.3632952794255715  1.0000
  H   H21       1.0  0.40498928441972026  0.31712781310356775  0.7913101374011547  1.0000
  H   H22       1.0  0.6828278168307803  0.595014258362866  0.708693107550232  1.0000
  H   H23       1.0  0.595030114149111  0.682842797552759  0.20868641337624175  1.0000
  H   H24       1.0  0.31714062021677597  0.40499639084318056  0.2913066688543323  1.0000
  H   H25       1.0  0.2555587140645983  0.12500885970960243  0.7840320914684966  1.0000
  H   H26       1.0  0.8749883607977296  0.7443979763038513  0.7159635064618611  1.0000
  H   H27       1.0  0.7444234006188281  0.8749930921901167  0.21596587014341395  1.0000
  H   H28       1.0  0.1250079555958052  0.25558369676058856  0.28402775574338784  1.0000
  H   H29       1.0  0.1177303158976102  0.2295867264387327  0.8548192970243988  1.0000
  H   H30       1.0  0.7704357118995802  0.8822342323920653  0.6451695454303561  1.0000
  H   H31       1.0  0.8822594503697302  0.7704343657330525  0.14517374479184042  1.0000
  H   H32       1.0  0.229569451311292  0.11775335885459276  0.35482249573123426  1.0000
  H   H33       1.0  0.11041696715409438  0.5536288916503197  0.6109143838990149  1.0000
  H   H34       1.0  0.44638872385318246  0.8895845639617335  0.8890805244223542  1.0000
  H   H35       1.0  0.8895972818908504  0.44637791539133787  0.3890821754268429  1.0000
  H   H36       1.0  0.5536218681013025  0.11042035040031098  0.11090833967484308  1.0000
  H   H37       1.0  0.08134878575809522  0.7267958995952739  0.6225275486101579  1.0000
  H   H38       1.0  0.2732194831936141  0.9186439561572329  0.8774831578909925  1.0000
  H   H39       1.0  0.918656728692369  0.27321163077058225  0.3774729685876395  1.0000
  H   H40       1.0  0.7267974038024505  0.08134775408377246  0.12251053498432896  1.0000
  H   H41       1.0  0.03187828755999081  0.6836271909053121  0.8276808740932822  1.0000
  H   H42       1.0  0.3163509407448402  0.9681190270998953  0.6723251616455528  1.0000
  H   H43       1.0  0.9681131530556469  0.3163670938807926  0.17231600501018107  1.0000
  H   H44       1.0  0.6836437932643378  0.03189476874535306  0.32766519256780663  1.0000
  H   H45       1.0  0.06046144726568059  0.5120707767166409  0.8164691447796102  1.0000
  H   H46       1.0  0.4879158279747102  0.9395434675211192  0.6835216575135162  1.0000
  H   H47       1.0  0.9395366241970037  0.48792696307262445  0.1835226620549122  1.0000
  H   H48       1.0  0.5120819535412764  0.06047718779285568  0.3164660265583804  1.0000
  H   H49       1.0  0.2028767940504679  0.13596934047326675  0.6347594732820596  1.0000
  H   H50       1.0  0.8640361343664437  0.7971036782061421  0.8652407295598434  1.0000
  H   H51       1.0  0.7970980781892436  0.8640347741014127  0.36523887770235314  1.0000
  H   H52       1.0  0.1359763956535005  0.2028884040385961  0.1347508803503317  1.0000
  H   H53       1.0  0.08028669610105511  0.2728642016922863  0.6928263541568995  1.0000
  H   H54       1.0  0.7271494621899277  0.919695596874874  0.80716357866563  1.0000
  H   H55       1.0  0.9196891069246009  0.7271496318671639  0.30716353753177117  1.0000
  H   H56       1.0  0.2728667532636564  0.08029905935507031  0.19282946217887084  1.0000
  H   H57       1.0  0.2649345146559057  0.43523225180551633  0.651338049206295  1.0000
  H   H58       1.0  0.5647579017283775  0.7350638432734655  0.8486649107312444  1.0000
  H   H59       1.0  0.735058477257553  0.5647667961262217  0.3486564351350694  1.0000
  H   H60       1.0  0.4352404500676528  0.2649491942454888  0.15132904577414757  1.0000
  H   H61       1.0  0.3849614419346707  0.30054043318369855  0.592815352764525  1.0000
  H   H62       1.0  0.6994464516239348  0.6150422824130004  0.9071940751714677  1.0000
  H   H63       1.0  0.6150306803529162  0.6994515686691188  0.4071830821362354  1.0000
  H   H64       1.0  0.3005445139350584  0.3849662446412622  0.09280795851686456  1.0000
  H   H65       1.0  0.9462083107393796  0.2475442261691257  0.07924110929501892  1.0000
  H   H66       1.0  0.7524697795249438  0.05379931641974888  0.42075810099105126  1.0000
  H   H67       1.0  0.053797042886103  0.7524546552734392  0.920759127835872  1.0000
  H   H68       1.0  0.24754354522077907  0.9461984310427951  0.5792492550091806  1.0000
  H   H69       1.0  0.8191324934621703  0.18235654882898467  0.12106622986076589  1.0000
  H   H70       1.0  0.8176550203451001  0.180875693015139  0.3789411431712821  1.0000
  H   H71       1.0  0.18086851616062213  0.8176440234286276  0.8789365990622428  1.0000
  H   H72       1.0  0.1823612300027762  0.819124221426776  0.6210772868924009  1.0000
  H   H73       1.0  0.6472457141487453  0.27695252386326535  0.09212775433553591  1.0000
  H   H74       1.0  0.7230615101295398  0.35275708521886173  0.4078822705620269  1.0000
  H   H75       1.0  0.35275609988162426  0.7230517645950841  0.9078723396443351  1.0000
  H   H76       1.0  0.2769445640882182  0.6472434697243442  0.5921335466379816  1.0000
  H   H77       1.0  0.7498321777229151  0.4858469985064318  0.9837414379745721  1.0000
  H   H78       1.0  0.5141636091278556  0.25016277412206034  0.5162580633017412  1.0000
  H   H79       1.0  0.2501710964722932  0.5141580443471058  0.016262785412344286  1.0000
  H   H80       1.0  0.48582935766967955  0.7498349428317398  0.4837365249895456  1.0000
  H   H81       1.0  0.038125092855104  0.1745592034844208  0.5979957414447838  1.0000
  H   H82       1.0  0.8254425509980764  0.9618527697386483  0.9020007907272642  1.0000
  H   H83       1.0  0.9618782019823158  0.8254458600523904  0.4020003581398869  1.0000
  H   H84       1.0  0.1745596598971915  0.03813262776205315  0.0979906895267249  1.0000
  H   H85       1.0  0.07031449064978551  0.2599500810230778  0.4446987099664241  1.0000
  H   H86       1.0  0.7400297431059214  0.9296643679028235  0.055293355714567775  1.0000
  H   H87       1.0  0.9296905206513273  0.7400295231392778  0.5552944327654572  1.0000
  H   H88       1.0  0.2599404537349557  0.07032217115664714  0.9446961918264734  1.0000
  H   H89       1.0  0.1852222193808615  0.20071253407619596  0.47735751704614415  1.0000
  H   H90       1.0  0.7992851711664527  0.8147640742657032  0.022638626683608682  1.0000
  H   H91       1.0  0.8147866219781719  0.7992776238556945  0.5226388222741036  1.0000
  H   H92       1.0  0.2006997029894677  0.18522877875073362  0.977352655608051  1.0000
  H   H93       1.0  0.0831200580133711  0.2680179183501039  0.5280324182157372  1.0000
  H   H94       1.0  0.7319793842464719  0.9168533708215562  0.9719628046292285  1.0000
  H   H95       1.0  0.9168787040364849  0.7319782003448483  0.47196232605327987  1.0000
  H   H96       1.0  0.2680045672077682  0.08312911840440765  0.028028865130892196  1.0000
  H   H97       1.0  0.08220906161163549  0.10278635604542795  0.41075081156439086  1.0000
  H   H98       1.0  0.8971751429384514  0.9178170231117093  0.08925364726830047  1.0000
  H   H99       1.0  0.9178066977293611  0.8971856443596095  0.5892554653261755  1.0000
  H   H100      1.0  0.10277963388818989  0.08220299375630448  0.91074598047107  1.0000
  H   H101      1.0  0.07271527273712759  0.013611457971670404  0.471655723910466  1.0000
  H   H102      1.0  0.9863540340202023  0.9273160616513254  0.02835197895763737  1.0000
  H   H103      1.0  0.927321590611335  0.9863603132423222  0.5283542074056057  1.0000
  H   H104      1.0  0.0136044347267941  0.072707188607545  0.9716514170947048  1.0000
  H   H105      1.0  0.18708598151237513  0.025982453465651617  0.4505770242246641  1.0000
  H   H106      1.0  0.9740013137019047  0.812935334342633  0.04943785646512569  1.0000
  H   H107      1.0  0.8129374622294209  0.974010678811716  0.5494260884282197  1.0000
  H   H108      1.0  0.025967988945488695  0.18708366272037588  0.9505693343273975  1.0000
  C   C1        1.0  0.7047076633907778  0.08327129427801344  0.7432876598267413  1.0000
  C   C2        1.0  0.9167267584950737  0.29528969025744084  0.7567246719803932  1.0000
  C   C3        1.0  0.2952973849182641  0.9167511401949754  0.25671939359311574  1.0000
  C   C4        1.0  0.0832843713702331  0.7047082267820244  0.2432880937919819  1.0000
  C   C5        1.0  0.6465499814105159  0.10894115322615505  0.8007751206811661  1.0000
  C   C6        1.0  0.8910583340288909  0.3534396000169695  0.6992385144494904  1.0000
  C   C7        1.0  0.353453253097797  0.8910625440494897  0.19923494110432213  1.0000
  C   C8        1.0  0.1089438724570684  0.6465484046897885  0.300774262087053  1.0000
  C   C9        1.0  0.5468347841774275  0.13627076028870996  0.8026191566934101  1.0000
  C   C10       1.0  0.8637096414287838  0.4531566397676628  0.6973951135329982  1.0000
  C   C11       1.0  0.4531660285762342  0.8637198211176979  0.1973877969491014  1.0000
  C   C12       1.0  0.1362787488682642  0.5468320885444128  0.3026153227885615  1.0000
  C   C13       1.0  0.5046426698343467  0.13863779262059944  0.7456961749543962  1.0000
  C   C14       1.0  0.861331494125139  0.49534756840809285  0.7543165764465485  1.0000
  C   C15       1.0  0.4953660127449169  0.861345024249346  0.25430885989269564  1.0000
  C   C16       1.0  0.1386534764684413  0.5046519102981435  0.24568565499276218  1.0000
  C   C17       1.0  0.5609468252995101  0.11541955192637947  0.6877057209945858  1.0000
  C   C18       1.0  0.8845501409363552  0.43905064235684  0.8123113527374314  1.0000
  C   C19       1.0  0.4390634377517202  0.8845700160394613  0.31230010826055127  1.0000
  C   C20       1.0  0.11543274658419732  0.5609549941103895  0.18769629857006007  1.0000
  C   C21       1.0  0.6605507861137169  0.08790646681492836  0.6867531837245976  1.0000
  C   C22       1.0  0.9120778695403046  0.3394429706807571  0.8132608726332293  1.0000
  C   C23       1.0  0.33946405995691725  0.9120947079486539  0.313253792946341  1.0000
  C   C24       1.0  0.087910892638547  0.6605657174337835  0.1867499159222916  1.0000
  C   C25       1.0  0.8120427812255215  0.04803508057310069  0.74348048469583  1.0000
  C   C26       1.0  0.9520079809394774  0.18795222849193743  0.7565283335430449  1.0000
  C   C27       1.0  0.187968454859849  0.9520057361267859  0.2565189531334795  1.0000
  C   C28       1.0  0.04801845605125981  0.8120464030763019  0.24348368181559008  1.0000
  C   C29       1.0  0.18598460921182178  0.32955813853010346  0.86504321095709  1.0000
  C   C30       1.0  0.670426784282398  0.8140094435530332  0.6349586131476385  1.0000
  C   C31       1.0  0.8140097776481809  0.6704383339186392  0.13495661840757828  1.0000
  C   C32       1.0  0.32955828556060857  0.18599535784830581  0.36504368036267454  1.0000
  C   C33       1.0  0.2666766871700403  0.3544321716558515  0.8462095941002585  1.0000
  C   C34       1.0  0.6455478652782034  0.7333320088768858  0.6537939622714646  1.0000
  C   C35       1.0  0.7333337160317585  0.645564065799654  0.15378998095659566  1.0000
  C   C36       1.0  0.3544343721730385  0.2666779009072259  0.34621436666743927  1.0000
  C   C37       1.0  0.34278378611615073  0.2973771707954783  0.8064165617293353  1.0000
  C   C38       1.0  0.7025870713146318  0.657212840499888  0.6935922156229282  1.0000
  C   C39       1.0  0.6572191461701636  0.7026092481001881  0.19358529399081448  1.0000
  C   C40       1.0  0.2973921307722804  0.34279022198213477  0.3064140047502447  1.0000
  C   C41       1.0  0.33832502544819937  0.21379398467263402  0.7855284109033177  1.0000
  C   C42       1.0  0.7861767985733934  0.6616661194778503  0.7144785046372347  1.0000
  C   C43       1.0  0.6616856891734811  0.7861806645861196  0.2144766165783949  1.0000
  C   C44       1.0  0.2138132499396761  0.33833139654692  0.28551680043371147  1.0000
  C   C45       1.0  0.2575207859297707  0.18914583061418705  0.8025576950814539  1.0000
  C   C46       1.0  0.8108414639462325  0.7424578919153645  0.697442608230034  1.0000
  C   C47       1.0  0.7424701062944836  0.8108580526172418  0.19743896798298258  1.0000
  C   C48       1.0  0.189147098487318  0.2575381908419487  0.302553875986753  1.0000
  C   C49       1.0  0.1815758912411525  0.24729457045931721  0.8418541551784243  1.0000
  C   C50       1.0  0.7527083784850248  0.8184015310409839  0.6581395693772832  1.0000
  C   C51       1.0  0.8184266222594091  0.7527067999933408  0.1581355998057035  1.0000
  C   C52       1.0  0.2472910676652731  0.18159230715400548  0.34185577494758945  1.0000
  C   C53       1.0  0.10768084346868531  0.38983519421999097  0.9101698037206133  1.0000
  C   C54       1.0  0.610170651785303  0.8923125514803942  0.5898264176158817  1.0000
  C   C55       1.0  0.8923212614077728  0.610183749595663  0.08982341236140462  1.0000
  C   C56       1.0  0.38983114684312886  0.10769041573332319  0.41016995734815953  1.0000
  C   C57       1.0  0.0891206410702381  0.5224416568672652  0.7136752615386825  1.0000
  C   C58       1.0  0.4775599907147736  0.9108699412922053  0.7863312799802102  1.0000
  C   C59       1.0  0.9108718376972149  0.47756898354337113  0.2863198065802024  1.0000
  C   C60       1.0  0.5224519601420994  0.08913105565893903  0.2136673339267077  1.0000
  C   C61       1.0  0.09519553541171182  0.5820598160557682  0.6583342185131045  1.0000
  C   C62       1.0  0.417950651081739  0.9048055586378683  0.841671708516955  1.0000
  C   C63       1.0  0.9048041797282167  0.4179486555965967  0.34166284958688914  1.0000
  C   C64       1.0  0.5820599550604298  0.09520067575214612  0.15832135246679968  1.0000
  C   C65       1.0  0.0791360920391284  0.6784768735717749  0.6649955113199084  1.0000
  C   C66       1.0  0.32153906329543963  0.9208539620083586  0.8350202114145802  1.0000
  C   C67       1.0  0.9208621106911111  0.3215288326185331  0.335003317746569  1.0000
  C   C68       1.0  0.6784742808782556  0.0791438049207898  0.16497949865412656  1.0000
  C   C69       1.0  0.05728136031439849  0.7160603857589365  0.725872530565205  1.0000
  C   C70       1.0  0.2839447994596823  0.9427003759827953  0.7741450338305356  1.0000
  C   C71       1.0  0.9427050676000376  0.28393919158681785  0.27413005929034984  1.0000
  C   C72       1.0  0.7160605075767067  0.05729584715387401  0.22585397758804499  1.0000
  C   C73       1.0  0.0510668590835337  0.6550561340436474  0.7803870976117934  1.0000
  C   C74       1.0  0.3449445263188835  0.9489275192026556  0.719619425615349  1.0000
  C   C75       1.0  0.9489268424617734  0.34494261768840334  0.21961260956773287  1.0000
  C   C76       1.0  0.6550610906082781  0.051084684185951836  0.28037499330905996  1.0000
  C   C77       1.0  0.0666779043018337  0.5590131707039134  0.7744174545363123  1.0000
  C   C78       1.0  0.4409931487296816  0.9333164568669331  0.7255897752138196  1.0000
  C   C79       1.0  0.9333100534372463  0.44098984245952283  0.22558141089491102  1.0000
  C   C80       1.0  0.5590166368042092  0.06668539218338052  0.27440750630020005  1.0000
  C   C81       1.0  0.037163668286375205  0.8202568295852687  0.7324191100724561  1.0000
  C   C82       1.0  0.17973519912891334  0.9628235625534102  0.7675873727526719  1.0000
  C   C83       1.0  0.9628214319450238  0.17974996098300966  0.2675858947372872  1.0000
  C   C84       1.0  0.8202721379046806  0.037163185110721066  0.23240265570677818  1.0000
  C   C85       1.0  0.3012131068871611  0.20983046579339512  0.6086147720634755  1.0000
  C   C86       1.0  0.7901680215900626  0.6987788451867231  0.8913903811890762  1.0000
  C   C87       1.0  0.6987832776008318  0.7901571516552581  0.3913937035837448  1.0000
  C   C88       1.0  0.2098325129438976  0.30123401058867927  0.1086029442513663  1.0000
  C   C89       1.0  0.2147854007766696  0.20272933837062362  0.6369138767348658  1.0000
  C   C90       1.0  0.7972854229865974  0.7851933440384118  0.863089000272808  1.0000
  C   C91       1.0  0.7852047862894409  0.7972761513551562  0.3630855833437181  1.0000
  C   C92       1.0  0.202725986348895  0.21481660533568464  0.1369018036385299  1.0000
  C   C93       1.0  0.146422671028688  0.2783204584814243  0.6691837619299292  1.0000
  C   C94       1.0  0.7216865546292438  0.8535616299433146  0.8308075819297257  1.0000
  C   C95       1.0  0.8535681592045351  0.7216794451994702  0.33080795640637456  1.0000
  C   C96       1.0  0.2783175506869924  0.14644715587756  0.16918339335821028  1.0000
  C   C97       1.0  0.1641221124243657  0.36232096539288244  0.674186206899435  1.0000
  C   C98       1.0  0.6376789366087721  0.8358722265532921  0.8258134018723238  1.0000
  C   C99       1.0  0.8358672499752444  0.6376794820208646  0.325814180589333  1.0000
  C   C100      1.0  0.3623281765273773  0.16414207315840923  0.1741807416727141  1.0000
  C   C101      1.0  0.24992197063773605  0.37096745833849815  0.6464248620526971  1.0000
  C   C102      1.0  0.6290442265777828  0.7500614535400133  0.85357910623771  1.0000
  C   C103      1.0  0.7500674618371548  0.6290363238200811  0.3535723983369365  1.0000
  C   C104      1.0  0.3709620671643421  0.24994846204864274  0.1464187799668721  1.0000
  C   C105      1.0  0.3176519889411439  0.2945607028404567  0.6138537557196669  1.0000
  C   C106      1.0  0.7054424701567187  0.6823470922075926  0.886155156431684  1.0000
  C   C107      1.0  0.6823474349372135  0.7054324601322578  0.38614546354593665  1.0000
  C   C108      1.0  0.2945631662306099  0.31766708939797894  0.11384627462862797  1.0000
  C   C109      1.0  0.37431729302944217  0.1276622939442405  0.574591581745203  1.0000
  C   C110      1.0  0.8723241661143675  0.6256882123093778  0.9254074999777727  1.0000
  C   C111      1.0  0.6256807205326282  0.8723340820171896  0.42541323154868843  1.0000
  C   C112      1.0  0.12767107739806252  0.37431398740697835  0.07458370407022129  1.0000
  C   C113      1.0  0.5865048794895528  0.4475551051942618  0.016273044785634686  1.0000
  C   C114      1.0  0.5524409448864417  0.41349501066901  0.4837276921056172  1.0000
  C   C115      1.0  0.4134959964371987  0.5524374982289827  0.9837237176468605  1.0000
  C   C116      1.0  0.4475571047197775  0.5865027072203262  0.5162727164018718  1.0000
  C   C117      1.0  0.871460738378005  0.2852353745495507  0.06716055874692019  1.0000
  C   C118      1.0  0.7147806409535208  0.12853942966417262  0.4328460496057076  1.0000
  C   C119      1.0  0.1285417524673207  0.7147666261088547  0.9328430025131311  1.0000
  C   C120      1.0  0.2852340925109544  0.8714564090210146  0.56716612157215  1.0000
  C   C121      1.0  0.7998622430035595  0.2497248038021738  0.0904383739526793  1.0000
  C   C122      1.0  0.7502877520795009  0.20014051708295014  0.40956871923268057  1.0000
  C   C123      1.0  0.200136612639966  0.7502772848269144  0.9095635484731871  1.0000
  C   C124      1.0  0.24971837681160744  0.7998620513604496  0.5904402518523496  1.0000
  C   C125      1.0  0.7053115436095254  0.3019626220046662  0.07433210719953107  1.0000
  C   C126      1.0  0.6980511057164804  0.2946896839807493  0.4256771606511833  1.0000
  C   C127      1.0  0.29468808404016034  0.6980418445472482  0.9256700514574376  1.0000
  C   C128      1.0  0.30196072080723724  0.7053066180477146  0.5743361532020897  1.0000
  C   C129      1.0  0.684839895171173  0.3884342136521256  0.03488059606474537  1.0000
  C   C130      1.0  0.6115767623801888  0.31516027706234684  0.4651230555181485  1.0000
  C   C131      1.0  0.3151626179460933  0.6115684622285614  0.9651190902545821  1.0000
  C   C132      1.0  0.388427037518973  0.6848338388012607  0.5348805321162827  1.0000
  C   C133      1.0  0.7611018719847849  0.418931480299939  0.013700365623222443  1.0000
  C   C134      1.0  0.5810828667026656  0.2388936922544218  0.48630393373574066  1.0000
  C   C135      1.0  0.2389006427622178  0.5810718501197415  0.9863035695576201  1.0000
  C   C136      1.0  0.4189194884336018  0.7611009904586369  0.5136992435074745  1.0000
  C   C137      1.0  0.0532276142933767  0.11671884169596318  0.5654827217790057  1.0000
  C   C138      1.0  0.8832698740844476  0.9467699912708839  0.9345205816884103  1.0000
  C   C139      1.0  0.9467827301768493  0.8832747252870236  0.43452040627274596  1.0000
  C   C140      1.0  0.11671725371565601  0.053227321391524626  0.06547639590364437  1.0000
  C   C141      1.0  0.1069014701347868  0.22107239578099316  0.48790034957895034  1.0000
  C   C142      1.0  0.7789147058266225  0.8930839326566372  0.01209460220670881  1.0000
  C   C143      1.0  0.8931044164801493  0.7789155659716156  0.5120963845751233  1.0000
  C   C144      1.0  0.22106361605727903  0.10690880861811543  0.9878952801597121  1.0000
  C   C145      1.0  0.1083288681063053  0.06467828276194611  0.4568864510346202  1.0000
  C   C146      1.0  0.9352934650304264  0.891692101430948  0.0431220190892319  1.0000
  C   C147      1.0  0.8916942831596728  0.9352995396191089  0.5431192906545944  1.0000
  C   C148      1.0  0.0646670770756117  0.10832498133363093  0.9568797800606815  1.0000
  N   N1        1.0  0.5133757945802699  0.41929836357103784  0.04099852410455898  1.0000
  N   N2        1.0  0.5806912016285253  0.48663088088193257  0.4589959060546817  1.0000
  N   N3        1.0  0.4866315789129559  0.580690379343345  0.9589918263007249  1.0000
  N   N4        1.0  0.41929739077793476  0.5133665377199678  0.5409985627292995  1.0000
  N   N5        1.0  0.5745069081605293  0.5273395469881239  0.9755579971842109  1.0000
  N   N6        1.0  0.4726559474190992  0.42549028426888225  0.5244364020212585  1.0000
  N   N7        1.0  0.4254961423877006  0.4726515607469112  0.024431547943187578  1.0000
  N   N8        1.0  0.5273319572441721  0.5745094111830016  0.4755589003190223  1.0000
  N   N9        1.0  0.8520241586608749  0.3683509115771102  0.029605670493822293  1.0000
  N   N10       1.0  0.631660367678535  0.14797894944145915  0.4703923085626726  1.0000
  N   N11       1.0  0.1479798194782234  0.6316525235654142  0.9703962337496675  1.0000
  N   N12       1.0  0.3683377532172187  0.8520221044093644  0.5296044949749471  1.0000
  N   N13       1.0  0.08500397972199641  0.1345873249975469  0.5054891963481082  1.0000
  N   N14       1.0  0.865393355318716  0.9149936937098387  0.9945133076733086  1.0000
  N   N15       1.0  0.9150047603745931  0.8653981611282546  0.49451276337480715  1.0000
  N   N16       1.0  0.13458069711148823  0.08500538341945683  0.005484059238405294  1.0000
  O   O1        1.0  0.40798489399650606  0.15561656210412889  0.7437012451368901  1.0000
  O   O2        1.0  0.8443481665943935  0.5920093265618791  0.7563118411895644  1.0000
  O   O3        1.0  0.5920257703933275  0.8443554251987352  0.2563039902446817  1.0000
  O   O4        1.0  0.15563393310257823  0.40799195741553973  0.24368712813874538  1.0000
  O   O5        1.0  0.862664098516568  0.03170071436885288  0.6900601567765603  1.0000
  O   O6        1.0  0.968351784274894  0.13732025934425718  0.8099493423891673  1.0000
  O   O7        1.0  0.1373290413812498  0.9683458454129193  0.3099387948843528  1.0000
  O   O8        1.0  0.031711579007762204  0.862666614193799  0.19005931073002802  1.0000
  O   O9        1.0  0.8455112786805473  0.03552936802763178  0.7989149067571688  1.0000
  O   O10       1.0  0.9645085356823843  0.1544933527399337  0.7010955556429791  1.0000
  O   O11       1.0  0.154505891210178  0.9645178241144307  0.2010888420575014  1.0000
  O   O12       1.0  0.0355323748520675  0.8455002892060792  0.2989152550749025  1.0000
  O   O13       1.0  0.0406113149694676  0.3596793065342325  0.9325166060011155  1.0000
  O   O14       1.0  0.6403411486794042  0.959371690022344  0.5674701552266725  1.0000
  O   O15       1.0  0.959378647336045  0.6403504698440726  0.06746285763114913  1.0000
  O   O16       1.0  0.3596751494074226  0.040626966441401215  0.43251970654372934  1.0000
  O   O17       1.0  0.1137286469087542  0.46791043666970467  0.9239165114404313  1.0000
  O   O18       1.0  0.5320817335462068  0.8862831478901189  0.5760816177232326  1.0000
  O   O19       1.0  0.8862977904652709  0.5320868894705201  0.0760855725830041  1.0000
  O   O20       1.0  0.467917481005685  0.11373758173012054  0.4239159821793165  1.0000
  O   O21       1.0  0.0954231258642011  0.4286422660432834  0.7120146592110784  1.0000
  O   O22       1.0  0.5713684558057395  0.9045708436192471  0.7879715066729672  1.0000
  O   O23       1.0  0.9045621339457384  0.5713712134812569  0.287976445468864  1.0000
  O   O24       1.0  0.42864586532750343  0.0954386472782218  0.21201624308006467  1.0000
  O   O25       1.0  0.0468445909360966  0.8704452213215677  0.6803165508855428  1.0000
  O   O26       1.0  0.12956519913886672  0.9531241658771777  0.8197046798753858  1.0000
  O   O27       1.0  0.9531406203039268  0.12956820953645135  0.3196936686232021  1.0000
  O   O28       1.0  0.8704511831103119  0.046840922371686196  0.18029204773994678  1.0000
  O   O29       1.0  0.011441517201220103  0.8521804431479795  0.7880023518863838  1.0000
  O   O30       1.0  0.1478229407757752  0.988533327091666  0.7120055482640666  1.0000
  O   O31       1.0  0.9885368991073165  0.14781957470557944  0.2120041621013584  1.0000
  O   O32       1.0  0.8521881562404517  0.011460639597167827  0.28799080388288434  1.0000
  O   O33       1.0  0.3502508371206475  0.05716979983071718  0.5658211923704072  1.0000
  O   O34       1.0  0.9428223143347623  0.6497214249476573  0.9341738706345808  1.0000
  O   O35       1.0  0.649736274478755  0.9428268436927286  0.43417727080876733  1.0000
  O   O36       1.0  0.0571826920771628  0.3502562155976747  0.06580652551274818  1.0000
  O   O37       1.0  0.45633161135370415  0.13301586917649644  0.5562152381222701  1.0000
  O   O38       1.0  0.8669826047471147  0.5436700078029236  0.9437890788880523  1.0000
  O   O39       1.0  0.5436632757110543  0.8669696507324007  0.4437939907750347  1.0000
  O   O40       1.0  0.133008404972486  0.45634117512391004  0.05621513625401779  1.0000
  O   O41       1.0  0.04031428540052671  0.039603731765659206  0.5852859924045503  1.0000
  O   O42       1.0  0.9603762718299009  0.9596958765229078  0.9147218988056094  1.0000
  O   O43       1.0  0.9596974325430665  0.9603859324063817  0.41472115100827966  1.0000
  O   O44       1.0  0.0396164016930527  0.040287182640256  0.08528052312497177  1.0000
