data_image0
_chemical_formula_structural       Cu2H28C32N12Cl4
_chemical_formula_sum              "Cu2 H28 C32 N12 Cl4"
_cell_length_a       7.998900438896425
_cell_length_b       9.031539867753262
_cell_length_c       12.49996931659312
_cell_angle_alpha    69.62261966918084
_cell_angle_beta     79.46298724294029
_cell_angle_gamma    89.34382925244917

_space_group_name_H-M_alt    "P 1"
_space_group_IT_number       1

loop_
  _space_group_symop_operation_xyz
  'x, y, z'

loop_
  _atom_site_type_symbol
  _atom_site_label
  _atom_site_symmetry_multiplicity
  _atom_site_fract_x
  _atom_site_fract_y
  _atom_site_fract_z
  _atom_site_occupancy
  Cu  Cu1       1.0  3.874661970801862e-06  4.085571120498626e-06  0.49999769824881213  1.0000
  Cu  Cu2       1.0  0.49999760396953247  0.4999992365275717  0.500000986600945  1.0000
  H   H1        1.0  0.675317240968866  0.756397906428589  0.5440486190438492  1.0000
  H   H2        1.0  0.32470721302897954  0.243598960623288  0.455942191213822  1.0000
  H   H3        1.0  0.8126133107777348  0.20709095147051929  0.29064645523209987  1.0000
  H   H4        1.0  0.18737921331436516  0.7929179924747203  0.7093524660322998  1.0000
  H   H5        1.0  0.45082661451063905  0.21284821361869183  0.2475220820163955  1.0000
  H   H6        1.0  0.5491724390685067  0.787146977098999  0.7524786315058521  1.0000
  H   H7        1.0  0.4134984881575008  0.026770929455480503  0.23683222272990892  1.0000
  H   H8        1.0  0.5865006061155  0.973223054430207  0.763171183155322  1.0000
  H   H9        1.0  0.6348045781298737  0.40958250096529275  0.10346878255165846  1.0000
  H   H10       1.0  0.3651881199586172  0.5904134421096573  0.8965349190273814  1.0000
  H   H11       1.0  0.8359851220197853  0.5086467885394299  0.9123077467870573  1.0000
  H   H12       1.0  0.16401264873165636  0.4913541614091345  0.08769730494314126  1.0000
  H   H13       1.0  0.5631227403240402  0.8478124164361349  0.1933757578031958  1.0000
  H   H14       1.0  0.4368775868068298  0.1521828545591433  0.8066247810161755  1.0000
  H   H15       1.0  0.6666283425006084  0.6667246346960454  0.09343034081099695  1.0000
  H   H16       1.0  0.33337579107247006  0.3332720574206149  0.9065693849895383  1.0000
  H   H17       1.0  0.8567685224146544  0.7691397193243646  0.8954532926892682  1.0000
  H   H18       1.0  0.1432329807222814  0.23086155993494376  0.10454322342323513  1.0000
  H   H19       1.0  0.9432616063758203  0.04920215785817559  0.8037061514235405  1.0000
  H   H20       1.0  0.056736088373902815  0.9508000343135736  0.19629300334002409  1.0000
  H   H21       1.0  0.0308616307821694  0.46354473536768387  0.765620701513484  1.0000
  H   H22       1.0  0.9691309359487762  0.5364606677117366  0.23437908648168088  1.0000
  H   H23       1.0  0.0817346620989596  0.27087808689736187  0.7702918606820077  1.0000
  H   H24       1.0  0.9182655175164173  0.7291301584248229  0.22970630127545638  1.0000
  H   H25       1.0  0.6651819308713269  0.48419854589148054  0.7225659253086008  1.0000
  H   H26       1.0  0.3348094848384734  0.515797325753681  0.27743714982239  1.0000
  H   H27       1.0  0.8471684277128447  0.32177393476099064  0.44807752096524217  1.0000
  H   H28       1.0  0.15282930428973882  0.6782258879857465  0.5519230127697483  1.0000
  C   C1        1.0  0.6748466864386273  0.8632776838701234  0.46991897367098545  1.0000
  C   C2        1.0  0.3251687816324136  0.13672452268166063  0.5300716149554533  1.0000
  C   C3        1.0  0.7483561106013283  0.09313119198586858  0.3420113495129939  1.0000
  C   C4        1.0  0.2516491739929023  0.9068750315650507  0.6579850891517083  1.0000
  C   C5        1.0  0.5138271088521194  0.11317479390952911  0.2295669127814008  1.0000
  C   C6        1.0  0.48617192512809027  0.8868227485375828  0.7704340240712355  1.0000
  C   C7        1.0  0.6305413022708991  0.16888411590669963  0.1123727120716538  1.0000
  C   C8        1.0  0.36945644933062727  0.8311133551106165  0.8876275983329409  1.0000
  C   C9        1.0  0.6817934999117412  0.32730049450326254  0.05984883502887335  1.0000
  C   C10       1.0  0.3182042923836335  0.6726957696820507  0.9401541677387115  1.0000
  C   C11       1.0  0.7956020030333946  0.38324689909759263  0.9518638126406032  1.0000
  C   C12       1.0  0.20439710350755294  0.6167482385333186  0.04814170778711001  1.0000
  C   C13       1.0  0.8566071234678888  0.2814939165015033  0.8948795831228509  1.0000
  C   C14       1.0  0.14339574687641493  0.7185061831166167  0.10512425755524649  1.0000
  C   C15       1.0  0.8042610626867984  0.1170325806756054  0.9452400534096128  1.0000
  C   C16       1.0  0.19574177234964196  0.8829675543336962  0.054760582664833565  1.0000
  C   C17       1.0  0.6917783219539972  0.05934097260814039  0.05673452203654249  1.0000
  C   C18       1.0  0.3082194703413704  0.9406552915771799  0.9432684807310423  1.0000
  C   C19       1.0  0.6452918455100018  0.895018050429961  0.10787881429761362  1.0000
  C   C20       1.0  0.35470972674668394  0.10497966142013129  0.8921209719983878  1.0000
  C   C21       1.0  0.703903790907134  0.7923318142296978  0.05135393326109744  1.0000
  C   C22       1.0  0.29609905490127625  0.20766597789797459  0.9486456783320422  1.0000
  C   C23       1.0  0.8115784294887972  0.8492993275461417  0.9411691338438359  1.0000
  C   C24       1.0  0.18842184617625427  0.15069949316276174  0.05882973709386621  1.0000
  C   C25       1.0  0.8605709355924133  0.008094681672410795  0.8892137931873095  1.0000
  C   C26       1.0  0.1394293150877175  0.9919076622067282  0.11078581332144215  1.0000
  C   C27       1.0  0.9757272300182294  0.3462671705253797  0.779059371863518  1.0000
  C   C28       1.0  0.024270468172474594  0.653736184239392  0.22094109629161102  1.0000
  C   C29       1.0  0.74123351657326  0.43171166311260123  0.6657781243767076  1.0000
  C   C30       1.0  0.25876166832588854  0.5682879990789473  0.33422275876400687  1.0000
  C   C31       1.0  0.8362418000475957  0.3464884456115627  0.5276698556193153  1.0000
  C   C32       1.0  0.16375596920785543  0.6535090077101628  0.472332057087101  1.0000
  N   N1        1.0  0.7947220168186746  0.9861182504691682  0.43537844616766824  1.0000
  N   N2        1.0  0.2052883639274512  0.013885960158290795  0.5646154680533614  1.0000
  N   N3        1.0  0.5588529218378254  0.8889923556624025  0.4031067046546398  1.0000
  N   N4        1.0  0.4411601055023908  0.11100375349997188  0.5968888825324542  1.0000
  N   N5        1.0  0.608176808970903  0.0357159135326555  0.3225066433086496  1.0000
  N   N6        1.0  0.3918234260002934  0.9642841140082441  0.6774895352660621  1.0000
  N   N7        1.0  0.8867816851874722  0.3614211794135755  0.6834386146058905  1.0000
  N   N8        1.0  0.11321353157855188  0.6385772847937828  0.3165641597469105  1.0000
  N   N9        1.0  0.9497543433955113  0.30584966630539157  0.5964948430107812  1.0000
  N   N10       1.0  0.05024211505535449  0.6941500761637585  0.40350586542707134  1.0000
  N   N11       1.0  0.7049028815257969  0.4242219397934335  0.5671394215428053  1.0000
  N   N12       1.0  0.29509105286154375  0.5757764529841298  0.43286272636194667  1.0000
  Cl  Cl1       1.0  0.8909045524560567  0.7874384803745826  0.6670098317883558  1.0000
  Cl  Cl2       1.0  0.10909938752170228  0.21257356434179542  0.3329853370279281  1.0000
  Cl  Cl3       1.0  0.6207065962452205  0.45816827256128795  0.3304263661074884  1.0000
  Cl  Cl4       1.0  0.37928480525162195  0.5418287793724802  0.669576420113252  1.0000
