data_image0
_chemical_formula_structural       Cu16H88C192N16O80
_chemical_formula_sum              "Cu16 H88 C192 N16 O80"
_cell_length_a       18.87736732400368
_cell_length_b       18.87736170900349
_cell_length_c       34.98241094600095
_cell_angle_alpha    89.9999849375687
_cell_angle_beta     89.99997803613591
_cell_angle_gamma    90.0000680603763

_space_group_name_H-M_alt    "P 1"
_space_group_IT_number       1

loop_
  _space_group_symop_operation_xyz
  'x, y, z'

loop_
  _atom_site_type_symbol
  _atom_site_label
  _atom_site_symmetry_multiplicity
  _atom_site_fract_x
  _atom_site_fract_y
  _atom_site_fract_z
  _atom_site_occupancy
  Cu  Cu1       1.0  0.732705548924109  0.2932262078208225  0.2238346759796741  1.0000
  Cu  Cu2       1.0  0.26729555751361295  0.7067747164121626  0.2238338372388071  1.0000
  Cu  Cu3       1.0  0.7672969854932815  0.7932261703601922  0.27616579279636266  1.0000
  Cu  Cu4       1.0  0.7067742278319785  0.7327039185886476  0.2238343616249452  1.0000
  Cu  Cu5       1.0  0.20677389405483376  0.7672968962777417  0.2761658526553176  1.0000
  Cu  Cu6       1.0  0.2932258191355571  0.26729647590858713  0.2238344374516217  1.0000
  Cu  Cu7       1.0  0.7932266455002689  0.2327034727322966  0.27616611573940014  1.0000
  Cu  Cu8       1.0  0.23270355406192783  0.20677419864991717  0.2761658897404118  1.0000
  Cu  Cu9       1.0  0.2672953614786024  0.7067745819086326  0.7761656942347983  1.0000
  Cu  Cu10      1.0  0.7327037636844338  0.29322554358151365  0.7761656754020406  1.0000
  Cu  Cu11      1.0  0.2327033951746458  0.206774619369014  0.7238342915602232  1.0000
  Cu  Cu12      1.0  0.2932261528352171  0.2672958116704009  0.7761660085896551  1.0000
  Cu  Cu13      1.0  0.7932254271430069  0.23270336371579248  0.7238342317014099  1.0000
  Cu  Cu14      1.0  0.7067740317970675  0.7327037840851885  0.776165932762993  1.0000
  Cu  Cu15      1.0  0.2067737351674452  0.7672967872619406  0.7238336827592775  1.0000
  Cu  Cu16      1.0  0.767296296870697  0.7932260613438658  0.7238344804742025  1.0000
  H   H1        1.0  0.015034651981437702  0.45148522428821264  0.06165780935747021  1.0000
  H   H2        1.0  0.9849655101056596  0.5485141897251892  0.0616579879344883  1.0000
  H   H3        1.0  0.48496475022825086  0.9514848367169364  0.4383424546131991  1.0000
  H   H4        1.0  0.5485145029876931  0.015035250792848799  0.0616574992455767  1.0000
  H   H5        1.0  0.0485148423425272  0.48496493684405095  0.4383419611734354  1.0000
  H   H6        1.0  0.45148459963025545  0.9849646929551807  0.0616574404726222  1.0000
  H   H7        1.0  0.9514850523572989  0.5150348234444522  0.4383427231481178  1.0000
  H   H8        1.0  0.5150346147358463  0.048513334366191395  0.43834194385058106  1.0000
  H   H9        1.0  0.984965728685765  0.5485145059708357  0.93834256085713  1.0000
  H   H10       1.0  0.015034870561535697  0.4514855405338593  0.938342382280112  1.0000
  H   H11       1.0  0.5150351007041606  0.0485148935418707  0.5616576297435145  1.0000
  H   H12       1.0  0.45148534794513756  0.984965009201069  0.9383422992531578  1.0000
  H   H13       1.0  0.9514850085902042  0.515035323149803  0.5616581231832355  1.0000
  H   H14       1.0  0.5485136620973918  0.015034507567783403  0.9383420721684032  1.0000
  H   H15       1.0  0.0485132093709879  0.48496596628342553  0.5616576470666246  1.0000
  H   H16       1.0  0.48496470646093576  0.9514848066873113  0.561657568790416  1.0000
  H   H17       1.0  0.0843584950821565  0.2674900458463084  0.9999996593896158  1.0000
  H   H18       1.0  0.915641885585245  0.7325096844128822  1.3910909760000004e-07  1.0000
  H   H19       1.0  0.4156403336800595  0.7674887299311094  0.500000031932025  1.0000
  H   H20       1.0  0.7325096772408415  0.08435837814169389  0.9999996052932119  1.0000
  H   H21       1.0  0.23250918594786185  0.4156417845781703  0.5000003617092402  1.0000
  H   H22       1.0  0.267489289033854  0.9156400491275248  0.9999995944477007  1.0000
  H   H23       1.0  0.7674896055153083  0.5843590051500271  0.5000000085054451  1.0000
  H   H24       1.0  0.5843589875167297  0.23250941112240034  0.49999948070897193  1.0000
  H   H25       1.0  0.9684874519367169  0.3560889780967713  0.0914721290717679  1.0000
  H   H26       1.0  0.03151268898707829  0.6439109511308985  0.0914724914942298  1.0000
  H   H27       1.0  0.5315109192615495  0.8560885960381058  0.408527759068626  1.0000
  H   H28       1.0  0.643911305812459  0.9684889807248709  0.0914721192186292  1.0000
  H   H29       1.0  0.1439116575141668  0.5315112297200243  0.4085283939333237  1.0000
  H   H30       1.0  0.3560888351119544  0.0315114782380519  0.0914716437735024  1.0000
  H   H31       1.0  0.8560893178186217  0.46848801535477236  0.4085277529720273  1.0000
  H   H32       1.0  0.4684889966019909  0.14391117877124054  0.4085278161209159  1.0000
  H   H33       1.0  0.0315129287306846  0.6439107521624192  0.9085276694269523  1.0000
  H   H34       1.0  0.9684871619456458  0.3560893088629484  0.9085275928624483  1.0000
  H   H35       1.0  0.46848840193618463  0.14391113422052368  0.5914717535722572  1.0000
  H   H36       1.0  0.35608907485546837  0.031511809004335596  0.9085279651379566  1.0000
  H   H37       1.0  0.856088193418458  0.46848903027375854  0.5914719762812908  1.0000
  H   H38       1.0  0.6439110158204572  0.9684882520207554  0.9085284405832112  1.0000
  H   H39       1.0  0.14391106284899283  0.5315122446393942  0.591472331384594  1.0000
  H   H40       1.0  0.5315108543305272  0.8560885514876375  0.5914719823778539  1.0000
  H   H41       1.0  0.9015797751835067  0.3168890621955923  0.14392507013404549  1.0000
  H   H42       1.0  0.09841926903759199  0.6831119009548487  0.1439256990009099  1.0000
  H   H43       1.0  0.598418549458529  0.816888785175898  0.35607453771086733  1.0000
  H   H44       1.0  0.6831110991862915  0.9015829256832146  0.14392590883738168  1.0000
  H   H45       1.0  0.18311156758451833  0.5984178610697339  0.3560743103414978  1.0000
  H   H46       1.0  0.31688794503450884  0.0984180374670203  0.1439257178713973  1.0000
  H   H47       1.0  0.816888915248505  0.4015835284918055  0.356074830421008  1.0000
  H   H48       1.0  0.4015808739037822  0.18311101517988962  0.3560746030518658  1.0000
  H   H49       1.0  0.09841901628016811  0.683111727532946  0.8560738707909366  1.0000
  H   H50       1.0  0.9015816413650057  0.3168883590397016  0.856074099497718  1.0000
  H   H51       1.0  0.4015823609442819  0.1831120045536281  0.6439255466456615  1.0000
  H   H52       1.0  0.3168882220122811  0.09841839378047719  0.8560738896613316  1.0000
  H   H53       1.0  0.8168882833481135  0.4015823989240417  0.6439260598731167  1.0000
  H   H54       1.0  0.6831108464281358  0.9015816927911544  0.85607436648543  1.0000
  H   H55       1.0  0.1831119951539861  0.5984167315026737  0.6439252539355564  1.0000
  H   H56       1.0  0.5984189770287287  0.8168887150789883  0.6439251954469042  1.0000
  H   H57       1.0  0.013461682855457  0.24695394939881513  0.24422271385192573  1.0000
  H   H58       1.0  0.9865367604345182  0.7530459054325006  0.2442228630804948  1.0000
  H   H59       1.0  0.4865369467044048  0.7469525931422113  0.2557764357100893  1.0000
  H   H60       1.0  0.7530461356526246  0.013463603965661295  0.2442229397222277  1.0000
  H   H61       1.0  0.2530455469971429  0.48653629693752254  0.2557767642130457  1.0000
  H   H62       1.0  0.24695389684127628  0.9865351913964414  0.24422292306804394  1.0000
  H   H63       1.0  0.7469528880913144  0.5134635522665719  0.2557767111786262  1.0000
  H   H64       1.0  0.5134630775889093  0.25304725606296324  0.2557764679655392  1.0000
  H   H65       1.0  0.986535519402743  0.7530457808585566  0.7557767987891779  1.0000
  H   H66       1.0  0.013464679701918702  0.24695276535716454  0.7557772212761336  1.0000
  H   H67       1.0  0.51346449343297  0.25304713711774696  0.7442227910726373  1.0000
  H   H68       1.0  0.2469537152795738  0.9865355965581769  0.7557768587765779  1.0000
  H   H69       1.0  0.7469537742006978  0.5134639630560186  0.7442233201436821  1.0000
  H   H70       1.0  0.7530459540914549  0.013465068597405094  0.7557771612886341  1.0000
  H   H71       1.0  0.2530480223115958  0.48653723746301847  0.7442230873199591  1.0000
  H   H72       1.0  0.4865367733436017  0.7469524741959147  0.7442233305332309  1.0000
  H   H73       1.0  0.1297708700517859  0.29714273056580964  0.14164886463201037  1.0000
  H   H74       1.0  0.8702287055195866  0.7028571742236451  0.1416487592024254  1.0000
  H   H75       1.0  0.3702283488508655  0.7971422456364152  0.3583505636660362  1.0000
  H   H76       1.0  0.702857039224689  0.12977275471232724  0.1416491030451752  1.0000
  H   H77       1.0  0.20285729909117833  0.3702276162971074  0.3583511829959249  1.0000
  H   H78       1.0  0.2971430660820928  0.8702282095474556  0.1416488066470762  1.0000
  H   H79       1.0  0.7971431821248913  0.6297721829505248  0.3583511030672213  1.0000
  H   H80       1.0  0.6297716026304058  0.20285702387614177  0.35835057896543526  1.0000
  H   H81       1.0  0.870228451146062  0.7028575294277245  0.8583512197247173  1.0000
  H   H82       1.0  0.129771675148028  0.2971430857705214  0.8583513251541957  1.0000
  H   H83       1.0  0.6297715020815389  0.20285695488755803  0.6416486631168894  1.0000
  H   H84       1.0  0.2971428117083477  0.8702280350165662  0.8583509813114603  1.0000
  H   H85       1.0  0.7971425518412402  0.6297721139616996  0.6416489013607887  1.0000
  H   H86       1.0  0.7028573145854224  0.12977205044663986  0.8583515635674885  1.0000
  H   H87       1.0  0.20285772827760698  0.3702280770439541  0.6416489812893431  1.0000
  H   H88       1.0  0.3702282483017925  0.7971421766476966  0.6416492195333703  1.0000
  C   C1        1.0  0.011353197681223998  0.46234879984070415  0.9999999389790587  1.0000
  C   C2        1.0  0.9886471829863908  0.5376514601534551  1.4537756239999997e-07  1.0000
  C   C3        1.0  0.48864586250862635  0.9623486301326449  0.5000000105499893  1.0000
  C   C4        1.0  0.5376508944847488  0.0113528275572179  0.9999999165005633  1.0000
  C   C5        1.0  0.03765048989811961  0.4886471036530293  0.4999998049832969  1.0000
  C   C6        1.0  0.46234860152494417  0.9886461294472111  0.999999854956137  1.0000
  C   C7        1.0  0.9623488313000407  0.5113536860755445  0.5000002793733956  1.0000
  C   C8        1.0  0.511353458688589  0.037650570390802295  0.5000000738068165  1.0000
  C   C9        1.0  0.022893263144382604  0.4252527563456922  0.0342480357764785  1.0000
  C   C10       1.0  0.9771069183998123  0.5747472007524549  0.0342479264000062  1.0000
  C   C11       1.0  0.47710557817499943  0.9252523460877311  0.4657522319166318  1.0000
  C   C12       1.0  0.5747475186009011  0.022894422136111797  0.034247721343867  1.0000
  C   C13       1.0  0.0747472994300153  0.47710579666756553  0.4657520195024318  1.0000
  C   C14       1.0  0.42525213320861616  0.9771055349618578  0.0342476691167874  1.0000
  C   C15       1.0  0.9252520460778156  0.5228934205358867  0.4657524999346522  1.0000
  C   C16       1.0  0.522894297067502  0.074746341381065  0.4657520016624943  1.0000
  C   C17       1.0  0.977107117523225  0.5747475036484742  0.9657520485801426  1.0000
  C   C18       1.0  0.0228929325325993  0.4252525295063592  0.9657521579567074  1.0000
  C   C19       1.0  0.5228942727570994  0.0747468544360359  0.5342478524401173  1.0000
  C   C20       1.0  0.4252523323316169  0.9771053081227663  0.9657520771549032  1.0000
  C   C21       1.0  0.9252525515026093  0.5228944633262173  0.5342483507121898  1.0000
  C   C22       1.0  0.5747466582542273  0.022894195296459002  0.9657518435241528  1.0000
  C   C23       1.0  0.0747467453847293  0.4771063097222238  0.5342478702801117  1.0000
  C   C24       1.0  0.4771055538643836  0.9252523294077333  0.5342477968363538  1.0000
  C   C25       1.0  0.04773143088511491  0.355418330194766  0.0344061176021881  1.0000
  C   C26       1.0  0.9522687505467717  0.6445816268263158  0.03440628931611659  1.0000
  C   C27       1.0  0.45226626802504905  0.8554184202383223  0.4655935882846194  1.0000
  C   C28       1.0  0.6445814236554313  0.0477332099719803  0.0344057917950451  1.0000
  C   C29       1.0  0.1445811750963202  0.4522665620655886  0.46559393459438775  1.0000
  C   C30       1.0  0.35541822804145795  0.9522662173138842  0.034406043407464906  1.0000
  C   C31       1.0  0.8554181705234073  0.5477321254798113  0.4655944259588552  1.0000
  C   C32       1.0  0.5477341370649569  0.14458026730805074  0.46559334297880633  1.0000
  C   C33       1.0  0.9522689497824928  0.6445819297994004  0.965593966754433  1.0000
  C   C34       1.0  0.0477316301208432  0.3554186331678437  0.9655937950405047  1.0000
  C   C35       1.0  0.5477335829076678  0.1445813100206905  0.5344056384982636  1.0000
  C   C36       1.0  0.3554184272771863  0.9522665202869688  0.9655937208457813  1.0000
  C   C37       1.0  0.8554186758362051  0.5477336979281234  0.5344067214781703  1.0000
  C   C38       1.0  0.6445805634219184  0.0477345724144485  0.9655937550913406  1.0000
  C   C39       1.0  0.1445806209387186  0.4522670750431815  0.5344062301138877  1.0000
  C   C40       1.0  0.45226624360191187  0.8554184034811242  0.5344061696620486  1.0000
  C   C41       1.0  0.06238194536717861  0.32088149795124815  0.9999999437342099  1.0000
  C   C42       1.0  0.9376189650350001  0.6791182323081911  1.4062239019999998e-07  1.0000
  C   C43       1.0  0.43761588733731577  0.8208817973507648  0.5000000258691202  1.0000
  C   C44       1.0  0.6791176851778004  0.062383877407299296  0.9999996123788649  1.0000
  C   C45       1.0  0.17911721998345342  0.4376167516131415  0.5000003656766765  1.0000
  C   C46       1.0  0.32088181083262407  0.9376161390672879  0.9999998732198208  1.0000
  C   C47       1.0  0.8208821012137689  0.5623829786451464  0.5000005762539174  1.0000
  C   C48       1.0  0.5623839635946696  0.1791168734380975  0.4999994867717846  1.0000
  C   C49       1.0  0.0625602639114788  0.31748559287441214  0.07123434086108918  1.0000
  C   C50       1.0  0.9374409508477439  0.6825143462104607  0.0712347961200379  1.0000
  C   C51       1.0  0.4374384494167316  0.8174851535023038  0.428765370408307  1.0000
  C   C52       1.0  0.6825136155327697  0.06256156683586062  0.0712345806350214  1.0000
  C   C53       1.0  0.18251549444566  0.4374398394748765  0.4287654237593586  1.0000
  C   C54       1.0  0.3174854802872246  0.9374389019827871  0.0712345563462833  1.0000
  C   C55       1.0  0.8174849367867837  0.5625593957431788  0.4287656350149192  1.0000
  C   C56       1.0  0.5625614520808213  0.18251355198060537  0.4287648307922396  1.0000
  C   C57       1.0  0.937441176226315  0.6825151968554977  0.9287654576374466  1.0000
  C   C58       1.0  0.0625589000843547  0.31748485431330653  0.9287652882367112  1.0000
  C   C59       1.0  0.5625603420461187  0.18251457675601296  0.5712341422326332  1.0000
  C   C60       1.0  0.317485705665483  0.9374392228927846  0.9287652178637273  1.0000
  C   C61       1.0  0.8174848862221609  0.5625609502542659  0.5712349464551635  1.0000
  C   C62       1.0  0.6825138409105023  0.06256082827584207  0.9287649562946002  1.0000
  C   C63       1.0  0.18251438441064488  0.43744033451524433  0.5712347351997877  1.0000
  C   C64       1.0  0.4374383988512633  0.817485118808328  0.5712343959907217  1.0000
  C   C65       1.0  0.0158731104601415  0.3087306178570656  0.13793129306331764  1.0000
  C   C66       1.0  0.9841264677498316  0.6912692887427807  0.13793202327295262  1.0000
  C   C67       1.0  0.4841266519402225  0.8087307961731297  0.36206841944825635  1.0000
  C   C68       1.0  0.6912695520432378  0.015875476798150597  0.13793238736342056  1.0000
  C   C69       1.0  0.1912694148087297  0.4841254101791107  0.3620679010765143  1.0000
  C   C70       1.0  0.30873002616696243  0.9841254892715052  0.1379320724045385  1.0000
  C   C71       1.0  0.8087315935039214  0.5158743872586483  0.3620678349109312  1.0000
  C   C72       1.0  0.5158727671674725  0.19126900126347826  0.3620681741131762  1.0000
  C   C73       1.0  0.9841262107376921  0.6912691124016346  0.8620679337196292  1.0000
  C   C74       1.0  0.0158739129177832  0.30873097125137855  0.8620680610836686  1.0000
  C   C75       1.0  0.5158742584624889  0.1912699935563182  0.637931950766216  1.0000
  C   C76       1.0  0.3087308286246895  0.9841253129310557  0.8620676969931651  1.0000
  C   C77       1.0  0.8087304361244135  0.515875379549847  0.6379318974221845  1.0000
  C   C78       1.0  0.6912692950308852  0.0158747707220286  0.8620680119521891  1.0000
  C   C79       1.0  0.19126878716357962  0.4841253430006131  0.6379316777298456  1.0000
  C   C80       1.0  0.48412708376472574  0.80873019926036  0.6379316243856294  1.0000
  C   C81       1.0  0.951703807159184  0.3041007549294362  0.1578472052033888  1.0000
  C   C82       1.0  0.048296286648380295  0.6958986122360286  0.1578472709163066  1.0000
  C   C83       1.0  0.548296621233817  0.8041004251395377  0.3421532620297967  1.0000
  C   C84       1.0  0.695898394386809  0.951703810899296  0.1578474715921345  1.0000
  C   C85       1.0  0.19589828340483004  0.5482959315756801  0.342152744939682  1.0000
  C   C86       1.0  0.3041006399508888  0.048295556265465195  0.157847290385611  1.0000
  C   C87       1.0  0.8041027390445024  0.4517044052963682  0.3421535464119358  1.0000
  C   C88       1.0  0.45170334174522964  0.19589938199669626  0.3421536010378503  1.0000
  C   C89       1.0  0.048296043773113695  0.6958984455944731  0.8421523074374803  1.0000
  C   C90       1.0  0.9517040940190143  0.3041011180231619  0.8421525275824137  1.0000
  C   C91       1.0  0.4517048189030461  0.19589930512007203  0.6578473940426405  1.0000
  C   C92       1.0  0.30410145654560244  0.04829591935951069  0.8421526127645791  1.0000
  C   C93       1.0  0.8041010377932309  0.45170485815282996  0.6578476252749539  1.0000
  C   C94       1.0  0.6958981515117558  0.951704173992709  0.8421527939712092  1.0000
  C   C95       1.0  0.19589870109255966  0.5482953249633838  0.6578465379446142  1.0000
  C   C96       1.0  0.5482970389216532  0.8040998185273126  0.6578467691767855  1.0000
  C   C97       1.0  0.9508726265281808  0.2821172706309412  0.19600381080822157  1.0000
  C   C98       1.0  0.04912691046018129  0.7178841968904165  0.1960047308033523  1.0000
  C   C99       1.0  0.5491261865497777  0.7821137820014313  0.3039952302550972  1.0000
  C   C100      1.0  0.7178850267342084  0.9508731901224363  0.196004073334322  1.0000
  C   C101      1.0  0.21788494382430915  0.5491265784748548  0.3039952810720266  1.0000
  C   C102      1.0  0.2821155697227766  0.04912668819428489  0.196005039993139  1.0000
  C   C103      1.0  0.7821161057113172  0.4508737769816307  0.3039949437820225  1.0000
  C   C104      1.0  0.4508738035154495  0.217885513984342  0.3039949945991367  1.0000
  C   C105      1.0  0.04912669467049109  0.7178835190979811  0.8039948442587671  1.0000
  C   C106      1.0  0.9508734702072134  0.2821155333687742  0.8039950676953679  1.0000
  C   C107      1.0  0.4508736643820086  0.21788488878729587  0.6960048541016945  1.0000
  C   C108      1.0  0.28211482419840905  0.0491265401365126  0.8039954393065116  1.0000
  C   C109      1.0  0.7821159665780896  0.4508736815195532  0.6960050891424814  1.0000
  C   C110      1.0  0.7178848109450513  0.9508741015348505  0.8039953302213902  1.0000
  C   C111      1.0  0.21788533442585128  0.5491259532781925  0.696004854716584  1.0000
  C   C112      1.0  0.5491265771521653  0.7821147460098173  0.6960050897574845  1.0000
  C   C113      1.0  0.014058185312329398  0.26458353916449784  0.2146166913420657  1.0000
  C   C114      1.0  0.9859418681983029  0.7354168598220879  0.2146168431955431  1.0000
  C   C115      1.0  0.48594099492089526  0.764583227250199  0.2853830274340652  1.0000
  C   C116      1.0  0.7354170992900322  0.0140574336850037  0.2146172061655065  1.0000
  C   C117      1.0  0.23541595917838987  0.48594191653778995  0.2853830731352858  1.0000
  C   C118      1.0  0.26458348395454584  0.9859419058316021  0.2146171859459542  1.0000
  C   C119      1.0  0.7645851035684004  0.5140579182483123  0.2853835880824889  1.0000
  C   C120      1.0  0.5140584786213438  0.23541660753503632  0.2853833479259293  1.0000
  C   C121      1.0  0.985941665620608  0.7354167208294912  0.7853828212987253  1.0000
  C   C122      1.0  0.014058512469311798  0.26458340017207854  0.7853832411610712  1.0000
  C   C123      1.0  0.5140583262770518  0.23541703274340617  0.7146167710647261  1.0000
  C   C124      1.0  0.2645827516420667  0.9859417668387634  0.7853828781912426  1.0000
  C   C125      1.0  0.7645838917542349  0.5140583434559858  0.7146172970793288  1.0000
  C   C126      1.0  0.7354163669783986  0.0140588838972207  0.7853831842686247  1.0000
  C   C127      1.0  0.2354163365683561  0.4859412822763928  0.7146164962740968  1.0000
  C   C128      1.0  0.4859413723107551  0.7645825929887309  0.7146167364308197  1.0000
  C   C129      1.0  0.0780771866846308  0.27101297621840814  0.19483359952375423  1.0000
  C   C130      1.0  0.9219228808686067  0.728986902668261  0.19483376554271098  1.0000
  C   C131      1.0  0.4219225309198436  0.7710125786092659  0.305164974908223  1.0000
  C   C132      1.0  0.7289866925661954  0.0780790929329385  0.1948338316952487  1.0000
  C   C133      1.0  0.22898493264168  0.4219223685898967  0.30516587722078725  1.0000
  C   C134      1.0  0.27101443445754814  0.9219223751593545  0.19483410508688334  1.0000
  C   C135      1.0  0.7710124079182846  0.5780769268242523  0.30516523832093867  1.0000
  C   C136      1.0  0.5780769285812113  0.22898830601168638  0.3051644254855219  1.0000
  C   C137      1.0  0.9219226642473545  0.7289856945704543  0.8051659131171504  1.0000
  C   C138      1.0  0.0780774997993205  0.2710138870609455  0.8051663188138746  1.0000
  C   C139      1.0  0.5780778497472312  0.22898609218005112  0.6948339660167377  1.0000
  C   C140      1.0  0.2710142178371342  0.9219222265317695  0.8051656809453647  1.0000
  C   C141      1.0  0.7710143885560612  0.5780778914035665  0.6948344929938841  1.0000
  C   C142      1.0  0.7289854164751759  0.0780778848344994  0.8051659792697947  1.0000
  C   C143      1.0  0.22898797274889662  0.42192227369996965  0.6948342743198737  1.0000
  C   C144      1.0  0.4219223926169349  0.7710119539820538  0.6948348012973823  1.0000
  C   C145      1.0  0.0795345138337069  0.29274271782784206  0.1565778011662289  1.0000
  C   C146      1.0  0.9204650511404393  0.707257179690643  0.1565776847124383  1.0000
  C   C147      1.0  0.4204652295783404  0.7927428295899971  0.34342191361402996  1.0000
  C   C148      1.0  0.7072569820440081  0.07953480123613589  0.1565786088921186  1.0000
  C   C149      1.0  0.207256252703516  0.4204645155300851  0.3434219620962367  1.0000
  C   C150      1.0  0.2927431126642972  0.920464566547345  0.1565780204183014  1.0000
  C   C151      1.0  0.7927437093749887  0.5795352909882749  0.3434221760647986  1.0000
  C   C152      1.0  0.5795352622349411  0.20725644719377095  0.34342165283110393  1.0000
  C   C153      1.0  0.920464807363821  0.7072570124306523  0.8434222831905416  1.0000
  C   C154      1.0  0.0795353295271752  0.2927430803035236  0.843422399644183  1.0000
  C   C155      1.0  0.5795356808239446  0.20725690066950622  0.6565778848846334  1.0000
  C   C156      1.0  0.29274339862318743  0.9204649290229199  0.8434217613224817  1.0000
  C   C157      1.0  0.7927425387594412  0.5795357444631365  0.6565781222605481  1.0000
  C   C158      1.0  0.7072567382683275  0.07953569344643799  0.8434223497963202  1.0000
  C   C159      1.0  0.20725720102728928  0.4204644392712352  0.6565776224338576  1.0000
  C   C160      1.0  0.4204651184319276  0.792742223595404  0.6565778598097439  1.0000
  C   C161      1.0  0.8818169061720271  0.2766561860522215  0.2165661518291273  1.0000
  C   C162      1.0  0.11818420542373792  0.723342093045666  0.21656505574799917  1.0000
  C   C163      1.0  0.6181850788314734  0.7766580868333646  0.2834357485878272  1.0000
  C   C164      1.0  0.723342307208604  0.8818153390617309  0.2165646960069836  1.0000
  C   C165      1.0  0.2233417911766438  0.618186025223757  0.2834363724171922  1.0000
  C   C166      1.0  0.2766577449193619  0.11818505897618078  0.2165645105645098  1.0000
  C   C167      1.0  0.7766624513594351  0.3818116915717695  0.2834386187777156  1.0000
  C   C168      1.0  0.3818154555629932  0.22334174890102793  0.2834355264540632  1.0000
  C   C169      1.0  0.11818400422932032  0.7233424847369889  0.7834345042434376  1.0000
  C   C170      1.0  0.8818151157740033  0.2766581669478043  0.7834353144666721  1.0000
  C   C171      1.0  0.38181530183614143  0.2233421731608018  0.7165643357687942  1.0000
  C   C172      1.0  0.2766580734587976  0.1181843911974667  0.7834351024917368  1.0000
  C   C173      1.0  0.7766580597563078  0.38181529423989957  0.7165648553711748  1.0000
  C   C174      1.0  0.7233415762792106  0.8818162604875041  0.7834352879342035  1.0000
  C   C175      1.0  0.22334110771530646  0.6181859197486544  0.7165631807264176  1.0000
  C   C176      1.0  0.6181849251044085  0.7766579813581628  0.7165642720446499  1.0000
  C   C177      1.0  0.1465284534626221  0.256832534658649  0.2148748079017579  1.0000
  C   C178      1.0  0.8534710701295793  0.7431673344668608  0.2148749860792378  1.0000
  C   C179      1.0  0.3534701878301334  0.7568325952180787  0.28512548369015184  1.0000
  C   C180      1.0  0.7431698478989474  0.14652828020987838  0.214876469117641  1.0000
  C   C181      1.0  0.24316696143512226  0.35347107922249416  0.2851252378680798  1.0000
  C   C182      1.0  0.2568328541016314  0.8534710591820552  0.2148750400107176  1.0000
  C   C183      1.0  0.7568325122906714  0.6465298151583313  0.2851257356223726  1.0000
  C   C184      1.0  0.6465308750992804  0.24316723969332796  0.2851266332319824  1.0000
  C   C185      1.0  0.853470867734913  0.7431671955998452  0.7851252764550125  1.0000
  C   C186      1.0  0.1465293105376162  0.2568323957921947  0.7851253841353625  1.0000
  C   C187      1.0  0.6465296631023846  0.2431671350407996  0.7148743148086183  1.0000
  C   C188      1.0  0.2568326517068513  0.853470390580142  0.7851247586706407  1.0000
  C   C189      1.0  0.7568328894979217  0.6465297105063996  0.7148748464885556  1.0000
  C   C190      1.0  0.7431669968312065  0.14652973054669619  0.785125616061805  1.0000
  C   C191      1.0  0.2431678683769363  0.35347044483582823  0.7148743487342486  1.0000
  C   C192      1.0  0.3534700353025926  0.7568324905658983  0.7148743086984481  1.0000
  N   N1        1.0  0.014240495151106801  0.33245375055307846  0.0998452945017618  1.0000
  N   N2        1.0  0.9857601695639956  0.6675461745969002  0.0998454560237292  1.0000
  N   N3        1.0  0.4857577062194308  0.8324533825235247  0.4001544146437013  1.0000
  N   N4        1.0  0.667545917521245  0.014241769110235197  0.099845535313726  1.0000
  N   N5        1.0  0.16754681466113647  0.48575908968190595  0.4001544721793806  1.0000
  N   N6        1.0  0.33245315798951935  0.9857586857738381  0.09984521521188579  1.0000
  N   N7        1.0  0.8324546963510501  0.5142412189415068  0.4001546871924617  1.0000
  N   N8        1.0  0.5142422155879911  0.1675463963640382  0.40015417301246003  1.0000
  N   N9        1.0  0.9857598855166074  0.6675465094411591  0.9001545039969159  1.0000
  N   N10       1.0  0.014240211103718502  0.33245408539733023  0.9001543424749485  1.0000
  N   N11       1.0  0.5142410852433201  0.1675463477347279  0.5998453838551825  1.0000
  N   N12       1.0  0.3324534036769151  0.9857590206183388  0.9001545490429663  1.0000
  N   N13       1.0  0.8324525065366044  0.514241170311564  0.5998458980352908  1.0000
  N   N14       1.0  0.6675466929430981  0.014241044485103795  0.9001542974289407  1.0000
  N   N15       1.0  0.1675462140513417  0.4857590410529014  0.5998456830220462  1.0000
  N   N16       1.0  0.4857576353443064  0.8324528041598639  0.599845339628402  1.0000
  O   O1        1.0  0.11356523241856561  0.27749380496497617  0.0750902761989636  1.0000
  O   O2        1.0  0.8864370390748846  0.7225087809177424  0.0750907363417426  1.0000
  O   O3        1.0  0.3864334334121082  0.7774922474022644  0.42490944074534553  1.0000
  O   O4        1.0  0.7225065092964157  0.11356659844955169  0.07509136823035328  1.0000
  O   O5        1.0  0.2225078006345171  0.38643379590583027  0.4249089137428399  1.0000
  O   O6        1.0  0.2774920540507608  0.8864333387554025  0.0750910736006318  1.0000
  O   O7        1.0  0.7774905143946711  0.6135638519838976  0.4249099836139507  1.0000
  O   O8        1.0  0.6135659410885239  0.22250804916337327  0.424909170753203  1.0000
  O   O9        1.0  0.8864372671904732  0.7225096334407012  0.924909808157217  1.0000
  O   O10       1.0  0.11356281185753397  0.27749094934106466  0.9249093480149639  1.0000
  O   O11       1.0  0.6135664175198912  0.22250695312143162  0.575090929469347  1.0000
  O   O12       1.0  0.2774933416364149  0.8864336615443663  0.9249084302683812  1.0000
  O   O13       1.0  0.7774920502981075  0.6135664640879526  0.5750914564717746  1.0000
  O   O14       1.0  0.7225077968814374  0.11356586176843556  0.9249087248981737  1.0000
  O   O15       1.0  0.22250986627335578  0.38643693774537263  0.5750898148846915  1.0000
  O   O16       1.0  0.38643338010930955  0.7774916810953271  0.5750900560297367  1.0000
  O   O17       1.0  0.8276743150036907  0.30434011112667747  0.20040117470578883  1.0000
  O   O18       1.0  0.17232468912718696  0.69565923531259  0.20040178649230003  1.0000
  O   O19       1.0  0.6723245244697509  0.8043404791547458  0.2995981490617723  1.0000
  O   O20       1.0  0.695661514137676  0.8276748160446061  0.20040115123975968  1.0000
  O   O21       1.0  0.1956621104026866  0.6723259856194375  0.29959906534094227  1.0000
  O   O22       1.0  0.3043396089330557  0.17232506013095863  0.2004018099580733  1.0000
  O   O23       1.0  0.804340001722828  0.32767437197846055  0.2996001702219857  1.0000
  O   O24       1.0  0.3276759984517028  0.19565934870778529  0.299598513779884  1.0000
  O   O25       1.0  0.1723244764590461  0.6956590893967346  0.7995977662192998  1.0000
  O   O26       1.0  0.8276756915401079  0.30434049494653687  0.7995982978643639  1.0000
  O   O27       1.0  0.32767532646328595  0.19566031057414787  0.7004019352948704  1.0000
  O   O28       1.0  0.30434045573436197  0.17232438448069587  0.7995977896850022  1.0000
  O   O29       1.0  0.8043403892046896  0.3276753338457964  0.7004021624471477  1.0000
  O   O30       1.0  0.6956591825303207  0.8276757295973737  0.7995979885407322  1.0000
  O   O31       1.0  0.19566196814860598  0.6723248285464223  0.7004004858504301  1.0000
  O   O32       1.0  0.6723243822152797  0.8043398518162944  0.7004015705768154  1.0000
  O   O33       1.0  0.8822846314593563  0.24430684868740118  0.2487017322021501  1.0000
  O   O34       1.0  0.117717516796489  0.7556945931698847  0.2487014892009825  1.0000
  O   O35       1.0  0.6177173151224694  0.7443050564192716  0.25129817179983854  1.0000
  O   O36       1.0  0.7556953244190722  0.8822825767621151  0.2487014141830244  1.0000
  O   O37       1.0  0.2556943009092906  0.6177177664916227  0.2512982182539005  1.0000
  O   O38       1.0  0.24430470489669884  0.1177178056238972  0.24870152136246299  1.0000
  O   O39       1.0  0.7443073157658802  0.382279965955135  0.2512993278140384  1.0000
  O   O40       1.0  0.38228271234991956  0.2556953247019607  0.2512985166942485  1.0000
  O   O41       1.0  0.1177173384135415  0.7556944707777901  0.7512983521542296  1.0000
  O   O42       1.0  0.8822818044011457  0.2443051370886806  0.7512983092978445  1.0000
  O   O43       1.0  0.38228306554555763  0.2556957333100057  0.7487016266988036  1.0000
  O   O44       1.0  0.244305056248642  0.1177176832321223  0.7512983843156532  1.0000
  O   O45       1.0  0.744304490554086  0.38228302323670954  0.7487015802449049  1.0000
  O   O46       1.0  0.7556946163014616  0.8822829841046766  0.7512985629942293  1.0000
  O   O47       1.0  0.2556941243697253  0.6177176453643084  0.7487013282585406  1.0000
  O   O48       1.0  0.6177176683173755  0.7443044055571661  0.7487015676624083  1.0000
  O   O49       1.0  0.2028424684962076  0.27759765618937843  0.1977850693936034  1.0000
  O   O50       1.0  0.7971570672269407  0.7224016915245883  0.1977846904598337  1.0000
  O   O51       1.0  0.29715725692849293  0.7775976415201242  0.3022146475357488  1.0000
  O   O52       1.0  0.7224016312588545  0.20284493409729268  0.1977853067761117  1.0000
  O   O53       1.0  0.2224023739237495  0.29715704933821735  0.3022152610766824  1.0000
  O   O54       1.0  0.27759896393563827  0.7971570622925127  0.197784453077027  1.0000
  O   O55       1.0  0.7775976174049218  0.7028422475144394  0.3022151748255482  1.0000
  O   O56       1.0  0.7028406154625201  0.22240430400668737  0.30221493079268674  1.0000
  O   O57       1.0  0.797156852701221  0.7224020740690448  0.8022153008211105  1.0000
  O   O58       1.0  0.2028433134403542  0.27759803873453137  0.8022153938968231  1.0000
  O   O59       1.0  0.7028436534739909  0.22240208873952125  0.6977845792470276  1.0000
  O   O60       1.0  0.27759927914407  0.7971563853671313  0.8022153492962616  1.0000
  O   O61       1.0  0.7775974770089745  0.7028432106556366  0.6977848232799957  1.0000
  O   O62       1.0  0.7224019464668601  0.2028431977019665  0.8022156312795445  1.0000
  O   O63       1.0  0.22240276326237304  0.2971574827446871  0.6977849095311086  1.0000
  O   O64       1.0  0.297157646266399  0.7775975451912771  0.6977854394219847  1.0000
  O   O65       1.0  0.14381300269933206  0.22619265028466626  0.2474174501924296  1.0000
  O   O66       1.0  0.8561864977927341  0.773807202991378  0.2474173376020232  1.0000
  O   O67       1.0  0.3561856022026504  0.7261911407147322  0.2525825598894543  1.0000
  O   O68       1.0  0.773807581520238  0.14381339839493992  0.247417104969081  1.0000
  O   O69       1.0  0.27380789978951736  0.3561859974401287  0.25258288052608446  1.0000
  O   O70       1.0  0.2261924487066054  0.8561859251465191  0.2474171111094705  1.0000
  O   O71       1.0  0.7261915970361913  0.6438143830551866  0.25258281329301  1.0000
  O   O72       1.0  0.6438138946242019  0.2738102992510107  0.2525817046398586  1.0000
  O   O73       1.0  0.8561863184984089  0.7738076097087966  0.7525829200222489  1.0000
  O   O74       1.0  0.1438138828745608  0.2261925272677416  0.7525827467546335  1.0000
  O   O75       1.0  0.6438137189944513  0.2738075300738174  0.7474169527515072  1.0000
  O   O76       1.0  0.22619226941186102  0.8561858021288273  0.7525829793876753  1.0000
  O   O77       1.0  0.7261924808778916  0.6438142625538957  0.7474177755464169  1.0000
  O   O78       1.0  0.7738074022262255  0.14381433484739856  0.752582687389264  1.0000
  O   O79       1.0  0.273808253896533  0.35618587693866743  0.7474172710636608  1.0000
  O   O80       1.0  0.35618542657457647  0.7261910202128162  0.7474175221429674  1.0000
