data_image0
_chemical_formula_structural       Zn6H40C60S4N20O16
_chemical_formula_sum              "Zn6 H40 C60 S4 N20 O16"
_cell_length_a       9.288175341040665
_cell_length_b       11.229823093063189
_cell_length_c       16.812275481278824
_cell_angle_alpha    86.30678876250488
_cell_angle_beta     80.97925063501599
_cell_angle_gamma    65.57818261152347

_space_group_name_H-M_alt    "P 1"
_space_group_IT_number       1

loop_
  _space_group_symop_operation_xyz
  'x, y, z'

loop_
  _atom_site_type_symbol
  _atom_site_label
  _atom_site_symmetry_multiplicity
  _atom_site_fract_x
  _atom_site_fract_y
  _atom_site_fract_z
  _atom_site_occupancy
  Zn  Zn1       1.0  0.2614936892729108  0.4780877547386808  0.2500000710151653  1.0000
  Zn  Zn2       1.0  0.7385067434557869  0.5219119928862244  0.749999496501722  1.0000
  Zn  Zn3       1.0  0.05380839345049545  0.34184490773358084  0.09546199450630159  1.0000
  Zn  Zn4       1.0  0.6046889219601896  0.34179697041052043  0.4047075706072008  1.0000
  Zn  Zn5       1.0  0.9461882641798598  0.6581558182809105  0.9045390345549933  1.0000
  Zn  Zn6       1.0  0.39531299357307165  0.6581998427847611  0.5952908055637706  1.0000
  H   H1        1.0  0.9832948818035165  0.07998765354957271  0.30584712483121723  1.0000
  H   H2        1.0  0.9378575098716907  0.07960882832485085  0.19413189308020407  1.0000
  H   H3        1.0  0.016707723154667425  0.9200120943438038  0.6941528578349148  1.0000
  H   H4        1.0  0.0621450712778398  0.9203909202557841  0.8058698759831768  1.0000
  H   H5        1.0  0.06583006374599899  0.9111461437135873  0.413069451134504  1.0000
  H   H6        1.0  0.023657914172176296  0.910915589879558  0.08675412847806999  1.0000
  H   H7        1.0  0.9341736233588027  0.0888536044285644  0.5869310368391253  1.0000
  H   H8        1.0  0.9763413163455825  0.08908220172499884  0.9132456190790492  1.0000
  H   H9        1.0  0.43138806344015995  0.03566137332668971  0.44916472438782046  1.0000
  H   H10       1.0  0.5333249066782245  0.03565782372083961  0.051154430330861096  1.0000
  H   H11       1.0  0.568615254751585  0.9643413085775167  0.5508350783762166  1.0000
  H   H12       1.0  0.4666738269259412  0.964340946103292  0.9488459128301443  1.0000
  H   H13       1.0  0.3535556540090783  0.19947431399551616  0.3408665606116159  1.0000
  H   H14       1.0  0.4478675565985669  0.1995519106792685  0.1594801125462055  1.0000
  H   H15       1.0  0.6464464460992901  0.800526412346514  0.6591346131241522  1.0000
  H   H16       1.0  0.5521312811974824  0.8004488153746011  0.8405207361985774  1.0000
  H   H17       1.0  0.38404320716020407  0.7877291135217206  0.03591895099641108  1.0000
  H   H18       1.0  0.8286395029322199  0.7870020242642468  0.4644604435925073  1.0000
  H   H19       1.0  0.6159555264439619  0.21226965630241074  0.9640813921645941  1.0000
  H   H20       1.0  0.17136805552659953  0.2129987019471501  0.5355396838862488  1.0000
  H   H21       1.0  0.43436579743002596  0.9271384184812208  0.12872031769661868  1.0000
  H   H22       1.0  0.6390658466844034  0.926946965130881  0.371815993010081  1.0000
  H   H23       1.0  0.5656408235390346  0.0728554617180279  0.8712801694481769  1.0000
  H   H24       1.0  0.36093595695791697  0.0730586521192862  0.6281873829628708  1.0000
  H   H25       1.0  0.43133485152973366  0.8687793316814807  0.27640057663667505  1.0000
  H   H26       1.0  0.700332473409205  0.8689916590105967  0.22403412183848556  1.0000
  H   H27       1.0  0.5686700941234407  0.13121357002974324  0.7235988997549894  1.0000
  H   H28       1.0  0.2996661800488951  0.13101591395206924  0.7759688392615018  1.0000
  H   H29       1.0  0.37405444994356457  0.6755870959044331  0.32423857753738616  1.0000
  H   H30       1.0  0.9505545016043089  0.6757318459092617  0.1759503382768202  1.0000
  H   H31       1.0  0.6259447885104097  0.3244106954710447  0.6757605745539833  1.0000
  H   H32       1.0  0.049440440245170796  0.32427670361030186  0.8240493206415775  1.0000
  H   H33       1.0  0.3603051379338142  0.6114073224978185  0.8957662678877722  1.0000
  H   H34       1.0  0.028739057425511378  0.6111884745792935  0.6043341859254028  1.0000
  H   H35       1.0  0.6396931066929811  0.3885924253167943  0.10423407541137657  1.0000
  H   H36       1.0  0.9712639402543818  0.3888083388647701  0.39566469555305867  1.0000
  H   H37       1.0  0.21720057408360574  0.7392483122413085  0.9441892074487795  1.0000
  H   H38       1.0  0.04356546607628794  0.7390733489578596  0.5558322010791483  1.0000
  H   H39       1.0  0.7827998586450918  0.2607514353835968  0.05581036006810789  1.0000
  H   H40       1.0  0.9564370426262274  0.2609244424766858  0.44416668053746367  1.0000
  C   C1        1.0  0.08567709617177853  0.0659039355556814  0.33508639584781  1.0000
  C   C2        1.0  0.8494052880008811  0.0656026695944121  0.1649680946526715  1.0000
  C   C3        1.0  0.914322831707118  0.9340967905178773  0.6649143627387131  1.0000
  C   C4        1.0  0.15059720482919683  0.9343951222983053  0.8350319778954399  1.0000
  C   C5        1.0  0.12990199063296626  0.9732819581656644  0.3961082721989867  1.0000
  C   C6        1.0  0.897497872390176  0.9730619397861205  0.10386331088559327  1.0000
  C   C7        1.0  0.8701059684837847  0.026715833367340708  0.6038901586263563  1.0000
  C   C8        1.0  0.10249966693926643  0.026934873788569316  0.8961366168498941  1.0000
  C   C9        1.0  0.25743762217627647  0.9592360188039848  0.4362174211068321  1.0000
  C   C10       1.0  0.7838097705529568  0.9591530190809935  0.06381861225153776  1.0000
  C   C11       1.0  0.7425671470751639  0.040763729586942105  0.5637835721742873  1.0000
  C   C12       1.0  0.216183135787702  0.040848684635825805  0.9361820919569012  1.0000
  C   C13       1.0  0.33666455616724283  0.041981448361958905  0.41613028303900984  1.0000
  C   C14       1.0  0.6218928081077097  0.041919569576769816  0.08410393522824217  1.0000
  C   C15       1.0  0.6633392589380878  0.9580202553226799  0.5838689241211482  1.0000
  C   C16       1.0  0.37810382571400014  0.9580811571249794  0.9158988802302943  1.0000
  C   C17       1.0  0.29287641200640024  0.1344330505857059  0.3554553401984961  1.0000
  C   C18       1.0  0.573529110938786  0.1343707747697636  0.1448048863149651  1.0000
  C   C19       1.0  0.7071257277830514  0.865567674610894  0.644542856208531  1.0000
  C   C20       1.0  0.4264703438351632  0.8656309288361048  0.8551946814782025  1.0000
  C   C21       1.0  0.1683731032770481  0.14593271077663422  0.3136389317072456  1.0000
  C   C22       1.0  0.6867408129853703  0.14577854617461844  0.18650111601946406  1.0000
  C   C23       1.0  0.831629020639973  0.8540680148781379  0.6863604556312806  1.0000
  C   C24       1.0  0.31325961974332767  0.8542212014502863  0.8134984514974234  1.0000
  C   C25       1.0  0.12416784434030612  0.24737074311330082  0.24905745256978656  1.0000
  C   C26       1.0  0.6296708493880419  0.24741043460579706  0.25101813004365425  1.0000
  C   C27       1.0  0.8758304965421501  0.7526309611601435  0.7509439917788824  1.0000
  C   C28       1.0  0.3703295912768781  0.7525893127900218  0.7489808420074907  1.0000
  C   C29       1.0  0.31532661871006  0.8564276948800044  0.49878500648343754  1.0000
  C   C30       1.0  0.8284025653379319  0.8564942916053582  0.0011170079883910924  1.0000
  C   C31       1.0  0.6846731732320921  0.14357107588016055  0.5012176283823064  1.0000
  C   C32       1.0  0.17158986789778657  0.1435083896437703  0.9988825054266853  1.0000
  C   C33       1.0  0.22690371882854546  0.4903953670383174  0.9962222039953373  1.0000
  C   C34       1.0  0.28294124919522556  0.49008128879326324  0.5038942356072623  1.0000
  C   C35       1.0  0.7730929546742403  0.5096053585180017  0.0037776341344511032  1.0000
  C   C36       1.0  0.717059680447065  0.5099174806120815  0.49610473630573887  1.0000
  C   C37       1.0  0.3006174011458927  0.5802530131420554  0.08725450489345825  1.0000
  C   C38       1.0  0.11957213675228236  0.5798383835347424  0.4128358858690219  1.0000
  C   C39       1.0  0.699376619086259  0.4197486899071948  0.9127443227594796  1.0000
  C   C40       1.0  0.8804326721802342  0.4201613637107614  0.5871621300833566  1.0000
  C   C41       1.0  0.3463267371821604  0.6627751120994319  0.13245059429757325  1.0000
  C   C42       1.0  0.9913218067058273  0.6623727937128336  0.36771280652460087  1.0000
  C   C43       1.0  0.6536703052336962  0.33722267969483266  0.8675499290418002  1.0000
  C   C44       1.0  0.008679700233287282  0.3376269543899398  0.6322878617655333  1.0000
  C   C45       1.0  0.38136978353894374  0.7670677144481248  0.10007980035464929  1.0000
  C   C46       1.0  0.8519838760190909  0.766586835324219  0.40025123324790707  1.0000
  C   C47       1.0  0.618630529125447  0.23293007740521432  0.8999204525099671  1.0000
  C   C48       1.0  0.14802102123287852  0.23341486860919505  0.5997484792197411  1.0000
  C   C49       1.0  0.4113229028607537  0.8431915661669935  0.1522008428293518  1.0000
  C   C50       1.0  0.7459962640068272  0.8429933472138064  0.34821021272915686  1.0000
  C   C51       1.0  0.5886794699050172  0.1568042699541579  0.8477999150664743  1.0000
  C   C52       1.0  0.25400109098466583  0.15701031326968726  0.651791827361542  1.0000
  C   C53       1.0  0.4095081298897726  0.8115312755850116  0.23366059501674388  1.0000
  C   C54       1.0  0.779391825504597  0.8115409628346696  0.26669898067836323  1.0000
  C   C55       1.0  0.5904975131245394  0.18846456059521444  0.7663398924043249  1.0000
  C   C56       1.0  0.2206066354421736  0.18846269721034056  0.733301778322577  1.0000
  C   C57       1.0  0.3765099719302188  0.704191266355224  0.26091761275455366  1.0000
  C   C58       1.0  0.9196028465416934  0.7041865871665396  0.2393088129319806  1.0000
  C   C59       1.0  0.623490340734172  0.29580652549811504  0.7390826401100624  1.0000
  C   C60       1.0  0.08039293732579018  0.2958180510586601  0.7606927219893647  1.0000
  S   S1        1.0  0.18849000332682667  0.4621924827692823  0.9051014554900617  1.0000
  S   S2        1.0  0.3493057775546476  0.4620898255925  0.5950458337647857  1.0000
  S   S3        1.0  0.8115083613642755  0.5378092208169037  0.09489820246135848  1.0000
  S   S4        1.0  0.6506977249750466  0.5379060094029101  0.4049518566440397  1.0000
  N   N1        1.0  0.2498803057689829  0.4938013798301242  0.12425424813366698  1.0000
  N   N2        1.0  0.2568396785116249  0.4934556354883527  0.3758193516476638  1.0000
  N   N3        1.0  0.7501179547302428  0.5061983675263164  0.8757449042339828  1.0000
  N   N4        1.0  0.74316344716879  0.5065431334981981  0.6241782490173335  1.0000
  N   N5        1.0  0.20482765481623505  0.43748614586809964  0.06876779651842918  1.0000
  N   N6        1.0  0.3580894537190035  0.4371992877873439  0.431334539566663  1.0000
  N   N7        1.0  0.7951701167056131  0.5625145794788226  0.9312313559873572  1.0000
  N   N8        1.0  0.6419130787921575  0.562798502959943  0.5686625556527005  1.0000
  N   N9        1.0  0.29028804606506525  0.5792760094781214  0.007470233428165292  1.0000
  N   N10       1.0  0.13071402453386596  0.5788916756174701  0.4926280690345237  1.0000
  N   N11       1.0  0.7097102223703763  0.4207237376492329  0.9925283234737277  1.0000
  N   N12       1.0  0.8692895821877047  0.4211061156076853  0.5073701269580795  1.0000
  N   N13       1.0  0.32467207668835146  0.6613939678597377  0.9493965630914258  1.0000
  N   N14       1.0  0.014148896877984023  0.6610663745993933  0.5507071165074606  1.0000
  N   N15       1.0  0.6753272580212838  0.3386057799745714  0.05060369004946351  1.0000
  N   N16       1.0  0.9858541008019092  0.3389304388446703  0.449291764971008  1.0000
  N   N17       1.0  0.3443116561208086  0.6322573238457851  0.2118681527976634  1.0000
  N   N18       1.0  0.023826708673056002  0.6320859093788729  0.28824580939379973  1.0000
  N   N19       1.0  0.6556877907169326  0.36774437998917625  0.7881320104612539  1.0000
  N   N20       1.0  0.9761695959166662  0.3679177499395011  0.7117533435264034  1.0000
  O   O1        1.0  0.42316120853386274  0.8531997925356906  0.5369287788275939  1.0000
  O   O2        1.0  0.723558350400694  0.8533809876498994  0.9630971439189864  1.0000
  O   O3        1.0  0.5768322354225434  0.14680289102398805  0.46307659908672594  1.0000
  O   O4        1.0  0.2764330651991927  0.14662365072562272  0.03690534710111849  1.0000
  O   O5        1.0  0.2553999126210088  0.7698054836132472  0.5105511043480035  1.0000
  O   O6        1.0  0.9748990427665307  0.7698546878361728  0.9891056613990301  1.0000
  O   O7        1.0  0.7446004159158123  0.23019230778191976  0.4894479575851063  1.0000
  O   O8        1.0  0.025094713528353962  0.2301431043571895  0.010896323346607098  1.0000
  O   O9        1.0  0.054861578832159814  0.2302677633439744  0.19346727882640377  1.0000
  O   O10       1.0  0.7155407341134677  0.22974788536377846  0.30690842241381927  1.0000
  O   O11       1.0  0.945135182990079  0.7697349189002552  0.8065342558186613  1.0000
  O   O12       1.0  0.28445766310641596  0.7702450164583823  0.6930921903931164  1.0000
  O   O13       1.0  0.15779612299311213  0.3452600137285203  0.251702070533227  1.0000
  O   O14       1.0  0.49886636340843876  0.3459357863513405  0.2480182683745156  1.0000
  O   O15       1.0  0.8422033317808444  0.6547416898773548  0.7482974972599405  1.0000
  O   O16       1.0  0.5011403530323693  0.6540688511544206  0.751979983101293  1.0000
