data_image0
_chemical_formula_structural       Cd3H22C20N14Cl2O4
_chemical_formula_sum              "Cd3 H22 C20 N14 Cl2 O4"
_cell_length_a       6.9256571020698185
_cell_length_b       9.004518118191093
_cell_length_c       12.892576143832256
_cell_angle_alpha    76.3119668349889
_cell_angle_beta     87.03707186871112
_cell_angle_gamma    73.51874991036836

_space_group_name_H-M_alt    "P 1"
_space_group_IT_number       1

loop_
  _space_group_symop_operation_xyz
  'x, y, z'

loop_
  _atom_site_type_symbol
  _atom_site_label
  _atom_site_symmetry_multiplicity
  _atom_site_fract_x
  _atom_site_fract_y
  _atom_site_fract_z
  _atom_site_occupancy
  Cd  Cd1       1.0  0.49999959554018875  0.9999992463713379  0.5000006060799863  1.0000
  Cd  Cd2       1.0  0.9277204512513751  0.09098252700169947  0.6048388662613958  1.0000
  Cd  Cd3       1.0  0.07227623350053154  0.9090188481268625  0.39516158382006245  1.0000
  H   H1        1.0  0.2744734761888241  0.48552991376504895  0.4259778357633053  1.0000
  H   H2        1.0  0.7255256369357783  0.5144726757874307  0.5740262283887603  1.0000
  H   H3        1.0  0.7250632109143638  0.7784291733730483  0.2779715060448495  1.0000
  H   H4        1.0  0.27493826057821025  0.22157098506074388  0.7220267010974695  1.0000
  H   H5        1.0  0.5884417062661528  0.4710415628243111  0.33421510133818094  1.0000
  H   H6        1.0  0.4115612120387412  0.5289585927946091  0.6657830700671497  1.0000
  H   H7        1.0  0.7836493730302936  0.3407848286973305  0.27697790925054017  1.0000
  H   H8        1.0  0.21635540049411622  0.6592141394635433  0.723021190322406  1.0000
  H   H9        1.0  0.3549132530361307  0.7002782681331537  0.219526569002781  1.0000
  H   H10       1.0  0.6450904726090201  0.29971952410114255  0.7804743051199452  1.0000
  H   H11       1.0  0.2301636433142492  0.8518037265285301  0.038213408020375525  1.0000
  H   H12       1.0  0.7698400728567736  0.14819407160752004  0.961788241010545  1.0000
  H   H13       1.0  0.7669781908356016  0.5934161930497553  0.904189560442866  1.0000
  H   H14       1.0  0.23302079543951495  0.406582786370585  0.09580968207802702  1.0000
  H   H15       1.0  0.891918668756418  0.4392663785176722  0.08653172791483851  1.0000
  H   H16       1.0  0.108084240074355  0.5607337830029947  0.9134672183986936  1.0000
  H   H17       1.0  0.9463051447722678  0.936373008283908  0.8195324991599975  1.0000
  H   H18       1.0  0.053690928929952995  0.0636259885696688  0.18046836465126154  1.0000
  H   H19       1.0  0.7381303126943737  0.9226905189263587  0.7785807133482764  1.0000
  H   H20       1.0  0.26186535260065114  0.07730966257039999  0.2214191865583857  1.0000
  H   H21       1.0  0.12044246859206005  0.20173501141362485  0.4204804641571797  1.0000
  H   H22       1.0  0.8795556534980451  0.7982663668018118  0.5795207250954988  1.0000
  C   C1        1.0  0.12916954443099388  0.5266565181126167  0.3848193060719538  1.0000
  C   C2        1.0  0.8708285587108618  0.47334487190631325  0.6151834329971068  1.0000
  C   C3        1.0  0.8522633636975672  0.6782976698801663  0.3102179979097316  1.0000
  C   C4        1.0  0.14773891513526402  0.321700125169002  0.6897829119499832  1.0000
  C   C5        1.0  0.7091782218514527  0.4660302467964782  0.2754556486954485  1.0000
  C   C6        1.0  0.29082612431751204  0.5339699178110634  0.7245440367892897  1.0000
  C   C7        1.0  0.6316061188423705  0.5589903955780924  0.1652822454101895  1.0000
  C   C8        1.0  0.36839532422782656  0.4410097805609324  0.8347182864567201  1.0000
  C   C9        1.0  0.44522831863372386  0.6748217575562734  0.15076531390688797  1.0000
  C   C10       1.0  0.5547745807229135  0.3251784098661404  0.8492344073148316  1.0000
  C   C11       1.0  0.37482918208247906  0.7610362949409789  0.04858084043139145  1.0000
  C   C12       1.0  0.6251722704618389  0.23896387529629953  0.9514189165273237  1.0000
  C   C13       1.0  0.49121933879092  0.7325858219179862  0.9594068534713784  1.0000
  C   C14       1.0  0.5087802585338823  0.2674155357773458  0.04059197531972102  1.0000
  C   C15       1.0  0.6796609002399736  0.6177441742307151  0.974060028337682  1.0000
  C   C16       1.0  0.3203401438971556  0.3822571806497521  0.025938764716428912  1.0000
  C   C17       1.0  0.7484767710064235  0.5317218489110118  0.07598273360960661  1.0000
  C   C18       1.0  0.25152612835022137  0.4682783185113948  0.9240169876121129  1.0000
  C   C19       1.0  0.419128545737209  0.816442069744731  0.8510767804145516  1.0000
  C   C20       1.0  0.5808681295405763  0.1835593112855776  0.14892444457510837  1.0000
  N   N1        1.0  0.019518881871675987  0.6825212262253328  0.355325745381549  1.0000
  N   N2        1.0  0.9804778028802305  0.3174801489032291  0.6446747046999164  1.0000
  N   N3        1.0  0.03843180266047608  0.42785210174282884  0.3595646393617856  1.0000
  N   N4        1.0  0.9615681841232661  0.5721480831128146  0.6404367031503071  1.0000
  N   N5        1.0  0.8623013434167887  0.5266915503421997  0.31224635729780925  1.0000
  N   N6        1.0  0.1377011285844106  0.4733098135268817  0.6877539498357024  1.0000
  N   N7        1.0  0.2246857815856559  0.8779912026220342  0.8187533720281905  1.0000
  N   N8        1.0  0.775314205198086  0.12200898223360918  0.18124797048389504  1.0000
  N   N9        1.0  0.23137626617445073  0.9379334734998253  0.7133244543979701  1.0000
  N   N10       1.0  0.7686208269846518  0.0620667169855551  0.28667695958809253  1.0000
  N   N11       1.0  0.4204346746380383  0.9147252992344476  0.6833225045942156  1.0000
  N   N12       1.0  0.5795620006397472  0.0852760817958611  0.31667872039544415  1.0000
  N   N13       1.0  0.54267024656361  0.8383327528507676  0.7675691419336205  1.0000
  N   N14       1.0  0.4573268655437489  0.1616674258311193  0.2324307222360531  1.0000
  Cl  Cl1       1.0  0.5588694359927332  0.26526985472276  0.5384044970137083  1.0000
  Cl  Cl2       1.0  0.44112955975651175  0.7347291187958402  0.4615939705989902  1.0000
  O   O1        1.0  0.1564905534145566  0.0927471115730327  0.4662031598479359  1.0000
  O   O2        1.0  0.8435084139123107  0.9072518796508006  0.5337976324893461  1.0000
  O   O3        1.0  0.8174056881367451  0.9985247901047031  0.7816600976979586  1.0000
  O   O4        1.0  0.18258995821003055  0.0014754031955419992  0.2183413520250923  1.0000
