data_image0
_chemical_formula_structural       Cu2H24C16N4O16
_chemical_formula_sum              "Cu2 H24 C16 N4 O16"
_cell_length_a       4.650735523232754
_cell_length_b       10.50689331705279
_cell_length_c       11.94643878530274
_cell_angle_alpha    76.14444144853272
_cell_angle_beta     78.80176115292238
_cell_angle_gamma    77.21689596852724

_space_group_name_H-M_alt    "P 1"
_space_group_IT_number       1

loop_
  _space_group_symop_operation_xyz
  'x, y, z'

loop_
  _atom_site_type_symbol
  _atom_site_label
  _atom_site_symmetry_multiplicity
  _atom_site_fract_x
  _atom_site_fract_y
  _atom_site_fract_z
  _atom_site_occupancy
  Cu  Cu1       1.0  2.796910230332028e-06  0.9999993864105717  0.4999998530527493  1.0000
  Cu  Cu2       1.0  0.49999941718435525  0.500000599351367  1.3346922148496058e-07  1.0000
  H   H1        1.0  0.44062243364096065  0.5926830540610484  0.3129793675754514  1.0000
  H   H2        1.0  0.34624532528749785  0.9073070110039649  0.18696049620618993  1.0000
  H   H3        1.0  0.5593770154947888  0.40731689779325125  0.6870201735934529  1.0000
  H   H4        1.0  0.6537541238482515  0.0926929408503341  0.8130390449627146  1.0000
  H   H5        1.0  0.7718880229604463  0.47329753863544266  0.3206945236004445  1.0000
  H   H6        1.0  0.5657818030613838  0.026670772263138093  0.1793665163401528  1.0000
  H   H7        1.0  0.22811018183497803  0.5267034084408238  0.6793056776260613  1.0000
  H   H8        1.0  0.4342184284768744  0.9733301744039762  0.8206338506931774  1.0000
  H   H9        1.0  0.36362151286729  0.3768767882194339  0.28420663050861356  1.0000
  H   H10       1.0  0.024341769168692816  0.12298718916265734  0.2156909512474314  1.0000
  H   H11       1.0  0.6363791286328392  0.6231231612399314  0.7157939138883621  1.0000
  H   H12       1.0  0.9756588723314359  0.8770127602967078  0.7843095931495444  1.0000
  H   H13       1.0  0.09942510084815831  0.31881719095857625  0.4048621483760613  1.0000
  H   H14       1.0  0.8232007114356178  0.18139933393339897  0.094787245343106  1.0000
  H   H15       1.0  0.9005767849922955  0.6811817632788222  0.5951377359633057  1.0000
  H   H16       1.0  0.17679790332167714  0.8186006159351108  0.9052131332470454  1.0000
  H   H17       1.0  0.09765963067115958  0.1699984274678883  0.6106607309686327  1.0000
  H   H18       1.0  0.8790207341354517  0.32974061113260694  0.889566885734972  1.0000
  H   H19       1.0  0.902340176450515  0.8300015200056878  0.3893406508495901  1.0000
  H   H20       1.0  0.12097829058371444  0.6702583415281538  0.11043367021882491  1.0000
  H   H21       1.0  0.28394549905995337  0.017801017459561308  0.6396871375525138  1.0000
  H   H22       1.0  0.9417511701260748  0.4820740983237997  0.860399679933167  1.0000
  H   H23       1.0  0.7160547324783049  0.9821999292075607  0.3603132294808162  1.0000
  H   H24       1.0  0.058245007926515616  0.5179268491616044  0.1396003554865146  1.0000
  C   C1        1.0  0.576790544664952  0.5202823284457736  0.3743321332524091  1.0000
  C   C2        1.0  0.4713614592610752  0.9796937395995899  0.12566344074947716  1.0000
  C   C3        1.0  0.4232089044707975  0.4797176234085328  0.6256674079164882  1.0000
  C   C4        1.0  0.5286379898746745  0.020306212254716606  0.8743361004194199  1.0000
  C   C5        1.0  0.31757669799809163  0.4008213127145909  0.5568228907188912  1.0000
  C   C6        1.0  0.2751893825752342  0.0991564828236733  0.9431020820618132  1.0000
  C   C7        1.0  0.6824227511376578  0.5991786391397085  0.4431766504500133  1.0000
  C   C8        1.0  0.724809284158006  0.9008424742178179  0.0568966332426513  1.0000
  C   C9        1.0  0.33207124062349164  0.33205395938394133  0.3775431840449458  1.0000
  C   C10       1.0  0.04160739321434183  0.1679286815148018  0.12237865284122051  1.0000
  C   C11       1.0  0.6679302352550918  0.6679459920612131  0.6224565229307758  1.0000
  C   C12       1.0  0.9583928383239164  0.8320722651523195  0.8776217141921095  1.0000
  C   C13       1.0  0.5223822851225675  0.19227879277128324  0.3946825549460087  1.0000
  C   C14       1.0  0.10944091927126458  0.3076503411340354  0.10557175834293991  1.0000
  C   C15       1.0  0.4776175219991072  0.8077211547022857  0.6053188268722212  1.0000
  C   C16       1.0  0.8905589542810755  0.6923506099138096  0.8944267680410649  1.0000
  N   N1        1.0  0.40447514232734216  0.41958538361418374  0.44104858937802066  1.0000
  N   N2        1.0  0.265062398356349  0.08044188813411071  0.05889973449466619  1.0000
  N   N3        1.0  0.5955263335512408  0.580414567830971  0.558951117597708  1.0000
  N   N4        1.0  0.7349386531056432  0.9195570641175053  0.941100987265955  1.0000
  O   O1        1.0  0.154734249555254  0.3190142897455317  0.6114039552863489  1.0000
  O   O2        1.0  0.08516407374260357  0.180924436435312  0.888426278419523  1.0000
  O   O3        1.0  0.8452672263233295  0.6809856616996228  0.38859575168937266  1.0000
  O   O4        1.0  0.9148325142718506  0.8190755138423428  0.11157393436380401  1.0000
  O   O5        1.0  0.44511809280609066  0.10733208339863858  0.3529596370143225  1.0000
  O   O6        1.0  0.9058002313755438  0.39241169632239803  0.1475871185435977  1.0000
  O   O7        1.0  0.5548842174509473  0.8926678700323125  0.6470392325401519  1.0000
  O   O8        1.0  0.0942004101245854  0.6075882531369674  0.8524134258533779  1.0000
  O   O9        1.0  0.7426410658138278  0.17243255459013804  0.4502853161586345  1.0000
  O   O10       1.0  0.3652512674682597  0.3275370844529562  0.04992097202880071  1.0000
  O   O11       1.0  0.25736076805068103  0.8275673924742861  0.5497162314664125  1.0000
  O   O12       1.0  0.634747347289035  0.6724628654155538  0.9500794065613506  1.0000
  O   O13       1.0  0.08149277737020809  0.07338651034958592  0.6256839562817404  1.0000
  O   O14       1.0  0.7810650734837019  0.426359847331554  0.8747495116906665  1.0000
  O   O15       1.0  0.9185098908727553  0.9266134387006276  0.37431675392205943  1.0000
  O   O16       1.0  0.21893313131172212  0.5736410997447053  0.12525068953583943  1.0000
