data_image0
_chemical_formula_structural       Cd2H30C26N4O14
_chemical_formula_sum              "Cd2 H30 C26 N4 O14"
_cell_length_a       9.072339654056364
_cell_length_b       10.276709740562833
_cell_length_c       10.198198640025321
_cell_angle_alpha    63.33808855193629
_cell_angle_beta     64.40493621936581
_cell_angle_gamma    80.10919653775738

_space_group_name_H-M_alt    "P 1"
_space_group_IT_number       1

loop_
  _space_group_symop_operation_xyz
  'x, y, z'

loop_
  _atom_site_type_symbol
  _atom_site_label
  _atom_site_symmetry_multiplicity
  _atom_site_fract_x
  _atom_site_fract_y
  _atom_site_fract_z
  _atom_site_occupancy
  Cd  Cd1       1.0  0.4267620081070547  0.5988034258130596  0.2508475699080747  1.0000
  Cd  Cd2       1.0  0.5732401502295872  0.40120223004852545  0.7491472457271229  1.0000
  H   H1        1.0  0.597166733408777  0.6988467251867403  0.898614392635878  1.0000
  H   H2        1.0  0.4028353718202595  0.30114913252242553  0.10138466693113204  1.0000
  H   H3        1.0  0.6095189511044055  0.815209411186707  0.9566042668469094  1.0000
  H   H4        1.0  0.39049285438542103  0.18478109451040578  0.04339737129159004  1.0000
  H   H5        1.0  0.30475879337897993  0.4363143539018139  0.5904886192584088  1.0000
  H   H6        1.0  0.6952384755872955  0.5636890530953023  0.4095080258400045  1.0000
  H   H7        1.0  0.32810220827958864  0.5941731348776002  0.5551302151093722  1.0000
  H   H8        1.0  0.6718986912037935  0.40582811613239034  0.44486795428837667  1.0000
  H   H9        1.0  0.8107699915911297  0.7893307428634627  0.3396410985793492  1.0000
  H   H10       1.0  0.18923337573857418  0.2106770630996308  0.6603542967384257  1.0000
  H   H11       1.0  0.7897452414941668  0.20168418246426967  0.36143945515453874  1.0000
  H   H12       1.0  0.21025564943494146  0.7983224345808534  0.6385593468524817  1.0000
  H   H13       1.0  0.42860546347171885  0.08233869141406559  0.26292645623546207  1.0000
  H   H14       1.0  0.571389214033985  0.9176654460893441  0.737082620286792  1.0000
  H   H15       1.0  0.8884532575159838  0.7506525767681607  0.5602952930759812  1.0000
  H   H16       1.0  0.11153545438880032  0.24934850839581194  0.4397045938483757  1.0000
  H   H17       1.0  0.09042192716375298  0.8191395272927832  0.49400331110634  1.0000
  H   H18       1.0  0.909570373067744  0.18085393267176633  0.5060014546402982  1.0000
  H   H19       1.0  0.0432799945514972  0.7738974571511573  0.36682224343788067  1.0000
  H   H20       1.0  0.9567135754504649  0.22610473660509453  0.633178279137354  1.0000
  H   H21       1.0  0.19400911237447357  0.8756427974146912  0.08036819226325802  1.0000
  H   H22       1.0  0.8059881102695243  0.1243497485407019  0.9196321715318873  1.0000
  H   H23       1.0  0.9623475329503889  0.8199717433280821  0.9981041510008739  1.0000
  H   H24       1.0  0.037653339682194094  0.18001760954517462  0.0018962150754760366  1.0000
  H   H25       1.0  0.1803355498773698  0.42667308923328295  0.20316697083310944  1.0000
  H   H26       1.0  0.8196702670021381  0.5733240075110398  0.7968272144740215  1.0000
  H   H27       1.0  0.8456098665646505  0.58926727254682  0.04706506849119327  1.0000
  H   H28       1.0  0.15439346889789363  0.41072539502302857  0.9529329413660576  1.0000
  H   H29       1.0  0.8926377950082197  0.4231611941865622  0.18102630740365572  1.0000
  H   H30       1.0  0.107367985581746  0.5768315220290602  0.8189707608784431  1.0000
  C   C1        1.0  0.5506114915139904  0.8235052284161595  0.26631219785269183  1.0000
  C   C2        1.0  0.4493881464627094  0.17649807246097282  0.7336894863689025  1.0000
  C   C3        1.0  0.6163640414799403  0.9285704159803811  0.29398767123103664  1.0000
  C   C4        1.0  0.3836355761407901  0.0714360735646764  0.7060155886957843  1.0000
  C   C5        1.0  0.7538449734170954  0.8931916608868846  0.331260230047036  1.0000
  C   C6        1.0  0.24615347238459148  0.10681490751245797  0.6687395135351437  1.0000
  C   C7        1.0  0.8159179681162955  0.9918267184402646  0.35597477898003405  1.0000
  C   C8        1.0  0.1840780198718051  0.008179775518996698  0.6440269029603556  1.0000
  C   C9        1.0  0.7414633037432382  0.12584802696417796  0.34114615679818167  1.0000
  C   C10       1.0  0.2585375685988538  0.8741574756030485  0.6588541135398743  1.0000
  C   C11       1.0  0.6040724401944289  0.16075663481866082  0.3047338901744111  1.0000
  C   C12       1.0  0.3959271783107781  0.8392477031534892  0.6952693160653141  1.0000
  C   C13       1.0  0.5401352359172336  0.0607587098134914  0.28331172316713077  1.0000
  C   C14       1.0  0.45986436311648765  0.9392466652536697  0.7166930050907253  1.0000
  C   C15       1.0  0.5276534592865333  0.30501197526018586  0.2872321883045785  1.0000
  C   C16       1.0  0.47234617869016654  0.6949913256169464  0.7127694959170158  1.0000
  C   C17       1.0  0.9944232320228535  0.8179315232774869  0.45722417876756083  1.0000
  C   C18       1.0  0.005572777205692597  0.18206963044094948  0.5427758737804993  1.0000
  C   C19       1.0  0.1557380715154792  0.7740918151874536  0.09488258913003737  1.0000
  C   C20       1.0  0.8442640319446043  0.22590834566753407  0.9051165778111638  1.0000
  C   C21       1.0  0.0423836493901106  0.7488224483427782  0.0524611575231547  1.0000
  C   C22       1.0  0.957613629014915  0.25117344104629785  0.9475348012788843  1.0000
  C   C23       1.0  0.1536043895334132  0.5413131421210761  0.16032259228753548  1.0000
  C   C24       1.0  0.8464001693773183  0.45867739819875175  0.8396748930950438  1.0000
  C   C25       1.0  0.9466018421690733  0.5208424270676558  0.06978871967259435  1.0000
  C   C26       1.0  0.05340028341592529  0.47915024197358463  0.9302087641891815  1.0000
  N   N1        1.0  0.2239761435253271  0.6433452952399603  0.16251262419783805  1.0000
  N   N2        1.0  0.7760259625881858  0.35664841089629806  0.837486381682069  1.0000
  N   N3        1.0  0.04286737694998519  0.6008307620780894  0.09458434470413138  1.0000
  N   N4        1.0  0.9571359467108635  0.39915972812455175  0.9054146082490817  1.0000
  O   O1        1.0  0.42880418314021534  0.8566741355820323  0.2282510277798268  1.0000
  O   O2        1.0  0.5712041184036706  0.14333493373910494  0.7717390224904933  1.0000
  O   O3        1.0  0.62238342966954  0.7012593482037273  0.28114654968238995  1.0000
  O   O4        1.0  0.377610032057774  0.29874370208748496  0.7188624723923666  1.0000
  O   O5        1.0  0.4216197231384768  0.3479469590004171  0.22668055273089754  1.0000
  O   O6        1.0  0.5783762793047489  0.6520552576073227  0.7733200250522358  1.0000
  O   O7        1.0  0.5723047149492471  0.3848510967573019  0.3311357503826074  1.0000
  O   O8        1.0  0.427692514189573  0.6151565360027503  0.6688639924391708  1.0000
  O   O9        1.0  0.9481438446063065  0.9668106150873895  0.39370224763617734  1.0000
  O   O10       1.0  0.05185699144624319  0.03319050695113649  0.6063009056768464  1.0000
  O   O11       1.0  0.6244669914723388  0.7124452118534491  0.9779058930097619  1.0000
  O   O12       1.0  0.3755399677219912  0.2875463626185777  0.022094166381904794  1.0000
  O   O13       1.0  0.2779758803146279  0.5372675260275626  0.5275352611729504  1.0000
  O   O14       1.0  0.7220238151920597  0.4627348151374378  0.47246191068134646  1.0000
