data_image0
_chemical_formula_structural       Nd2H38C54O16
_chemical_formula_sum              "Nd2 H38 C54 O16"
_cell_length_a       8.55066752978163
_cell_length_b       13.236892150125694
_cell_length_c       15.45444299766783
_cell_angle_alpha    104.14313197552849
_cell_angle_beta     92.96876201550637
_cell_angle_gamma    101.3028627135676

_space_group_name_H-M_alt    "P 1"
_space_group_IT_number       1

loop_
  _space_group_symop_operation_xyz
  'x, y, z'

loop_
  _atom_site_type_symbol
  _atom_site_label
  _atom_site_symmetry_multiplicity
  _atom_site_fract_x
  _atom_site_fract_y
  _atom_site_fract_z
  _atom_site_occupancy
  Nd  Nd1       1.0  0.08847022425179318  0.1646179331199562  0.5420621296119137  1.0000
  Nd  Nd2       1.0  0.9115212175800523  0.835371022705374  0.4579328526762936  1.0000
  H   H1        1.0  0.42108855405262346  0.3108055617360251  0.554365688322612  1.0000
  H   H2        1.0  0.5788985938770423  0.6891774095503964  0.4456368067238117  1.0000
  H   H3        1.0  0.2760750552460535  0.3577275168804874  0.5290440897154483  1.0000
  H   H4        1.0  0.7239342216480864  0.6422727460246025  0.4709619973276062  1.0000
  H   H5        1.0  0.7564532548559981  0.1530541700031591  0.5785118180066675  1.0000
  H   H6        1.0  0.24352604841799053  0.8469483195342704  0.42149548762949957  1.0000
  H   H7        1.0  0.7342364837672264  0.0528323737196317  0.4937200610736027  1.0000
  H   H8        1.0  0.265764762675829  0.9471731688972653  0.5062875560061286  1.0000
  H   H9        1.0  0.8911851331837184  0.3895202632658864  0.8009498524592898  1.0000
  H   H10       1.0  0.10875957701251338  0.6104589222213832  0.19903318690639082  1.0000
  H   H11       1.0  0.8984267574156063  0.6950853626660205  0.6658812723294503  1.0000
  H   H12       1.0  0.10161122867807387  0.304920032439739  0.3341174651487719  1.0000
  H   H13       1.0  0.5154393752731536  0.04413319349658448  0.8976149021694724  1.0000
  H   H14       1.0  0.48455243293063416  0.9558686809791012  0.10239795790077712  1.0000
  H   H15       1.0  0.3891325032615996  0.14756168173454404  0.8124226924930724  1.0000
  H   H16       1.0  0.6108559209075679  0.8524489555861265  0.18758750958902226  1.0000
  H   H17       1.0  0.9156037755212124  0.1515944033694225  0.23141041058756429  1.0000
  H   H18       1.0  0.0844104041224369  0.8484027221878706  0.7685983950870251  1.0000
  H   H19       1.0  0.6577833406321217  0.867307840768653  0.6514449418208057  1.0000
  H   H20       1.0  0.34222447924873484  0.13269089148378302  0.34855814319391953  1.0000
  H   H21       1.0  0.6976610862312499  0.9997732846448032  0.9587766473800768  1.0000
  H   H22       1.0  0.3023402021792592  0.00022888715486149553  0.041236024373013394  1.0000
  H   H23       1.0  0.5232689122827524  0.9654410609570407  0.5676408246300682  1.0000
  H   H24       1.0  0.4767192149341143  0.0345580088450745  0.43235828839910784  1.0000
  H   H25       1.0  0.8063723725980337  0.5522433074414507  0.8864907864272736  1.0000
  H   H26       1.0  0.19358995760433118  0.4477484807837158  0.1134894010023473  1.0000
  H   H27       1.0  0.9993592794925661  0.847862788332769  0.2531039347700954  1.0000
  H   H28       1.0  0.0006724922446608  0.15214091534299706  0.7468922151074224  1.0000
  H   H29       1.0  0.9832859412698199  0.533053771539052  0.5821374975804402  1.0000
  H   H30       1.0  0.01675348755205159  0.4669618983208323  0.4178649562111332  1.0000
  H   H31       1.0  0.9113443512207694  0.7711028963711469  0.09368507366151851  1.0000
  H   H32       1.0  0.088686764712989  0.22889839291571684  0.9063111417314147  1.0000
  H   H33       1.0  0.9169198984440854  0.7334185391182187  0.9580245816311145  1.0000
  H   H34       1.0  0.08309967937055518  0.266587951701176  0.04197235367758619  1.0000
  H   H35       1.0  0.8332393510768623  0.07637603694041668  0.07015709732414169  1.0000
  H   H36       1.0  0.16675804221132043  0.9236272311846038  0.9298440103074838  1.0000
  H   H37       1.0  0.6757956866887085  0.7543154192078702  0.7151738570966515  1.0000
  H   H38       1.0  0.32421515633685516  0.2457033081404063  0.2848300634898706  1.0000
  C   C1        1.0  0.8455333802423367  0.6348172460607913  0.78199041689669  1.0000
  C   C2        1.0  0.1544984332321491  0.36518243546253615  0.21800675275156323  1.0000
  C   C3        1.0  0.8926860606633937  0.4574498402572686  0.7726303982525664  1.0000
  C   C4        1.0  0.10728964440764337  0.5425398462961225  0.22735309517610594  1.0000
  C   C5        1.0  0.8941865876979448  0.627760449923734  0.695376141291213  1.0000
  C   C6        1.0  0.1058477943162686  0.3722400965923143  0.30462133308648015  1.0000
  C   C7        1.0  0.94264142128263  0.45148635720392605  0.6867607934980242  1.0000
  C   C8        1.0  0.057375229338361984  0.5485036062596649  0.313227689413253  1.0000
  C   C9        1.0  0.5222813579804041  0.028234739316289403  0.8254885327894356  1.0000
  C   C10       1.0  0.47771818306453184  0.971773800751379  0.17452294062228194  1.0000
  C   C11       1.0  0.44990417281994866  0.08659799953473882  0.7781466736800979  1.0000
  C   C12       1.0  0.5500788797096519  0.9134053891320661  0.22186099321312716  1.0000
  C   C13       1.0  0.5979532027882116  0.9473137826348434  0.781650894077238  1.0000
  C   C14       1.0  0.4020564667790937  0.052700864193639084  0.21835463029047728  1.0000
  C   C15       1.0  0.3557662848352336  0.11747210452473668  0.6324090154692641  1.0000
  C   C16       1.0  0.6442231612462165  0.882527747672036  0.3675916268378785  1.0000
  C   C17       1.0  0.9150455100250029  0.0683166487312405  0.20036546550800693  1.0000
  C   C18       1.0  0.08493857167450607  0.9316719084285267  0.7996343019190703  1.0000
  C   C19       1.0  0.5979632883436281  0.9275515282004888  0.6879160894814901  1.0000
  C   C20       1.0  0.4020334148916477  0.07244995264013451  0.312089759106243  1.0000
  C   C21       1.0  0.7242125830969001  0.9241668154412965  0.9237308290612417  1.0000
  C   C22       1.0  0.275781579050836  0.0758385223556459  0.07627644885280199  1.0000
  C   C23       1.0  0.9623318246614828  0.005358985132389187  0.2534602747534151  1.0000
  C   C24       1.0  0.03764480594333714  0.9946406127146261  0.7465365430596335  1.0000
  C   C25       1.0  0.4471762405277886  0.0637968622232137  0.6845264252888228  1.0000
  C   C26       1.0  0.5528083867390521  0.9361993856868837  0.3154816077334957  1.0000
  C   C27       1.0  0.808239195232417  0.8704626259534932  0.9715846505598832  1.0000
  C   C28       1.0  0.1917661672656195  0.12953257028559054  0.0284259382252472  1.0000
  C   C29       1.0  0.5224904154790622  0.9837921817216752  0.6401166866841166  1.0000
  C   C30       1.0  0.47748973730907096  0.016199401538351293  0.3598842618674425  1.0000
  C   C31       1.0  0.8460035347936666  0.548455750789735  0.8199726261912019  1.0000
  C   C32       1.0  0.15399150316944338  0.4515401460028484  0.18000985418085946  1.0000
  C   C33       1.0  0.9623286922940718  0.8982532320459383  0.21341354573694088  1.0000
  C   C34       1.0  0.0376904511101301  0.1017428970024952  0.7865829324763708  1.0000
  C   C35       1.0  0.6776289388317664  0.8854254993501983  0.831277494343766  1.0000
  C   C36       1.0  0.32237948083021456  0.11458841354502171  0.1687252196698381  1.0000
  C   C37       1.0  0.9433437218904643  0.5374109807678877  0.6485801628753477  1.0000
  C   C38       1.0  0.056680772958763656  0.46258362860225327  0.35141877677987304  1.0000
  C   C39       1.0  0.9946599558808483  0.3546496391484126  0.6373295867556833  1.0000
  C   C40       1.0  0.005357730740264796  0.6453456105825667  0.3626679243319373  1.0000
  C   C41       1.0  0.009432268643600101  0.0536177857291307  0.35042149448162957  1.0000
  C   C42       1.0  0.99056050498973  0.9463847672061545  0.6495734305227073  1.0000
  C   C43       1.0  0.9133163145941481  0.8551861160509657  0.12239628404969236  1.0000
  C   C44       1.0  0.08668417191599079  0.1448149854793428  0.8776012154517756  1.0000
  C   C45       1.0  0.8629729087340864  0.9168286465871988  0.06830913434536977  1.0000
  C   C46       1.0  0.13701026174967273  0.08316672200544421  0.9316999315512573  1.0000
  C   C47       1.0  0.8445327302136576  0.7743722697154068  0.9241702976780886  1.0000
  C   C48       1.0  0.1554861779727972  0.22564185348695534  0.0758354872363114  1.0000
  C   C49       1.0  0.8664940906946086  0.0247139901007571  0.10964363409041768  1.0000
  C   C50       1.0  0.13347948116788894  0.9752877985716708  0.8903561513147124  1.0000
  C   C51       1.0  0.798308812434115  0.7327153292843605  0.8319299414277596  1.0000
  C   C52       1.0  0.20170601506480074  0.2672863030393628  0.16806503371473264  1.0000
  C   C53       1.0  0.7136441588676091  0.7882018260447835  0.7865018050335023  1.0000
  C   C54       1.0  0.28636332869350406  0.21180817594554208  0.2134980289948132  1.0000
  O   O1        1.0  0.3300511662869355  0.2980219980279982  0.5096171715402561  1.0000
  O   O2        1.0  0.6699451075266082  0.701984028134504  0.49037286837356214  1.0000
  O   O3        1.0  0.011329671718243516  0.9937553115989815  0.4054350209549468  1.0000
  O   O4        1.0  0.9886608511798369  0.006243199371951386  0.5945595296887589  1.0000
  O   O5        1.0  0.32098853294912993  0.0757831675592584  0.5464286176443238  1.0000
  O   O6        1.0  0.6790170981282769  0.9242162689085516  0.4535751865274661  1.0000
  O   O7        1.0  0.7885979188559203  0.13024163932283983  0.5184681629368626  1.0000
  O   O8        1.0  0.21138750236308812  0.8697577712341483  0.4815412773203958  1.0000
  O   O9        1.0  0.3044388420369231  0.19955738434192946  0.6700749387968441  1.0000
  O   O10       1.0  0.6955484764823155  0.8004459642443533  0.3299154114771595  1.0000
  O   O11       1.0  0.06080502415224487  0.35443082765641515  0.564349263931156  1.0000
  O   O12       1.0  0.9392201827530045  0.6455540811839243  0.43565395059697914  1.0000
  O   O13       1.0  0.04755954009283409  0.1545209598584023  0.3808220424734827  1.0000
  O   O14       1.0  0.952395168195082  0.8454608404189443  0.6191633052118987  1.0000
  O   O15       1.0  0.972018962954806  0.2713633153683332  0.6675058819022369  1.0000
  O   O16       1.0  0.027975420125585453  0.7286327723761445  0.33249280359574834  1.0000
