data_image0
_chemical_formula_structural       Fe2H28C40N4O10
_chemical_formula_sum              "Fe2 H28 C40 N4 O10"
_cell_length_a       9.145569891246753
_cell_length_b       10.11022696183624
_cell_length_c       11.290988475817294
_cell_angle_alpha    112.2199736411029
_cell_angle_beta     93.96965063614691
_cell_angle_gamma    114.41207717151723

_space_group_name_H-M_alt    "P 1"
_space_group_IT_number       1

loop_
  _space_group_symop_operation_xyz
  'x, y, z'

loop_
  _atom_site_type_symbol
  _atom_site_label
  _atom_site_symmetry_multiplicity
  _atom_site_fract_x
  _atom_site_fract_y
  _atom_site_fract_z
  _atom_site_occupancy
  Fe  Fe1       1.0  0.47157758075179856  0.8572919365351266  0.19961598813094367  1.0000
  Fe  Fe2       1.0  0.5261693125103406  0.12311736315912467  0.7896489036309472  1.0000
  H   H1        1.0  0.6325805613216102  0.8885789379002701  0.464619339377222  1.0000
  H   H2        1.0  0.35990772665953585  0.1231307485357718  0.5266702323878574  1.0000
  H   H3        1.0  0.835958964714237  0.8092879285045809  0.5254331283143967  1.0000
  H   H4        1.0  0.15539181558183654  0.20762118841047786  0.4739226223643554  1.0000
  H   H5        1.0  0.9442378442861566  0.6625971757315837  0.3495205513983064  1.0000
  H   H6        1.0  0.04999755760093191  0.3465349731100815  0.6569336483784338  1.0000
  H   H7        1.0  0.8319963990875435  0.503790407959208  0.8737810905157485  1.0000
  H   H8        1.0  0.1660535702650705  0.4914996013741586  0.12603519281767453  1.0000
  H   H9        1.0  0.9365026963165023  0.5449754614460217  0.09983484905411895  1.0000
  H   H10       1.0  0.05866936656429536  0.4533639499518926  0.9011333561361848  1.0000
  H   H11       1.0  0.6569623611329901  0.5561561807572486  0.7216771618062405  1.0000
  H   H12       1.0  0.3411151477066737  0.4433187871036565  0.27424630457768  1.0000
  H   H13       1.0  0.46500635940808616  0.6707759789299956  0.7053132099286257  1.0000
  H   H14       1.0  0.5370999956709781  0.33325624059943953  0.2940712687882864  1.0000
  H   H15       1.0  0.3810955336950527  0.7988781873603015  0.9059019198894087  1.0000
  H   H16       1.0  0.6199546830014454  0.20329391360912297  0.09295914717807814  1.0000
  H   H17       1.0  0.9535027696021883  0.2944990848431032  0.27261864108489664  1.0000
  H   H18       1.0  0.03893643510507159  0.706019278156205  0.7247531319902333  1.0000
  H   H19       1.0  0.780647652559935  0.43827874271071465  0.6196737738974603  1.0000
  H   H20       1.0  0.21046503972696937  0.5635682523163296  0.37631399916148894  1.0000
  H   H21       1.0  0.20921649900359535  0.909594972958068  0.9176485547206422  1.0000
  H   H22       1.0  0.7991091401085268  0.08136199267534039  0.08723299425798806  1.0000
  H   H23       1.0  0.9782972228011173  0.039687367408056694  0.23059920359159483  1.0000
  H   H24       1.0  0.03182278041636976  0.9539119942458497  0.7756341258025966  1.0000
  H   H25       1.0  0.2621382102456946  0.8623706424081302  0.3104190917554346  1.0000
  H   H26       1.0  0.7572040087391797  0.14136646615165202  0.6935524975579168  1.0000
  H   H27       1.0  0.3607114680790673  0.8173012396902096  0.40214443167921116  1.0000
  H   H28       1.0  0.662640720392602  0.19298315455415596  0.6039014979221944  1.0000
  C   C1        1.0  0.6793607339613814  0.8259285258580888  0.38855721800435805  1.0000
  C   C2        1.0  0.3121412212806476  0.1816600696910982  0.6045684565808143  1.0000
  C   C3        1.0  0.7944905377092724  0.7790070422042772  0.4214836141955371  1.0000
  C   C4        1.0  0.19756515884563436  0.2316083485913367  0.5760149075369012  1.0000
  C   C5        1.0  0.8545065024436838  0.699188906540698  0.32456069336774346  1.0000
  C   C6        1.0  0.13950668362679858  0.3072183039062608  0.676662666717547  1.0000
  C   C7        1.0  0.7986516051384385  0.6677357237202128  0.19244199482223925  1.0000
  C   C8        1.0  0.1967087118858757  0.3323325573218199  0.8066001450335275  1.0000
  C   C9        1.0  0.6832736800017684  0.7196561529499873  0.1673790714837223  1.0000
  C   C10       1.0  0.31124059247089514  0.2768775302485906  0.8266750200417474  1.0000
  C   C11       1.0  0.625628102222876  0.6983041061536424  0.0390031543694177  1.0000
  C   C12       1.0  0.37146882239527196  0.2969879666572409  0.9559401219467031  1.0000
  C   C13       1.0  0.6804545262532145  0.623540525352638  0.9315058887315213  1.0000
  C   C14       1.0  0.3174014769489943  0.372761200342012  0.06420264481211288  1.0000
  C   C15       1.0  0.793758222814091  0.5669438863883655  0.9569856123937083  1.0000
  C   C16       1.0  0.20362571037551186  0.4298833228230307  0.04156272885925455  1.0000
  C   C17       1.0  0.8503850122797161  0.5886525386790352  0.08197085874692783  1.0000
  C   C18       1.0  0.1454697001930114  0.4098901237350958  0.9177940801563121  1.0000
  C   C19       1.0  0.6193380385706461  0.612569780017054  0.8082444693910912  1.0000
  C   C20       1.0  0.37959895085860745  0.3863276158905009  0.18842269061556033  1.0000
  C   C21       1.0  0.5121468956587732  0.6754444977358459  0.7987850611813482  1.0000
  C   C22       1.0  0.48857048417283977  0.3262639386652849  0.19989420894531645  1.0000
  C   C23       1.0  0.4637598843177885  0.7474642731864307  0.9104062700854096  1.0000
  C   C24       1.0  0.536079032629992  0.25349074984927705  0.08802340195007467  1.0000
  C   C25       1.0  0.9722256762151745  0.3851700785744896  0.37142724560685264  1.0000
  C   C26       1.0  0.019505020615071113  0.6158847483253921  0.6255954842415999  1.0000
  C   C27       1.0  0.8500414950725883  0.34928288199342455  0.43970388012363754  1.0000
  C   C28       1.0  0.14211636095902236  0.6517990866499375  0.5576291374596065  1.0000
  C   C29       1.0  0.8752847303655998  0.4670279754242586  0.5668745394430343  1.0000
  C   C30       1.0  0.11649712957632374  0.5349132568674123  0.4297954639841988  1.0000
  C   C31       1.0  0.6962154826655437  0.18685006727150713  0.3822408512204091  1.0000
  C   C32       1.0  0.294855083908061  0.8137744069352664  0.6219863617699202  1.0000
  C   C33       1.0  0.20915715372603919  0.942453404552033  0.16756299494251428  1.0000
  C   C34       1.0  0.8021334874213436  0.0502185587730537  0.8372456045590508  1.0000
  C   C35       1.0  0.10521021496153782  0.9718707546008003  0.08310468289214144  1.0000
  C   C36       1.0  0.9054672482355101  0.021334594734611304  0.9228167403189712  1.0000
  C   C37       1.0  0.11896615652886307  0.946527828132318  0.9546082673439141  1.0000
  C   C38       1.0  0.8910165779811551  0.0461860918969421  0.051221697453932784  1.0000
  C   C39       1.0  0.9903795955055372  0.022129495983058696  0.13113629095382603  1.0000
  C   C40       1.0  0.02023989115743766  0.9713442426405764  0.8750979559274936  1.0000
  N   N1        1.0  0.6221232818513797  0.796579766304056  0.26304772893001166  1.0000
  N   N2        1.0  0.3680710798744967  0.2028702751013753  0.7266789470430621  1.0000
  N   N3        1.0  0.5177888504882942  0.7576616355275474  0.02857567291425061  1.0000
  N   N4        1.0  0.479934151422718  0.23983427848918382  0.9691500863404696  1.0000
  O   O1        1.0  0.6677794354453255  0.08934578253745681  0.2606496888173594  1.0000
  O   O2        1.0  0.3199018271574302  0.9026528059603504  0.7453987605499531  1.0000
  O   O3        1.0  0.6017858462782542  0.15151380502172168  0.4547748822638764  1.0000
  O   O4        1.0  0.3962034206706377  0.8638787428158707  0.5578375721732839  1.0000
  O   O5        1.0  0.3137433505747537  0.8984612719658924  0.11601435051270659  1.0000
  O   O6        1.0  0.6965368699491705  0.09320492108685127  0.8860201259229822  1.0000
  O   O7        1.0  0.1880817354414646  0.9581196103585299  0.28066412163933296  1.0000
  O   O8        1.0  0.8248491830337912  0.0344969448627666  0.7243684120902854  1.0000
  O   O9        1.0  0.3209829304460143  0.7933861141246368  0.3071056279101254  1.0000
  O   O10       1.0  0.7027931934000975  0.21306918954584117  0.6981676329013876  1.0000
