data_image0
_chemical_formula_structural       Cd2H34C40N10O8
_chemical_formula_sum              "Cd2 H34 C40 N10 O8"
_cell_length_a       8.18550868639469
_cell_length_b       9.216608376431765
_cell_length_c       13.88649245218388
_cell_angle_alpha    92.77848442228155
_cell_angle_beta     97.43756791674244
_cell_angle_gamma    105.91536244906148

_space_group_name_H-M_alt    "P 1"
_space_group_IT_number       1

loop_
  _space_group_symop_operation_xyz
  'x, y, z'

loop_
  _atom_site_type_symbol
  _atom_site_label
  _atom_site_symmetry_multiplicity
  _atom_site_fract_x
  _atom_site_fract_y
  _atom_site_fract_z
  _atom_site_occupancy
  Cd  Cd1       1.0  0.8007848310101977  0.13340047551432113  0.7462590601535977  1.0000
  Cd  Cd2       1.0  0.19921285260465987  0.8666001904976779  0.2537402648828645  1.0000
  H   H1        1.0  0.30247520658080157  0.22658123003574088  0.08219656124179407  1.0000
  H   H2        1.0  0.6975272144247099  0.7734114310023158  0.917805735586114  1.0000
  H   H3        1.0  0.5365836480684152  0.4556214663064395  0.16026599838106384  1.0000
  H   H4        1.0  0.4634153494332267  0.5443757582492877  0.8397369104662287  1.0000
  H   H5        1.0  0.8178000083601376  0.5292812631660408  0.1022060391222368  1.0000
  H   H6        1.0  0.1821980364483052  0.47072052065824693  0.8977955129311466  1.0000
  H   H7        1.0  0.8696572200761068  0.3928427885416567  0.9528954383024482  1.0000
  H   H8        1.0  0.1303460123942414  0.6071635020432423  0.047105951761245976  1.0000
  H   H9        1.0  0.16246504480681526  0.9794651952404082  0.9910849375670948  1.0000
  H   H10       1.0  0.8375325495408462  0.020538897784156494  0.008911618321725687  1.0000
  H   H11       1.0  0.17738524472328257  0.855598294109427  0.8924948596247119  1.0000
  H   H12       1.0  0.8226165041440154  0.144403480877358  0.10750409902269807  1.0000
  H   H13       1.0  0.5101663584633015  0.8157673798040931  0.7614715490311922  1.0000
  H   H14       1.0  0.48983559050991937  0.18422756579591487  0.23852934977183074  1.0000
  H   H15       1.0  0.33289235885987967  0.5797122857784629  0.6602483818511045  1.0000
  H   H16       1.0  0.6671050398856976  0.4202838206257055  0.33975364419988097  1.0000
  H   H17       1.0  0.354085018731915  0.5624648195380855  0.4783254007925065  1.0000
  H   H18       1.0  0.6459102962823805  0.43753243849346996  0.5216765033210888  1.0000
  H   H19       1.0  0.5502928142953251  0.767629622624227  0.4123577474010672  1.0000
  H   H20       1.0  0.4497004299306084  0.23236880181771366  0.5876418758913289  1.0000
  H   H21       1.0  0.7359777919392415  0.9353557319581968  0.3657229955254024  1.0000
  H   H22       1.0  0.2640100645188639  0.0646450151099103  0.634274849601084  1.0000
  H   H23       1.0  0.9542849338419116  0.1486690285472605  0.3192084485924766  1.0000
  H   H24       1.0  0.04569827880704467  0.8513363014099011  0.6807884742622716  1.0000
  H   H25       1.0  0.11126920366147884  0.36730729636776255  0.44355687103373487  1.0000
  H   H26       1.0  0.8887202472383889  0.6326945639242394  0.5564425765169928  1.0000
  H   H27       1.0  0.03961890787225996  0.351975582847693  0.6156212611043727  1.0000
  H   H28       1.0  0.9603744385637752  0.6480194293646945  0.3843789724518557  1.0000
  H   H29       1.0  0.7823773968780685  0.6696749615611066  0.7254121897776002  1.0000
  H   H30       1.0  0.21763183211693618  0.33032334902746635  0.27458722971724103  1.0000
  H   H31       1.0  0.9967039738903836  0.6709636429172219  0.7774459634160633  1.0000
  H   H32       1.0  0.003303554138440675  0.32903696174934527  0.22255196301863112  1.0000
  H   H33       1.0  0.8297763561243843  0.6360070582471451  0.8492811598096137  1.0000
  H   H34       1.0  0.17023437804518685  0.3639957925778744  0.15071709296182684  1.0000
  C   C1        1.0  0.45677326037466054  0.18958143665393115  0.9723267022886544  1.0000
  C   C2        1.0  0.543229326032822  0.8104191765108549  0.027675161772634665  1.0000
  C   C3        1.0  0.42385626439104124  0.2658842658595687  0.054081668629194696  1.0000
  C   C4        1.0  0.5761480272969236  0.734114058154887  0.9459209688643069  1.0000
  C   C5        1.0  0.5560312671531449  0.39007481392346216  0.09732301167900197  1.0000
  C   C6        1.0  0.44397302022051827  0.6099235051633227  0.9026803454424337  1.0000
  C   C7        1.0  0.7162417348853651  0.43494289717111195  0.062393427955640776  1.0000
  C   C8        1.0  0.283759159184541  0.565060019927003  0.9376055037896334  1.0000
  C   C9        1.0  0.747480168861777  0.3595142836062876  0.9807933148068101  1.0000
  C   C10       1.0  0.2525228003107997  0.6404874720091056  0.01920717813172959  1.0000
  C   C11       1.0  0.6132909406077829  0.23580304007552402  0.9345482490350104  1.0000
  C   C12       1.0  0.3867104211801191  0.7641975875329833  0.06545280036309009  1.0000
  C   C13       1.0  0.18848880998948647  0.9740061872592204  0.9154728034850166  1.0000
  C   C14       1.0  0.8115145548910903  0.025996725589784803  0.08452415944696409  1.0000
  C   C15       1.0  0.0557644732020464  0.027724768684883785  0.8493830623934144  1.0000
  C   C16       1.0  0.9442460608616087  0.9722849115269054  0.15061325022242755  1.0000
  C   C17       1.0  0.5180234664270313  0.7998259211969551  0.6841735146133769  1.0000
  C   C18       1.0  0.4819763988149147  0.20017017603043286  0.31582726225224883  1.0000
  C   C19       1.0  0.41823550269467796  0.6693635035755676  0.6270136116626829  1.0000
  C   C20       1.0  0.581765956989031  0.33063370687571586  0.3729887676271915  1.0000
  C   C21       1.0  0.4307218950373723  0.659131890079223  0.5280061378360584  1.0000
  C   C22       1.0  0.5692734113483198  0.3408653580970053  0.4719972055334053  1.0000
  C   C23       1.0  0.5441373057021648  0.776457352243696  0.49008305639777194  1.0000
  C   C24       1.0  0.4558568869026587  0.22353650800202726  0.5099186433164604  1.0000
  C   C25       1.0  0.6429150489648094  0.9026456267591453  0.5522948648140725  1.0000
  C   C26       1.0  0.35707990054159916  0.09735050853246456  0.44770553191052886  1.0000
  C   C27       1.0  0.769981046007679  0.029601790148845484  0.5169476048273649  1.0000
  C   C28       1.0  0.23000935758538782  0.9703955108745956  0.4830531995172718  1.0000
  C   C29       1.0  0.8025768833957727  0.028657358785196183  0.4202950682813125  1.0000
  C   C30       1.0  0.19741058166862752  0.9713422359769693  0.579705587223799  1.0000
  C   C31       1.0  0.9262917133896663  0.15021419403726807  0.39358566308998627  1.0000
  C   C32       1.0  0.07369292829908147  0.8497842970170594  0.6064132949556152  1.0000
  C   C33       1.0  0.013943368885179584  0.2705763040498326  0.4625462527882006  1.0000
  C   C34       1.0  0.9860424124702474  0.7294256045009958  0.5374500311450203  1.0000
  C   C35       1.0  0.9750339753600555  0.26313455478175024  0.5572629680839538  1.0000
  C   C36       1.0  0.024959273180172603  0.7368638745878612  0.4427359355805008  1.0000
  C   C37       1.0  0.8171209226726432  0.44822542851360225  0.7496688515186702  1.0000
  C   C38       1.0  0.18288742995346038  0.5517739995479616  0.25033413921371306  1.0000
  C   C39       1.0  0.8590253928719987  0.6171578972111859  0.7754978911657062  1.0000
  C   C40       1.0  0.1409845887102889  0.38284268349560324  0.2245009449674383  1.0000
  N   N1        1.0  0.3630344626442792  0.06321333331509747  0.9131382684191818  1.0000
  N   N2        1.0  0.6369710709204738  0.9367849959663058  0.08686230522576467  1.0000
  N   N3        1.0  0.4507848099379146  0.03410075893496869  0.8426819083757947  1.0000
  N   N4        1.0  0.5492222288014047  0.9659021105828812  0.15731749854575838  1.0000
  N   N5        1.0  0.6010544587909478  0.1359139746866305  0.8548704368810147  1.0000
  N   N6        1.0  0.39895001124189367  0.8640923162375455  0.14512960896205837  1.0000
  N   N7        1.0  0.626913618947263  0.9131624645637894  0.6478715584263667  1.0000
  N   N8        1.0  0.3730858635295888  0.0868324902129913  0.35213058956200877  1.0000
  N   N9        1.0  0.8567340171217523  0.14587294977651058  0.5831185826093515  1.0000
  N   N10       1.0  0.14326045172375496  0.8541254602217163  0.41688185534624  1.0000
  O   O1        1.0  0.10383722797976697  0.1155236317633097  0.7852517724348829  1.0000
  O   O2        1.0  0.896179701108167  0.8844905210547152  0.21474807136619478  1.0000
  O   O3        1.0  0.9003204052149627  0.9763642671567748  0.8641592497709778  1.0000
  O   O4        1.0  0.09968583912719708  0.023639813459737997  0.13583005545734037  1.0000
  O   O5        1.0  0.9305649625182043  0.3844622288303298  0.7859480691186319  1.0000
  O   O6        1.0  0.06944375561577935  0.6155383219711865  0.2140564290027384  1.0000
  O   O7        1.0  0.6772528077643402  0.37775462680410493  0.6977645488503299  1.0000
  O   O8        1.0  0.3227592532349205  0.6222447973476333  0.3022351288481459  1.0000
