data_image0
_chemical_formula_structural       Cd6H72C96N24O36
_chemical_formula_sum              "Cd6 H72 C96 N24 O36"
_cell_length_a       7.658982810882646
_cell_length_b       21.270062846987646
_cell_length_c       21.269238979309907
_cell_angle_alpha    118.60117382354045
_cell_angle_beta     96.89121706739489
_cell_angle_gamma    96.88852605262596

_space_group_name_H-M_alt    "P 1"
_space_group_IT_number       1

loop_
  _space_group_symop_operation_xyz
  'x, y, z'

loop_
  _atom_site_type_symbol
  _atom_site_label
  _atom_site_symmetry_multiplicity
  _atom_site_fract_x
  _atom_site_fract_y
  _atom_site_fract_z
  _atom_site_occupancy
  Cd  Cd1       1.0  0.7502702928788311  0.5018852966813726  0.2716621023293514  1.0000
  Cd  Cd2       1.0  0.2484178800267571  0.7698083675504606  0.498028699216846  1.0000
  Cd  Cd3       1.0  0.4787033652234173  0.7282473248390319  0.230235466599325  1.0000
  Cd  Cd4       1.0  0.7515802188458878  0.23019167174877  0.5019714600448496  1.0000
  Cd  Cd5       1.0  0.5212963186868221  0.2717532614744158  0.7697654943623321  1.0000
  Cd  Cd6       1.0  0.24973016637898837  0.4981141955335247  0.7283374294891375  1.0000
  H   H1        1.0  0.3729791941458487  0.3682900129503822  0.5916834423293837  1.0000
  H   H2        1.0  0.0050299566409393575  0.2235266418128107  0.6318595283451103  1.0000
  H   H3        1.0  0.7809185653927385  0.408419312606249  0.7765208654742397  1.0000
  H   H4        1.0  0.9949704991036727  0.776472850506906  0.3681404735325986  1.0000
  H   H5        1.0  0.21908243365842855  0.5915812736838221  0.223480153572993  1.0000
  H   H6        1.0  0.6270186313169219  0.631709479416088  0.40831644337716005  1.0000
  H   H7        1.0  0.4098424897180663  0.3340440365810693  0.4668623827855002  1.0000
  H   H8        1.0  0.07586509635758888  0.1329838737798923  0.6661714013868406  1.0000
  H   H9        1.0  0.9423972008360691  0.5332640764350599  0.8670954420582079  1.0000
  H   H10       1.0  0.9241348195936893  0.8670145244646507  0.3338271132621244  1.0000
  H   H11       1.0  0.05760144485633846  0.4667370567296986  0.13290526431379138  1.0000
  H   H12       1.0  0.5901534737840208  0.6659543619432499  0.5331368977251646  1.0000
  H   H13       1.0  0.17821955699292158  0.5182883244754849  0.49007593842912933  1.0000
  H   H14       1.0  0.66002569363296  0.9718571402279251  0.4819498503284337  1.0000
  H   H15       1.0  0.6884668235978636  0.5100633171813058  0.028304970717513877  1.0000
  H   H16       1.0  0.3399731911268873  0.028141804658268696  0.5180474696124335  1.0000
  H   H17       1.0  0.3115365323252703  0.4899367221292509  0.9716958909457322  1.0000
  H   H18       1.0  0.8217808987516974  0.4817111678442317  0.5099240634485798  1.0000
  H   H19       1.0  0.14781921079194407  0.543638886413305  0.6138057830807855  1.0000
  H   H20       1.0  0.6045530343697079  0.07018566242651052  0.45654518904853364  1.0000
  H   H21       1.0  0.5345168018805565  0.3863051177111886  0.9299196397610462  1.0000
  H   H22       1.0  0.39544666359336833  0.9298149234676245  0.5434538916762294  1.0000
  H   H23       1.0  0.4654855087983237  0.6136954686603319  0.07008190743098915  1.0000
  H   H24       1.0  0.8521825636068028  0.4563606057782081  0.3861938068232861  1.0000
  H   H25       1.0  0.3981225473569764  0.30232687423420396  0.3607621568102319  1.0000
  H   H26       1.0  0.09582800026898038  0.058578705800862  0.69790651757382  1.0000
  H   H27       1.0  0.03737071232069421  0.6392640697676913  0.941503035003642  1.0000
  H   H28       1.0  0.9041674788614384  0.9414213332306433  0.30209211533904323  1.0000
  H   H29       1.0  0.962634730577733  0.36073487552576483  0.0584969256612454  1.0000
  H   H30       1.0  0.6018752781057869  0.6976726181322662  0.6392377288963119  1.0000
  H   H31       1.0  0.44632778815721247  0.2785668497803329  0.24019191534950582  1.0000
  H   H32       1.0  0.1682807912494512  0.9616843107722844  0.7214468245599763  1.0000
  H   H33       1.0  0.20662178570083276  0.7597511636339082  0.038342217030688755  1.0000
  H   H34       1.0  0.8317152276743157  0.038316822334394395  0.27855329558163083  1.0000
  H   H35       1.0  0.7933815807619239  0.24024887536216982  0.9616572344548899  1.0000
  H   H36       1.0  0.5536689920613044  0.7214331896471011  0.7598086558858343  1.0000
  H   H37       1.0  0.31751506189610984  0.48585623211788237  0.2841621906138487  1.0000
  H   H38       1.0  0.8319735764945976  0.798375759244607  0.5141447791139628  1.0000
  H   H39       1.0  0.033889495161595645  0.7159211303570673  0.20174343838972683  1.0000
  H   H40       1.0  0.1680266023269326  0.20162318624717568  0.48585541926782144  1.0000
  H   H41       1.0  0.9661123346588382  0.2840810964168058  0.7982569911452873  1.0000
  H   H42       1.0  0.6824843556306632  0.5141438070531523  0.7158375566742026  1.0000
  H   H43       1.0  0.2714828823966471  0.5110795086225011  0.4041170150413863  1.0000
  H   H44       1.0  0.760404588060972  0.893180811702813  0.4891412597888096  1.0000
  H   H45       1.0  0.8674915578654135  0.5960436933458838  0.10696038271891699  1.0000
  H   H46       1.0  0.23959532789029936  0.10681758654173024  0.5108572548601559  1.0000
  H   H47       1.0  0.13250763113354225  0.4039585337892221  0.893041340822599  1.0000
  H   H48       1.0  0.7285146731694496  0.4889194367063753  0.5958821270507857  1.0000
  H   H49       1.0  0.23451026270667089  0.2601004639469621  0.12352297945875534  1.0000
  H   H50       1.0  0.9742094000667832  0.8634416783074103  0.7397509279832308  1.0000
  H   H51       1.0  0.11162892149341268  0.8764414553743407  0.13660911206742551  1.0000
  H   H52       1.0  0.025788968702535425  0.13655890802941437  0.2602499748928367  1.0000
  H   H53       1.0  0.8883778989940437  0.12356022426843792  0.8633908061955397  1.0000
  H   H54       1.0  0.7654901930379481  0.7398990283727546  0.8764770224189607  1.0000
  H   H55       1.0  0.2787222196226792  0.23823371793388057  0.9989238581773852  1.0000
  H   H56       1.0  0.04013340933195055  0.7607142600730941  0.761623485259307  1.0000
  H   H57       1.0  0.28039669763250413  0.0010332542296254005  0.23937377851467556  1.0000
  H   H58       1.0  0.959864959437368  0.2392863262637306  0.23837741761676065  1.0000
  H   H59       1.0  0.7196095690087675  0.9989673317572852  0.7606265327564402  1.0000
  H   H60       1.0  0.7212779627120584  0.7617652274530756  0.0010758701451722057  1.0000
  H   H61       1.0  0.4742663258696211  0.3346579537617487  0.9917318706172511  1.0000
  H   H62       1.0  0.13999892635314382  0.6571619521688491  0.6653110509555092  1.0000
  H   H63       1.0  0.4832579769362794  0.008273925829144  0.3430120188743971  1.0000
  H   H64       1.0  0.8599997193392569  0.34283918099590244  0.334689655416483  1.0000
  H   H65       1.0  0.5167440708723421  0.9917261132951372  0.6569878445848193  1.0000
  H   H66       1.0  0.5257328182472847  0.6653415384765183  0.008267603115655229  1.0000
  H   H67       1.0  0.6282836109796576  0.4506371599201487  0.1089483973103924  1.0000
  H   H68       1.0  0.17823405652493565  0.658348584021546  0.5493445894937994  1.0000
  H   H69       1.0  0.5200131357409604  0.8910556891253594  0.34175584690491  1.0000
  H   H70       1.0  0.8217645856542644  0.3416525492480389  0.45065658693742  1.0000
  H   H71       1.0  0.4799852365415659  0.10894489710663183  0.6582445859119375  1.0000
  H   H72       1.0  0.3717139410732315  0.5493617855135612  0.8910512148410066  1.0000
  C   C1        1.0  0.33115205679928295  0.4001145993727847  0.5670230297665103  1.0000
  C   C2        1.0  0.9312873584224589  0.16703415181501674  0.600052924147086  1.0000
  C   C3        1.0  0.7638659221683711  0.4330807747105112  0.8330348045090049  1.0000
  C   C4        1.0  0.06871310083536043  0.8329653403998806  0.3999466076714032  1.0000
  C   C5        1.0  0.23613535029267052  0.5669203585123201  0.1669664880933724  1.0000
  C   C6        1.0  0.6688452218437247  0.5998837991281648  0.43297630882973703  1.0000
  C   C7        1.0  0.3523197961450819  0.3816471900262074  0.49672761979608293  1.0000
  C   C8        1.0  0.970748524164783  0.11523951089522197  0.6185788504165118  1.0000
  C   C9        1.0  0.8551631796614887  0.5033960630395884  0.8848539785153239  1.0000
  C   C10       1.0  0.029251395299695667  0.8847588872444874  0.3814191941732263  1.0000
  C   C11       1.0  0.14483677765863232  0.4966050702066199  0.11514725600147817  1.0000
  C   C12       1.0  0.6476787976388465  0.6183512084513654  0.5032717768857469  1.0000
  C   C13       1.0  0.30204846347203324  0.42422232586741876  0.4660886614947161  1.0000
  C   C14       1.0  0.8778938737322973  0.04200599754345551  0.5760404002090953  1.0000
  C   C15       1.0  0.8358709345012658  0.534044727476463  0.9581243694251146  1.0000
  C   C16       1.0  0.12210500751434952  0.957992947447572  0.42395738979099223  1.0000
  C   C17       1.0  0.16413137969082922  0.4659558587902383  0.04187670770770076  1.0000
  C   C18       1.0  0.6979504037217764  0.5757766195429144  0.5339110087422585  1.0000
  C   C19       1.0  0.22481507867289713  0.48323152238269534  0.5097062492947021  1.0000
  C   C20       1.0  0.7417322607804306  0.0265521840303862  0.5170040648917366  1.0000
  C   C21       1.0  0.7153227652850019  0.49043349749336335  0.973588185385218  1.0000
  C   C22       1.0  0.2582653018120807  0.9734467610888443  0.4829941370819881  1.0000
  C   C23       1.0  0.2846808605348059  0.5095670888547872  0.026413419892399845  1.0000
  C   C24       1.0  0.7751840619307941  0.516767969960398  0.4902936944974245  1.0000
  C   C25       1.0  0.2067869601407893  0.49808982356045584  0.5792630897985521  1.0000
  C   C26       1.0  0.709029215410176  0.08123004854078891  0.5021095629520219  1.0000
  C   C27       1.0  0.6278407607086364  0.42085301144037157  0.9188735715465982  1.0000
  C   C28       1.0  0.29097020562981163  0.9187699905254121  0.4978897142768093  1.0000
  C   C29       1.0  0.3721618268933327  0.57914812175909  0.08112777914136884  1.0000
  C   C30       1.0  0.7932150841546315  0.5019102156686515  0.42073724371989135  1.0000
  C   C31       1.0  0.3301388775921766  0.4087520798682221  0.39292903578047605  1.0000
  C   C32       1.0  0.9214323708638832  0.9843141918219591  0.5914876909556672  1.0000
  C   C33       1.0  0.9372390529631075  0.6071843586291268  0.01580233624359566  1.0000
  C   C34       1.0  0.07856518821542119  0.0156847534020912  0.4085109810772849  1.0000
  C   C35       1.0  0.06276194960126705  0.3928162275561179  0.98419821274441  1.0000
  C   C36       1.0  0.6698592247936757  0.5912479593261822  0.6070706534219924  1.0000
  C   C37       1.0  0.3802477414809359  0.3432763618285578  0.3449624636674714  1.0000
  C   C38       1.0  0.03704300479180489  0.0018127783948003002  0.6569322548564998  1.0000
  C   C39       1.0  0.03533551823167616  0.6550958066001727  0.9982716287318925  1.0000
  C   C40       1.0  0.9629522009287398  0.9981867137039373  0.34306610450121156  1.0000
  C   C41       1.0  0.9646659827571893  0.34490313865858013  0.0017276876170271049  1.0000
  C   C42       1.0  0.6197500839818275  0.6567231305379125  0.6550374220390797  1.0000
  C   C43       1.0  0.40635579265597943  0.32927389704534704  0.2762732697642393  1.0000
  C   C44       1.0  0.07741077702709745  0.9470902651220714  0.6708084286721321  1.0000
  C   C45       1.0  0.13043648416098128  0.7237275685822059  0.05297599433035336  1.0000
  C   C46       1.0  0.92258364983266  0.05291032118005031  0.32919182988797513  1.0000
  C   C47       1.0  0.869566117493818  0.27627356419794313  0.9470234761207198  1.0000
  C   C48       1.0  0.5936420328067841  0.6707255953211232  0.7237266159423046  1.0000
  C   C49       1.0  0.38641490362532954  0.38057925719690644  0.2535941718182003  1.0000
  C   C50       1.0  0.00620790222138388  0.8730858192494612  0.61943203157108  1.0000
  C   C51       1.0  0.13332735576336324  0.7464203326454425  0.12699273825391097  1.0000
  C   C52       1.0  0.9937878327528792  0.1269147672389367  0.3805692251930496  1.0000
  C   C53       1.0  0.8666752458914357  0.2535808001347064  0.8730067321971621  1.0000
  C   C54       1.0  0.6135842369783618  0.6194202351461868  0.746405771973926  1.0000
  C   C55       1.0  0.33774814837671846  0.4459159353605886  0.3011447030287188  1.0000
  C   C56       1.0  0.8921639363079377  0.8553049433275889  0.554125137558053  1.0000
  C   C57       1.0  0.03706791373975455  0.6989217346147286  0.14479575835311215  1.0000
  C   C58       1.0  0.10783388915483268  0.1446945490388813  0.4458747481484978  1.0000
  C   C59       1.0  0.9629346808886295  0.3010793983750731  0.855204652216408  1.0000
  C   C60       1.0  0.662251258610439  0.5540841041249251  0.6988564544370067  1.0000
  C   C61       1.0  0.30872292684552605  0.4593933748002784  0.36937738954572563  1.0000
  C   C62       1.0  0.8494846714171231  0.9100999121940065  0.5407726515127609  1.0000
  C   C63       1.0  0.9395694549881312  0.6307341422098746  0.09001691907329265  1.0000
  C   C64       1.0  0.15051288766218107  0.08989903303004353  0.45922602052019107  1.0000
  C   C65       1.0  0.06043155108945095  0.3692664438705436  0.9099831598555  1.0000
  C   C66       1.0  0.6912770304745948  0.5406077584459298  0.6306238449710764  1.0000
  C   C67       1.0  0.41110437489540885  0.36576533655109245  0.18032773943574662  1.0000
  C   C68       1.0  0.04562465509862093  0.8145927043746399  0.6341715313286829  1.0000
  C   C69       1.0  0.23138353460647215  0.8196660033823094  0.18546885703153762  1.0000
  C   C70       1.0  0.9543726719396516  0.18540842891831494  0.365829587016954  1.0000
  C   C71       1.0  0.7686172015744359  0.18033403566051479  0.814530478282876  1.0000
  C   C72       1.0  0.5888947657082824  0.6342341557920009  0.8196722043563869  1.0000
  C   C73       1.0  0.32331488830568833  0.30000028049484234  0.11755016987288514  1.0000
  C   C74       1.0  0.02328914481777401  0.8175715036759784  0.6998945600068753  1.0000
  C   C75       1.0  0.2064493797729556  0.8824275440287227  0.18248770852558513  1.0000
  C   C76       1.0  0.976707133463037  0.18243017678276635  0.3001077139267708  1.0000
  C   C77       1.0  0.7935542636128899  0.11757304179528923  0.8175115464559186  1.0000
  C   C78       1.0  0.6766855639257158  0.6999992119297078  0.882450302064051  1.0000
  C   C79       1.0  0.3454878923432645  0.28846440617602553  0.04911175596487285  1.0000
  C   C80       1.0  0.05694123196639827  0.7606708931183661  0.7114273894128403  1.0000
  C   C81       1.0  0.2971172390985759  0.9508649092793182  0.23941019955414355  1.0000
  C   C82       1.0  0.9430560950718745  0.23933024017459564  0.2885737289327964  1.0000
  C   C83       1.0  0.7028861273641809  0.04913512971675971  0.7605892519314353  1.0000
  C   C84       1.0  0.6545122899914657  0.7115345392109305  0.9508879723576842  1.0000
  C   C85       1.0  0.4544289529368583  0.3431724344179444  0.04479226070776581  1.0000
  C   C86       1.0  0.11160392238480912  0.7016828305346864  0.656776367063948  1.0000
  C   C87       1.0  0.4104496004033893  0.9552002002567267  0.29843869838549625  1.0000
  C   C88       1.0  0.8883949932042654  0.298318849667659  0.34322508292242304  1.0000
  C   C89       1.0  0.5895514021609853  0.04480038592851801  0.7015618506025164  1.0000
  C   C90       1.0  0.54556964084707  0.6568259640596283  0.955207135974064  1.0000
  C   C91       1.0  0.5381622073660495  0.40691995603114617  0.10908864413615768  1.0000
  C   C92       1.0  0.13172010106484336  0.7022105792280232  0.5930421598665847  1.0000
  C   C93       1.0  0.42982406718884664  0.8909122307624247  0.2978788054469705  1.0000
  C   C94       1.0  0.8682774958701032  0.29779110110252566  0.406959702093424  1.0000
  C   C95       1.0  0.5701753503379338  0.10908780840860295  0.7021209418410879  1.0000
  C   C96       1.0  0.46183693323764163  0.5930795363119474  0.8909112996559688  1.0000
  N   N1        1.0  0.7261149562325713  0.6186269218426333  0.24092526467092068  1.0000
  N   N2        1.0  0.10724120527677176  0.622308212148063  0.38132273600027145  1.0000
  N   N3        1.0  0.4853152592494681  0.7590162636244386  0.37772278740728654  1.0000
  N   N4        1.0  0.8927582087368009  0.3776918271277908  0.6186774813470068  1.0000
  N   N5        1.0  0.5146844316871865  0.24098432247935628  0.6222772334359166  1.0000
  N   N6        1.0  0.2738841878843274  0.38137257039563377  0.7590742090619857  1.0000
  N   N7        1.0  0.9006727911598275  0.3710273881653309  0.20654461792893403  1.0000
  N   N8        1.0  0.5297202137428839  0.8354820661151195  0.6288437567948153  1.0000
  N   N9        1.0  0.6940980606514842  0.793304263314056  0.16441951947874875  1.0000
  N   N10       1.0  0.4702807958479055  0.16451851986047222  0.3711558520747503  1.0000
  N   N11       1.0  0.30590080302911815  0.20669468220110332  0.835580620817453  1.0000
  N   N12       1.0  0.09932662636695266  0.6289726510057037  0.7934551293591243  1.0000
  N   N13       1.0  0.2612295036147643  0.4581114165829163  0.6086181978333373  1.0000
  N   N14       1.0  0.80341919626062  0.15058501942269942  0.5420514932311136  1.0000
  N   N15       1.0  0.6526550428933363  0.3914705389778917  0.849488309299929  1.0000
  N   N16       1.0  0.19657994785627864  0.8494144728155676  0.45794798050179275  1.0000
  N   N17       1.0  0.3473446410169033  0.6085300473355562  0.15051265166172115  1.0000
  N   N18       1.0  0.7387693600658378  0.54188752893225  0.39138194246286423  1.0000
  N   N19       1.0  0.5181525082928005  0.4182945591408256  0.17560186306527475  1.0000
  N   N20       1.0  0.10022039703614642  0.7573217737248258  0.5816558769713185  1.0000
  N   N21       1.0  0.3431284209356846  0.8244067319637695  0.24274369389074488  1.0000
  N   N22       1.0  0.8997766565922447  0.24267881263536853  0.4183449678191666  1.0000
  N   N23       1.0  0.6568709965910953  0.1755933072072651  0.7572560533973063  1.0000
  N   N24       1.0  0.4818466358240982  0.5817049330974413  0.8243976106676315  1.0000
  O   O1        1.0  0.812646556688037  0.5677861638606388  0.20939305419993567  1.0000
  O   O2        1.0  0.24457129995445112  0.6416277022174414  0.4321812872755332  1.0000
  O   O3        1.0  0.6033671900185239  0.7905778693780622  0.35845721758340715  1.0000
  O   O4        1.0  0.7554283874690028  0.3583728839911728  0.567819203626897  1.0000
  O   O5        1.0  0.3966338160590581  0.20942271670235613  0.6415428613453786  1.0000
  O   O6        1.0  0.18735127228793402  0.43221332840100507  0.790606361447388  1.0000
  O   O7        1.0  0.7422951498408848  0.671700722796949  0.22933689419584638  1.0000
  O   O8        1.0  0.07041179288419395  0.55762782158169  0.32823007606716464  1.0000
  O   O9        1.0  0.5129924735652625  0.770604609921165  0.442393841006954  1.0000
  O   O10       1.0  0.9295878980524604  0.4423727645220978  0.6717699447760452  1.0000
  O   O11       1.0  0.4870059022304715  0.22939597620599989  0.5576061217506734  1.0000
  O   O12       1.0  0.2577039942760138  0.32829876944131803  0.7706625795370601  1.0000
  O   O13       1.0  0.6264448533313143  0.6142431380588321  0.28257744801204865  1.0000
  O   O14       1.0  0.0119828314572388  0.6683617983837137  0.38571673204686624  1.0000
  O   O15       1.0  0.34408758980814724  0.7173201850134918  0.3316239496884992  1.0000
  O   O16       1.0  0.9880165790431263  0.33163824099697353  0.6142839553596319  1.0000
  O   O17       1.0  0.6559110593974677  0.28268094804643346  0.6683762866242802  1.0000
  O   O18       1.0  0.37355429078558433  0.38575635417943493  0.7174220257208577  1.0000
  O   O19       1.0  0.8250098372887888  0.38932459370366257  0.2621641851356174  1.0000
  O   O20       1.0  0.43573234172009734  0.8728067479656618  0.6105732583003987  1.0000
  O   O21       1.0  0.5625253036707464  0.7377962670523817  0.12718408570393097  1.0000
  O   O22       1.0  0.5642710282558666  0.12719329092558956  0.3894257231259602  1.0000
  O   O23       1.0  0.4374735635230634  0.2622026783579585  0.8728155845330436  1.0000
  O   O24       1.0  0.1749919406231656  0.6106748983830245  0.7378349347092341  1.0000
  O   O25       1.0  0.9492047055071352  0.31159711736205514  0.17665400739853254  1.0000
  O   O26       1.0  0.6376772825730159  0.8650522495989393  0.6882745555341361  1.0000
  O   O27       1.0  0.772532119804758  0.8230561220010416  0.13478137463253168  1.0000
  O   O28       1.0  0.36232213495376425  0.13494778957209516  0.31172519175391505  1.0000
  O   O29       1.0  0.22746674387584417  0.17694282351412485  0.86521876566367  1.0000
  O   O30       1.0  0.05079340039193183  0.6884029217275228  0.8233452117447232  1.0000
  O   O31       1.0  0.9215739656004087  0.41651985102378575  0.18349533669516663  1.0000
  O   O32       1.0  0.5051699024892072  0.7669261978201194  0.5833324919221996  1.0000
  O   O33       1.0  0.738334562548239  0.8163856849420272  0.23296304262137835  1.0000
  O   O34       1.0  0.4948305567686119  0.23307329439477092  0.41666703989628934  1.0000
  O   O35       1.0  0.26166326291453146  0.18361380742445024  0.7670368430851726  1.0000
  O   O36       1.0  0.07842386337556223  0.5834796412378582  0.8165040789521643  1.0000
