data_image0
_chemical_formula_structural       Cu4Mo8H24C14N12O30
_chemical_formula_sum              "Cu4 Mo8 H24 C14 N12 O30"
_cell_length_a       8.950405146740401
_cell_length_b       10.466530088683847
_cell_length_c       12.130580415496588
_cell_angle_alpha    70.5080253569758
_cell_angle_beta     71.3057924429591
_cell_angle_gamma    85.18603410873027

_space_group_name_H-M_alt    "P 1"
_space_group_IT_number       1

loop_
  _space_group_symop_operation_xyz
  'x, y, z'

loop_
  _atom_site_type_symbol
  _atom_site_label
  _atom_site_symmetry_multiplicity
  _atom_site_fract_x
  _atom_site_fract_y
  _atom_site_fract_z
  _atom_site_occupancy
  Cu  Cu1       1.0  0.49999721443257533  2.936802871994055e-07  0.5000023698699749  1.0000
  Cu  Cu2       1.0  0.7339872857535782  0.08759496976380632  0.21062181657575954  1.0000
  Cu  Cu3       1.0  0.26601244350194975  0.912406422566434  0.7893807082108352  1.0000
  Cu  Cu4       1.0  1.6441791288015045e-06  0.9999977844539459  3.377996689634653e-07  1.0000
  Mo  Mo1       1.0  0.6348995995874773  0.4252495720763818  0.2830299351708234  1.0000
  Mo  Mo2       1.0  0.36510130531517154  0.574751825353971  0.7169690119722035  1.0000
  Mo  Mo3       1.0  0.5873361705815443  0.7560727972792447  0.18562583429163487  1.0000
  Mo  Mo4       1.0  0.4126646927176766  0.2439275929244928  0.8143717612843773  1.0000
  Mo  Mo5       1.0  0.2708989855329023  0.701241408380227  0.4374573434846382  1.0000
  Mo  Mo6       1.0  0.7291030968006993  0.29875998756445915  0.5625396762054748  1.0000
  Mo  Mo7       1.0  0.33864637748708054  0.3832074156235025  0.5254530215662712  1.0000
  Mo  Mo8       1.0  0.661352047743371  0.6167909630983458  0.47454572578153176  1.0000
  H   H1        1.0  0.7656619168530341  0.08775486312242012  0.40133798533671683  1.0000
  H   H2        1.0  0.2343354159371529  0.9122455249525389  0.5986670427886978  1.0000
  H   H3        1.0  0.9416241152032966  0.9290805188869273  0.23055497329413294  1.0000
  H   H4        1.0  0.0583740277222731  0.0709107763197991  0.769442564037753  1.0000
  H   H5        1.0  0.16729038259490644  0.1160544401407861  0.4464362138291591  1.0000
  H   H6        1.0  0.8327032479210388  0.8839419366562641  0.5535658900056359  1.0000
  H   H7        1.0  0.4541435058892916  0.1882309609059121  0.07597434745043327  1.0000
  H   H8        1.0  0.5458573247256383  0.8117683891423656  0.9240301475117858  1.0000
  H   H9        1.0  0.9503126140143651  0.6948689881904356  0.2296432073683121  1.0000
  H   H10       1.0  0.049691671929956306  0.3051283198974418  0.7703585777683699  1.0000
  H   H11       1.0  0.3485449404603926  0.6142912381333332  0.9600223611295107  1.0000
  H   H12       1.0  0.6514569817028787  0.38570610585471604  0.03997502795977678  1.0000
  H   H13       1.0  0.0277869527644654  0.20990243174900056  0.28972847915073885  1.0000
  H   H14       1.0  0.9722114308625507  0.7900949397462327  0.7102689166300494  1.0000
  H   H15       1.0  0.1072121843306419  0.1613740126588468  0.1563721445130284  1.0000
  H   H16       1.0  0.8927933569000147  0.8386253281538957  0.8436254657328348  1.0000
  H   H17       1.0  0.06008142087085841  0.39659498324146375  0.08447840453877829  1.0000
  H   H18       1.0  0.9399158304962967  0.6034033837945003  0.9155255706432398  1.0000
  H   H19       1.0  0.2668224401476635  0.38637735195877815  0.052693711936505745  1.0000
  H   H20       1.0  0.7331760673977427  0.6136230445091755  0.9473069134500208  1.0000
  H   H21       1.0  0.03602684762608991  0.4509491414769543  0.27819027605823266  1.0000
  H   H22       1.0  0.9639705585599145  0.5490532972729627  0.7218083791526694  1.0000
  H   H23       1.0  0.24549716431177163  0.4547752120680286  0.23817490147223444  1.0000
  H   H24       1.0  0.754500047235773  0.5452221411555628  0.7618293723334091  1.0000
  C   C1        1.0  0.2678134681819344  0.1207562214592954  0.3663308062399793  1.0000
  C   C2        1.0  0.7321837814013962  0.8792421521624479  0.6336715187513917  1.0000
  C   C3        1.0  0.4151416174207228  0.15798844957826214  0.17618262516339203  1.0000
  C   C4        1.0  0.5848592521218948  0.8420119175752777  0.8238207460798745  1.0000
  C   C5        1.0  0.0481409768714727  0.7075092261146168  0.14607593074365607  1.0000
  C   C6        1.0  0.951861068318273  0.2924911461390352  0.8539238628560496  1.0000
  C   C7        1.0  0.2518152504329763  0.6649768878483117  0.008146770115054332  1.0000
  C   C8        1.0  0.7481831367616963  0.33502047047538497  0.9918539260470213  1.0000
  C   C9        1.0  0.12961751101618552  0.22356794312607778  0.2067422406673174  1.0000
  C   C10       1.0  0.8703821341405632  0.7764314380438294  0.7932567558899066  1.0000
  C   C11       1.0  0.15423650056050772  0.37229102401848024  0.1275572188187866  1.0000
  C   C12       1.0  0.8457642857752463  0.6277073286818435  0.8724434492904436  1.0000
  C   C13       1.0  0.146171502004286  0.4672370812523285  0.201355945581902  1.0000
  C   C14       1.0  0.8538280254774832  0.5327592518946673  0.7986455970368526  1.0000
  N   N1        1.0  0.41267870959546826  0.08384641456873962  0.3662607880594706  1.0000
  N   N2        1.0  0.5873197608060751  0.9161529582081801  0.6337426112366484  1.0000
  N   N3        1.0  0.504775310249471  0.10809077641462043  0.24766427606477484  1.0000
  N   N4        1.0  0.4952243800783691  0.8919095988103578  0.7523393724407725  1.0000
  N   N5        1.0  0.26562765650893283  0.1679436848929328  0.24826575417654342  1.0000
  N   N6        1.0  0.7343708121087786  0.8320556944697518  0.7517359949289285  1.0000
  N   N7        1.0  0.08726990072011631  0.8191474147861868  0.049579244459515295  1.0000
  N   N8        1.0  0.9127309670386765  0.1808529589531247  0.9504224765931113  1.0000
  N   N9        1.0  0.2143232393723977  0.7922084932551812  0.9631824272009695  1.0000
  N   N10       1.0  0.7856775089275843  0.2077888390469909  0.03682018972253326  1.0000
  N   N11       1.0  0.1488430350987571  0.6085032347234219  0.12225088623720375  1.0000
  N   N12       1.0  0.8511553529878384  0.39149412030738523  0.8777506350201989  1.0000
  O   O1        1.0  0.7098555265811513  0.022872301082799102  0.3837488623230599  1.0000
  O   O2        1.0  0.2901430216757675  0.9771291059046521  0.6162522895351613  1.0000
  O   O3        1.0  0.9389169652480689  0.0133111726014192  0.16487214369813336  1.0000
  O   O4        1.0  0.06107902191361351  0.9866851946385325  0.8351277554214676  1.0000
  O   O5        1.0  0.5325482678072008  0.30225800855932755  0.4515263378868255  1.0000
  O   O6        1.0  0.46746084821165823  0.6977423317301472  0.5484676666626241  1.0000
  O   O7        1.0  0.7925669096637264  0.32741074520684077  0.23863915558161616  1.0000
  O   O8        1.0  0.20743395363548697  0.6725896449968971  0.761358439994389  1.0000
  O   O9        1.0  0.7211500317740092  0.6018608002332968  0.18234863969310305  1.0000
  O   O10       1.0  0.2788520523434244  0.3981405891256244  0.8176500301876573  1.0000
  O   O11       1.0  0.4672710383459986  0.5545367003621423  0.38814456499743955  1.0000
  O   O12       1.0  0.5327359970886079  0.4454707560497511  0.6118470786158599  1.0000
  O   O13       1.0  0.5066974157980157  0.40755733250649956  0.20905860422342212  1.0000
  O   O14       1.0  0.49330466921133365  0.5924440535595255  0.7909408907526582  1.0000
  O   O15       1.0  0.7030057432277133  0.894089067445556  0.08092400305902463  1.0000
  O   O16       1.0  0.2969938630013473  0.10590929661908893  0.919076117217159  1.0000
  O   O17       1.0  0.4270749084117185  0.8199663097232629  0.3014452298913143  1.0000
  O   O18       1.0  0.5729296527021717  0.18003810822281005  0.6985511644986956  1.0000
  O   O19       1.0  0.4724664920303213  0.7213703802742232  0.10824040753926299  1.0000
  O   O20       1.0  0.5275308371922164  0.2786300209722797  0.8917613202048641  1.0000
  O   O21       1.0  0.1719059496478366  0.8145142900970299  0.5109150425678948  1.0000
  O   O22       1.0  0.8280949525790716  0.1854871172119772  0.4890814292891647  1.0000
  O   O23       1.0  0.23583704301525904  0.5334012991632306  0.5817970982420562  1.0000
  O   O24       1.0  0.7641593441262843  0.4666051996147545  0.4182014648319451  1.0000
  O   O25       1.0  0.14957598789201404  0.6695325381397693  0.3657304373296029  1.0000
  O   O26       1.0  0.8504250364694458  0.33047190072772276  0.6342676139425479  1.0000
  O   O27       1.0  0.2903756397451999  0.2580197766596371  0.6735001884361651  1.0000
  O   O28       1.0  0.7096228306563435  0.7419795961172825  0.32650321085995415  1.0000
  O   O29       1.0  0.21332560823233138  0.3500492728923206  0.4579173438363853  1.0000
  O   O30       1.0  0.786677649748398  0.6499521281524706  0.5420760982101598  1.0000
