data_image0
_chemical_formula_structural       Zn2H20C26Br2N2O10
_chemical_formula_sum              "Zn2 H20 C26 Br2 N2 O10"
_cell_length_a       9.598168730348032
_cell_length_b       11.083602470631115
_cell_length_c       11.020245887417103
_cell_angle_alpha    91.4478481538748
_cell_angle_beta     89.21370397919532
_cell_angle_gamma    86.94539661999481

_space_group_name_H-M_alt    "P 1"
_space_group_IT_number       1

loop_
  _space_group_symop_operation_xyz
  'x, y, z'

loop_
  _atom_site_type_symbol
  _atom_site_label
  _atom_site_symmetry_multiplicity
  _atom_site_fract_x
  _atom_site_fract_y
  _atom_site_fract_z
  _atom_site_occupancy
  Zn  Zn1       1.0  0.6442938080681272  0.4915745172104024  0.49881792745214426  1.0000
  Zn  Zn2       1.0  0.357813959524627  0.5044280703669201  0.5019558231002961  1.0000
  H   H1        1.0  0.716005760542082  0.11180974482282117  0.7042540816683598  1.0000
  H   H2        1.0  0.8196924469165336  0.87091966053687  0.5831252503475354  1.0000
  H   H3        1.0  0.2801549506604246  0.5501985391320545  0.8873733977888207  1.0000
  H   H4        1.0  0.27909949705167497  0.5588131782297125  0.11576046068121569  1.0000
  H   H5        1.0  0.7150748509940925  0.4503476854063634  0.11249499795664519  1.0000
  H   H6        1.0  0.71644198859304  0.4427949503905565  0.883959451613208  1.0000
  H   H7        1.0  0.15134873156883094  0.34846408205826407  0.3895253109943013  1.0000
  H   H8        1.0  0.11790918386153496  0.6445939417503792  0.6282659972634334  1.0000
  H   H9        1.0  0.8844415417120003  0.3456504767799871  0.3832211218070681  1.0000
  H   H10       1.0  0.8510711466526286  0.6382567148679781  0.6266710427529318  1.0000
  H   H11       1.0  0.1264010367601358  0.971049160546698  0.38064954099605325  1.0000
  H   H12       1.0  0.17208578275365483  0.8503995357411609  0.4803679685347858  1.0000
  H   H13       1.0  0.1438083785483997  0.6992667507485207  0.3102673747269336  1.0000
  H   H14       1.0  0.9854485673039406  0.7893844363189827  0.33740919989384816  1.0000
  H   H15       1.0  0.0949925446959909  0.8184209775662767  0.21110065085179736  1.0000
  H   H16       1.0  0.4306435705507781  0.08750833450349661  0.16509656883904708  1.0000
  H   H17       1.0  0.4615309007685653  0.2274308680242284  0.2419485699434958  1.0000
  H   H18       1.0  0.22198529302203002  0.3079940596685019  0.19570729142846222  1.0000
  H   H19       1.0  0.3088634738185476  0.2571216354596756  0.059729968842255184  1.0000
  H   H20       1.0  0.18238352270470407  0.16597317855914887  0.12677613471505816  1.0000
  C   C1        1.0  0.4985251972558657  0.49169231932020085  0.7371300374069277  1.0000
  C   C2        1.0  0.49581032192160984  0.5062927591506392  0.26270528015837863  1.0000
  C   C3        1.0  0.0828007716344956  0.4142635157821815  0.43965788063666617  1.0000
  C   C4        1.0  0.064188049215339  0.5783809616346856  0.5740745108140216  1.0000
  C   C5        1.0  0.9379677987305897  0.41230448615296916  0.43692296395681746  1.0000
  C   C6        1.0  0.9195511706998045  0.5754404478424532  0.572640789914601  1.0000
  C   C7        1.0  0.4942248388420439  0.7340018661193426  0.5034835585577611  1.0000
  C   C8        1.0  0.5137436419760347  0.2619660462520486  0.4738508860177503  1.0000
  C   C9        1.0  0.6015006024193141  0.9326500137133636  0.5424081462283894  1.0000
  C   C10       1.0  0.6089112440249167  0.05706953404099118  0.5331194892694596  1.0000
  C   C11       1.0  0.4985701081033868  0.867219749473129  0.4877279935377956  1.0000
  C   C12       1.0  0.5136253006359723  0.12704437612872244  0.4664254821984101  1.0000
  C   C13       1.0  0.4062810948772934  0.9341415670711655  0.41297674693120706  1.0000
  C   C14       1.0  0.41381500873010424  0.06179374986064797  0.40253243982738235  1.0000
  C   C15       1.0  0.7306893322762846  0.061845805928122374  0.6177557293250756  1.0000
  C   C16       1.0  0.7271089665056039  0.9204319476123498  0.621571228366541  1.0000
  C   C17       1.0  0.37458464695988164  0.5282607569770474  0.9378102100586073  1.0000
  C   C18       1.0  0.37394527544942957  0.5328327799049646  0.0640037266692346  1.0000
  C   C19       1.0  0.4968575273309881  0.5042152963838191  0.12685490968682697  1.0000
  C   C20       1.0  0.4981405091605779  0.4956027147530903  0.8729725806493744  1.0000
  C   C21       1.0  0.6205499602639719  0.47192798634959837  0.062039524152900996  1.0000
  C   C22       1.0  0.6212918957326536  0.46774294305591  0.9357869665638886  1.0000
  C   C23       1.0  0.171972837344498  0.8779530883688763  0.3850150603568068  1.0000
  C   C24       1.0  0.09466947873713141  0.7908675195190324  0.306141876357735  1.0000
  C   C25       1.0  0.38068792816667946  0.1644681228644771  0.21758137699539756  1.0000
  C   C26       1.0  0.26600991381076267  0.22724801481660964  0.14625043855661346  1.0000
  Br  Br1       1.0  0.9103223328305107  0.1138966639553729  0.5511065962656687  1.0000
  Br  Br2       1.0  0.7006999239988189  0.8526491623870167  0.7837422918658701  1.0000
  N   N1        1.0  0.8582402687869078  0.49329276239568276  0.5027421126038404  1.0000
  N   N2        1.0  0.1439802278075888  0.4982901091046798  0.50691538627985  1.0000
  O   O1        1.0  0.6169063403812558  0.48275072765693483  0.6828587306792854  1.0000
  O   O2        1.0  0.6136532319632052  0.49843157255456544  0.31473884602691976  1.0000
  O   O3        1.0  0.38035928259922963  0.4976082326620739  0.6855203077656639  1.0000
  O   O4        1.0  0.37690088017370016  0.5143176262777371  0.31630589539695814  1.0000
  O   O5        1.0  0.6130068342583429  0.6772551997458647  0.5079377967813342  1.0000
  O   O6        1.0  0.6327456056800287  0.3068143356991369  0.4805104630813445  1.0000
  O   O7        1.0  0.3759455744637918  0.6887236996486406  0.5126880018996757  1.0000
  O   O8        1.0  0.395844445066878  0.3199089052001226  0.47931400503809823  1.0000
  O   O9        1.0  0.31571804014934207  0.8745583890605741  0.34148231302921056  1.0000
  O   O10       1.0  0.31948310311679506  0.11795910622726069  0.32732006562677896  1.0000
