data_image0
_chemical_formula_structural       Al2H24C48O18
_chemical_formula_sum              "Al2 H24 C48 O18"
_cell_length_a       4.003891186090871
_cell_length_b       28.929500137706253
_cell_length_c       28.930289671299107
_cell_angle_alpha    119.9983704908801
_cell_angle_beta     90.0006212330948
_cell_angle_gamma    89.99930939837621

_space_group_name_H-M_alt    "P 1"
_space_group_IT_number       1

loop_
  _space_group_symop_operation_xyz
  'x, y, z'

loop_
  _atom_site_type_symbol
  _atom_site_label
  _atom_site_symmetry_multiplicity
  _atom_site_fract_x
  _atom_site_fract_y
  _atom_site_fract_z
  _atom_site_occupancy
  Al  Al1       1.0  0.0083945046901661  0.49999668901379113  0.4999919913355909  1.0000
  Al  Al2       1.0  0.007337698181416399  0.16666436020098258  0.8333420748751122  1.0000
  H   H1        1.0  0.189447485521228  0.17210680382768118  0.6948022824331304  1.0000
  H   H2        1.0  0.1690133022193407  0.2206698892252135  0.6435326832182682  1.0000
  H   H3        1.0  0.788713722512078  0.2985525695082526  0.8157837997142606  1.0000
  H   H4        1.0  0.789728282053339  0.3681393152828534  0.5175931556780639  1.0000
  H   H5        1.0  0.1904679413971451  0.49457768257705936  0.6385635940087652  1.0000
  H   H6        1.0  0.16965974498381797  0.4459855769844906  0.6897965457030394  1.0000
  H   H7        1.0  0.1895164685953219  0.022683707711074304  0.8279055326089092  1.0000
  H   H8        1.0  0.169020765275036  0.9228566769424091  0.7793506692837723  1.0000
  H   H9        1.0  0.7887514125821297  0.017215268856247648  0.7014573772299854  1.0000
  H   H10       1.0  0.789703078690394  0.6494395111689427  0.6318481482919863  1.0000
  H   H11       1.0  0.19044391320271356  0.6439959805673822  0.5054188252265418  1.0000
  H   H12       1.0  0.1696292284915302  0.7438211221210053  0.554013676182869  1.0000
  H   H13       1.0  0.18946758598301727  0.3052046712043506  0.9773079264017638  1.0000
  H   H14       1.0  0.1689707333391794  0.3564817014568007  0.07713448864671331  1.0000
  H   H15       1.0  0.7887799986486499  0.18423320153029707  0.9827919296750521  1.0000
  H   H16       1.0  0.7896944748446372  0.48241099275582394  0.3505449197202494  1.0000
  H   H17       1.0  0.1904803095200833  0.36143014744062185  0.3560066866703764  1.0000
  H   H18       1.0  0.16963895574653517  0.31019866419988057  0.256183562792188  1.0000
  H   H19       1.0  0.7505475673149816  0.37143797469303047  0.7469761533819437  1.0000
  H   H20       1.0  0.7514612911621085  0.2952237531796768  0.5863673705400174  1.0000
  H   H21       1.0  0.750498851775454  0.8755278410753532  0.6285785500154474  1.0000
  H   H22       1.0  0.7514195187822991  0.7911279045494195  0.704766187873261  1.0000
  H   H23       1.0  0.7505037945391776  0.2530463604011501  0.12447969461670987  1.0000
  H   H24       1.0  0.7513942522615409  0.4136430425057823  0.20886301091409357  1.0000
  C   C1        1.0  0.5054972107618382  0.45518341151606706  0.4181417336734297  1.0000
  C   C2        1.0  0.5055217182803632  0.46295894941003696  0.5448081061881351  1.0000
  C   C3        1.0  0.5055212983486328  0.5818503136186877  0.5370267494147142  1.0000
  C   C4        1.0  0.5045007423424934  0.20373665297080357  0.788560381903302  1.0000
  C   C5        1.0  0.5045136489668423  0.08481129491670433  0.7962734196702285  1.0000
  C   C6        1.0  0.5045302464488158  0.21144813926301942  0.9151926392715309  1.0000
  C   C7        1.0  0.4897451813387832  0.23262993158750314  0.7580918488906788  1.0000
  C   C8        1.0  0.3154812996652723  0.21026748432275597  0.7094624071970301  1.0000
  C   C9        1.0  0.30351069396784414  0.23736441881282375  0.6812615799580185  1.0000
  C   C10       1.0  0.4563231529086309  0.2877838638711266  0.7017270259013626  1.0000
  C   C11       1.0  0.6291434724646763  0.31007533580564217  0.7511512204361921  1.0000
  C   C12       1.0  0.6486692407313441  0.2820406127918671  0.778618243391861  1.0000
  C   C13       1.0  0.4430387688074262  0.3180039564159357  0.6755588558518609  1.0000
  C   C14       1.0  0.4433514612636457  0.3486275078132478  0.657749353983533  1.0000
  C   C15       1.0  0.45701586142651257  0.3788723641645431  0.6316075727512781  1.0000
  C   C16       1.0  0.6300640821668821  0.3566065895087646  0.5822122400631853  1.0000
  C   C17       1.0  0.6496202948828013  0.38464575734966633  0.5547449141385457  1.0000
  C   C18       1.0  0.4906735777378017  0.4340588684269163  0.5752710026082467  1.0000
  C   C19       1.0  0.316374040857788  0.45641074672163023  0.6238930937913806  1.0000
  C   C20       1.0  0.30425308299906106  0.42929504013449094  0.6520795139358952  1.0000
  C   C21       1.0  0.48977443430461415  0.025449313525875556  0.7673806351295269  1.0000
  C   C22       1.0  0.3155303526648368  0.9991870390889018  0.7897475352004902  1.0000
  C   C23       1.0  0.30351588154545783  0.9438834818765969  0.7626503955467426  1.0000
  C   C24       1.0  0.45631409317243765  0.913934913579524  0.7122347842026641  1.0000
  C   C25       1.0  0.6291339495649098  0.9410612511907246  0.6899392554568065  1.0000
  C   C26       1.0  0.6486986031458599  0.9965681192364927  0.7179737235221565  1.0000
  C   C27       1.0  0.44299331964582217  0.8575383685030076  0.6820074792725634  1.0000
  C   C28       1.0  0.44328894097177596  0.8091226463355382  0.6513797852570844  1.0000
  C   C29       1.0  0.45697439453920197  0.7527314958088878  0.621123577960226  1.0000
  C   C30       1.0  0.6300255752524392  0.7255936005306295  0.6433863669227761  1.0000
  C   C31       1.0  0.6495878585647643  0.670091965292208  0.6153432037486439  1.0000
  C   C32       1.0  0.490674294872086  0.6412118029574357  0.5659317825578825  1.0000
  C   C33       1.0  0.3163668699804205  0.667490353311841  0.5435839889857306  1.0000
  C   C34       1.0  0.30422733904911325  0.7227885574189584  0.570701693630582  1.0000
  C   C35       1.0  0.4897880554189555  0.24192006244967248  0.9745507435237711  1.0000
  C   C36       1.0  0.3155030951444289  0.2905487376518749  0.0008121448399407403  1.0000
  C   C37       1.0  0.3034931876712932  0.3187534690403027  0.05610578699221241  1.0000
  C   C38       1.0  0.45631405638416567  0.2982931862843259  0.08606464322497223  1.0000
  C   C39       1.0  0.6291619973501382  0.2488695377137588  0.05893827839865646  1.0000
  C   C40       1.0  0.6487270157649404  0.22139946965850746  0.0034409229325120584  1.0000
  C   C41       1.0  0.44298556133711736  0.324461075417517  0.14245071384357996  1.0000
  C   C42       1.0  0.4432638843741827  0.34226073693571374  0.19087903666816422  1.0000
  C   C43       1.0  0.45694161906126846  0.36839670404344094  0.24726315010111208  1.0000
  C   C44       1.0  0.6299896929640524  0.4177975137851391  0.27439778117801683  1.0000
  C   C45       1.0  0.6495740907325427  0.4452546964321868  0.3298962632725021  1.0000
  C   C46       1.0  0.4906656702472389  0.424727746239533  0.35878189413569567  1.0000
  C   C47       1.0  0.3163738061517377  0.37609916781069325  0.33250928484046227  1.0000
  C   C48       1.0  0.3042347044744672  0.34791953612254634  0.27721197814963705  1.0000
  O   O1        1.0  0.7455366807691064  0.5602168702559424  0.5483926191574183  1.0000
  O   O2        1.0  0.745510636149575  0.48818219469412577  0.4397739459905948  1.0000
  O   O3        1.0  0.7455074828756025  0.4515938047119903  0.5118117900059076  1.0000
  O   O4        1.0  0.2757745805276457  0.5564558353181326  0.5029668204956366  1.0000
  O   O5        1.0  0.2757615937623826  0.49702157518519385  0.5534739677157816  1.0000
  O   O6        1.0  0.27576454283740043  0.4465158873996557  0.44353528580289486  1.0000
  O   O7        1.0  0.7444924024544122  0.178442653952274  0.8935518450773471  1.0000
  O   O8        1.0  0.7444680814398267  0.21509760363895203  0.8215621992182347  1.0000
  O   O9        1.0  0.7444863356054369  0.10645498777218156  0.7849131254210134  1.0000
  O   O10       1.0  0.27475492205652335  0.22012291256063327  0.8898050449199174  1.0000
  O   O11       1.0  0.27474987741857865  0.11019721062400119  0.8303350698543923  1.0000
  O   O12       1.0  0.27473289366336207  0.16967376860908678  0.7798837903469786  1.0000
  O   O13       1.0  0.7814490353004259  0.3584114712955253  0.7721645061143007  1.0000
  O   O14       1.0  0.7825819878182827  0.30828694046520155  0.5612093813765852  1.0000
  O   O15       1.0  0.7814101355817868  0.9137439555371712  0.6416036599488633  1.0000
  O   O16       1.0  0.7825279012875797  0.7529076163726031  0.691705838144564  1.0000
  O   O17       1.0  0.7814333233644105  0.22785792886309506  0.08626711182000686  1.0000
  O   O18       1.0  0.7824619140944263  0.43880466187763284  0.24707958210679945  1.0000
