data_image0
_chemical_formula_structural       Mg2H32C32O16F4
_chemical_formula_sum              "Mg2 H32 C32 O16 F4"
_cell_length_a       6.819281119260193
_cell_length_b       7.540112310520869
_cell_length_c       17.169026343438404
_cell_angle_alpha    94.43654711519201
_cell_angle_beta     89.99921257010837
_cell_angle_gamma    89.99944938554734

_space_group_name_H-M_alt    "P 1"
_space_group_IT_number       1

loop_
  _space_group_symop_operation_xyz
  'x, y, z'

loop_
  _atom_site_type_symbol
  _atom_site_label
  _atom_site_symmetry_multiplicity
  _atom_site_fract_x
  _atom_site_fract_y
  _atom_site_fract_z
  _atom_site_occupancy
  Mg  Mg1       1.0  0.5000020114293591  0.5000014547621277  0.9999995345678698  1.0000
  Mg  Mg2       1.0  0.9999972444286838  3.148235862204041e-06  0.9999991655271852  1.0000
  H   H1        1.0  0.7634015595233735  0.3703431074735377  0.31263222816144065  1.0000
  H   H2        1.0  0.2634052479817512  0.1296583411686996  0.6873734430264733  1.0000
  H   H3        1.0  0.23659918909802258  0.6296517280620506  0.6873688487582541  1.0000
  H   H4        1.0  0.7365955006538983  0.870339177841288  0.3126259844858764  1.0000
  H   H5        1.0  0.7585196164935936  0.5175536990432762  0.4488331579588943  1.0000
  H   H6        1.0  0.25851840411799276  0.9824501645841652  0.5511719305634699  1.0000
  H   H7        1.0  0.24148553141274215  0.48244380456747404  0.5511674338872365  1.0000
  H   H8        1.0  0.7414823445097767  0.017548684629666404  0.448827545505118  1.0000
  H   H9        1.0  0.21587948751681546  0.8740770903740513  0.3869154762012669  1.0000
  H   H10       1.0  0.7158782830611016  0.6259152937898023  0.613083601058612  1.0000
  H   H11       1.0  0.7841256603680051  0.12592574174097143  0.6130847276965453  1.0000
  H   H12       1.0  0.2841239319847659  0.3740822098352297  0.3869169907960312  1.0000
  H   H13       1.0  0.22178495907626677  0.7305721113339843  0.2518824998932344  1.0000
  H   H14       1.0  0.7217834405709739  0.7694215301149897  0.7481177559959418  1.0000
  H   H15       1.0  0.7782143230955043  0.26942939060576526  0.7481176554653641  1.0000
  H   H16       1.0  0.2782143751841986  0.23057597353147238  0.25188283587146276  1.0000
  H   H17       1.0  0.27336634124354475  0.49730555968167073  0.17094863576077293  1.0000
  H   H18       1.0  0.7733633875733973  0.002686565047945102  0.8290502338127437  1.0000
  H   H19       1.0  0.7266344073505807  0.5026972724547819  0.8290515681498076  1.0000
  H   H20       1.0  0.22663296173365668  0.9973122611206052  0.1709509887884337  1.0000
  H   H21       1.0  0.09678621990357783  0.630394217876834  0.12575871311893386  1.0000
  H   H22       1.0  0.5967895528240702  0.8696099375752768  0.8742437724688867  1.0000
  H   H23       1.0  0.9032159950928857  0.3696099290785071  0.8742427036901785  1.0000
  H   H24       1.0  0.40320533000910075  0.1303928638341318  0.12575876015181106  1.0000
  H   H25       1.0  0.7125297080184934  0.4003284369753646  0.12884904661709837  1.0000
  H   H26       1.0  0.2125361700515072  0.09967093920376872  0.8711498366230186  1.0000
  H   H27       1.0  0.2874695741611575  0.5996717347605485  0.8711510601852621  1.0000
  H   H28       1.0  0.7874631121281369  0.9003292325321444  0.1288502701793348  1.0000
  H   H29       1.0  0.6787759240239524  0.25390390735152124  0.05940516885687689  1.0000
  H   H30       1.0  0.17877697254963462  0.24609847353363534  0.9405928430663905  1.0000
  H   H31       1.0  0.3212218917454734  0.74609627976934  0.9405937736031899  1.0000
  H   H32       1.0  0.8212208432319271  0.7539030591688843  0.059404983603364804  1.0000
  C   C1        1.0  0.9895145980547895  0.5424027091158977  0.27365560785843  1.0000
  C   C2        1.0  0.4895208010835148  0.957596250960073  0.7263474606990811  1.0000
  C   C3        1.0  0.010483217694627501  0.457597462627156  0.7263444989481868  1.0000
  C   C4        1.0  0.5104784811018918  0.0424012526792481  0.2736531311640675  1.0000
  C   C5        1.0  0.860341986078794  0.48178899985580165  0.3292536872323665  1.0000
  C   C6        1.0  0.36034302899392395  0.018212857490141208  0.6707497233730562  1.0000
  C   C7        1.0  0.1396587625389714  0.518209841669119  0.6707463710094999  1.0000
  C   C8        1.0  0.6396577196596097  0.9817833390049062  0.3292490734097768  1.0000
  C   C9        1.0  0.8583723052164417  0.562105188810179  0.4049537635256043  1.0000
  C   C10       1.0  0.35837444955944864  0.9378990474259726  0.5950496296678266  1.0000
  C   C11       1.0  0.14162990983155052  0.43789365270760083  0.5950462947120057  1.0000
  C   C12       1.0  0.6416292319330309  0.06210247755906551  0.4049487791581753  1.0000
  C   C13       1.0  0.9865064441120167  0.7025702489981713  0.4237737000330809  1.0000
  C   C14       1.0  0.4865033932243392  0.797426087715323  0.5762287067243718  1.0000
  C   C15       1.0  0.013497237374096499  0.2974272623086236  0.5762263096440279  1.0000
  C   C16       1.0  0.5134988218315399  0.20257142359862007  0.4237713029569931  1.0000
  C   C17       1.0  0.1170869540605111  0.7641663390922988  0.37014270560712953  1.0000
  C   C18       1.0  0.6170869397529586  0.7358269923144649  0.6298581093717599  1.0000
  C   C19       1.0  0.8829196602760588  0.23583116451130345  0.6298578862347454  1.0000
  C   C20       1.0  0.38291820814762184  0.26417317939286983  0.3701419974135759  1.0000
  C   C21       1.0  0.11861378620698557  0.6830785955055988  0.2939135561834759  1.0000
  C   C22       1.0  0.6186161481885718  0.8169187116237854  0.7060873955957517  1.0000
  C   C23       1.0  0.8813869624086478  0.3169189081265742  0.7060870356754234  1.0000
  C   C24       1.0  0.38138460041918887  0.18308012221223188  0.2939132448193859  1.0000
  C   C25       1.0  0.1247734071766544  0.4972767287294675  0.1453753478526281  1.0000
  C   C26       1.0  0.6247754362762521  0.002723487183800401  0.854625209070299  1.0000
  C   C27       1.0  0.8752258749951167  0.5027247732102894  0.8546248075059706  1.0000
  C   C28       1.0  0.3752194466048168  0.9972780147773862  0.145374946301061  1.0000
  C   C29       1.0  0.12268126941314249  0.3613254623002291  0.07555358546847658  1.0000
  C   C30       1.0  0.6226779828550874  0.138688129885324  0.9244433939617804  1.0000
  C   C31       1.0  0.8773180127628775  0.6386787154250229  0.9244455026560485  1.0000
  C   C32       1.0  0.37732276576692664  0.8613133874250991  0.07555559704601217  1.0000
  O   O1        1.0  0.9801267822911727  0.45255527350207103  0.20055952135248833  1.0000
  O   O2        1.0  0.48012747351135937  0.047446739187087424  0.7994438247718489  1.0000
  O   O3        1.0  0.0198739663108327  0.5474462284305376  0.7994406340018541  1.0000
  O   O4        1.0  0.5198674093833446  0.9525507644736707  0.20055676710406795  1.0000
  O   O5        1.0  0.6141800594963627  0.3552439705632794  0.09085323474891277  1.0000
  O   O6        1.0  0.1141861992497368  0.1447563562395899  0.9091468014708892  1.0000
  O   O7        1.0  0.38581775624517434  0.6447575313836184  0.9091469206139348  1.0000
  O   O8        1.0  0.8858130829241587  0.8552464835929073  0.09085282027066909  1.0000
  O   O9        1.0  0.22336277449208805  0.4013869991440871  0.016635583930103302  1.0000
  O   O10       1.0  0.7233652109572972  0.09861626210965113  0.9833633821170406  1.0000
  O   O11       1.0  0.7766379740905193  0.5986211691855418  0.983363649858887  1.0000
  O   O12       1.0  0.2766355376331902  0.9013905760161409  0.016635803115711705  1.0000
  O   O13       1.0  0.027726207256954197  0.21903634392216992  0.07895049811590839  1.0000
  O   O14       1.0  0.5277420613847496  0.2809689081111628  0.9210431994293412  1.0000
  O   O15       1.0  0.9722716085288496  0.7809678645658453  0.9210462613197803  1.0000
  O   O16       1.0  0.4722542879308023  0.7190352696283783  0.0789558887036961  1.0000
  F   F1        1.0  0.9813487633111818  0.7838126825448131  0.49806602207990364  1.0000
  F   F2        1.0  0.4813432708873435  0.7161850269515354  0.501937045348498  1.0000
  F   F3        1.0  0.0186534517446901  0.21618482876912284  0.5019339876014681  1.0000
  F   F4        1.0  0.5186530784591099  0.28380714819779485  0.4980639344714815  1.0000
