data_image0
_chemical_formula_structural       Cu12H24C63N72
_chemical_formula_sum              "Cu12 H24 C63 N72"
_cell_length_a       24.65962921184416
_cell_length_b       24.760879892997295
_cell_length_c       24.89012031289246
_cell_angle_alpha    89.89371061472832
_cell_angle_beta     90.02924706345807
_cell_angle_gamma    89.9133286403182

_space_group_name_H-M_alt    "P 1"
_space_group_IT_number       1

loop_
  _space_group_symop_operation_xyz
  'x, y, z'

loop_
  _atom_site_type_symbol
  _atom_site_label
  _atom_site_symmetry_multiplicity
  _atom_site_fract_x
  _atom_site_fract_y
  _atom_site_fract_z
  _atom_site_occupancy
  Cu  Cu1       1.0  0.7819126736495721  0.7832710279139694  0.8722223489823122  1.0000
  Cu  Cu2       1.0  0.8736283810971486  0.7834734145991007  0.7827582321141476  1.0000
  Cu  Cu3       1.0  0.7816869927960609  0.874338256701151  0.7823066404699757  1.0000
  Cu  Cu4       1.0  0.784131012156145  0.2162963727178493  0.1265317748544845  1.0000
  Cu  Cu5       1.0  0.8749304863632545  0.21679859550282288  0.21723930499188526  1.0000
  Cu  Cu6       1.0  0.7837372829394197  0.12572046311507282  0.2170090329999964  1.0000
  Cu  Cu7       1.0  0.2166174403817394  0.782935063516966  0.12900329502782168  1.0000
  Cu  Cu8       1.0  0.12476029825495522  0.7830860579984035  0.21874461962813999  1.0000
  Cu  Cu9       1.0  0.2163585042167853  0.8738198274773766  0.21865519743138856  1.0000
  Cu  Cu10      1.0  0.2160337179118414  0.2181067080910069  0.8722238202092425  1.0000
  Cu  Cu11      1.0  0.1243902218812707  0.218665193840323  0.7823063393131093  1.0000
  Cu  Cu12      1.0  0.21596174947177366  0.1272291151099978  0.7828710676637484  1.0000
  H   H1        1.0  0.8175909425519094  0.681178678620391  0.9413592756092226  1.0000
  H   H2        1.0  0.9441507765974819  0.6820929369142164  0.8203154308974374  1.0000
  H   H3        1.0  0.6792961512468808  0.944044834916127  0.8190738056190979  1.0000
  H   H4        1.0  0.6801851499557754  0.8194623620702829  0.9418952534926317  1.0000
  H   H5        1.0  0.9431626479756259  0.8200444821574494  0.6815801471103595  1.0000
  H   H6        1.0  0.8181190273535819  0.9435127961174459  0.6808892315375201  1.0000
  H   H7        1.0  0.8202792496402297  0.31790317996564715  0.05717181447752039  1.0000
  H   H8        1.0  0.9443745788514091  0.3189733062413111  0.1808067434226501  1.0000
  H   H9        1.0  0.6814902791054251  0.0562558782352909  0.18047171349640928  1.0000
  H   H10       1.0  0.6821020659496  0.1802610877987547  0.05708046034438038  1.0000
  H   H11       1.0  0.9438742841935834  0.18070181717553166  0.3192869079691079  1.0000
  H   H12       1.0  0.8197086371315835  0.05674786422977012  0.3188876241509391  1.0000
  H   H13       1.0  0.18113558829320908  0.6809354517305765  0.060310815186234386  1.0000
  H   H14       1.0  0.0545397689595646  0.6819233645550395  0.18131324266990834  1.0000
  H   H15       1.0  0.31781103830223156  0.9441946692428901  0.18141235345198936  1.0000
  H   H16       1.0  0.3186184159756351  0.8191903708743026  0.0594676527474647  1.0000
  H   H17       1.0  0.0556868726836939  0.8193467614126035  0.3205726915477172  1.0000
  H   H18       1.0  0.1807903542770291  0.9423778711292811  0.320524784258275  1.0000
  H   H19       1.0  0.18020994958799721  0.3195300985338463  0.941546803852489  1.0000
  H   H20       1.0  0.0549916749063755  0.3210561105135099  0.8190235675090775  1.0000
  H   H21       1.0  0.3177979809057163  0.056773177170669015  0.8202205943545022  1.0000
  H   H22       1.0  0.3183970996620999  0.18227889587277699  0.9416421732368999  1.0000
  H   H23       1.0  0.05516294279754421  0.1820853204644237  0.6808306726179151  1.0000
  H   H24       1.0  0.17983795084416704  0.058228752016461285  0.6817448227637896  1.0000
  C   C1        1.0  0.8441078180712438  0.689200141315105  0.9075577685700934  1.0000
  C   C2        1.0  0.8913364503960823  0.6618206346948698  0.8914417659252791  1.0000
  C   C3        1.0  0.9090910843526886  0.6897363236894948  0.845474789211245  1.0000
  C   C4        1.0  0.687407079414335  0.9094609969077041  0.8446469462955049  1.0000
  C   C5        1.0  0.6599291356617204  0.8921714106955392  0.8910538032142268  1.0000
  C   C6        1.0  0.6878532799912095  0.845511138708645  0.9076797045392268  1.0000
  C   C7        1.0  0.908464613335667  0.8458482114371224  0.6892733322952082  1.0000
  C   C8        1.0  0.891113207829534  0.8922329192995946  0.6614744925658796  1.0000
  C   C9        1.0  0.8442737990339495  0.9091839718610119  0.6888827365879349  1.0000
  C   C10       1.0  0.8462806786027388  0.3102548708761503  0.09149862049164877  1.0000
  C   C11       1.0  0.8926935918660561  0.33833762275696  0.1085339759046349  1.0000
  C   C12       1.0  0.9099281174067357  0.3108350996336853  0.15498203609762837  1.0000
  C   C13       1.0  0.6895575483854657  0.0906736959420087  0.15470580126854827  1.0000
  C   C14       1.0  0.6618904750066932  0.10787234712778121  0.1083166464287331  1.0000
  C   C15       1.0  0.6898809139065347  0.1542789857680873  0.0913450779803924  1.0000
  C   C16       1.0  0.9094454427207239  0.1547472622040829  0.311273736656851  1.0000
  C   C17       1.0  0.8921662075020153  0.10833134274213309  0.33896649646767674  1.0000
  C   C18       1.0  0.8457264803066379  0.09113979173122293  0.31107640902864375  1.0000
  C   C19       1.0  0.15458005754781823  0.6890015000037412  0.09406852260667618  1.0000
  C   C20       1.0  0.1074261259753442  0.6616206599834984  0.11027063491413708  1.0000
  C   C21       1.0  0.08959297992281991  0.6895202079126009  0.1561440386704191  1.0000
  C   C22       1.0  0.3101618346098363  0.9094833151402782  0.15603348220078314  1.0000
  C   C23       1.0  0.3380456981850486  0.8921910774361593  0.10989465139851967  1.0000
  C   C24       1.0  0.3105848950960919  0.8453246810130963  0.09345578456576929  1.0000
  C   C25       1.0  0.0903213420529241  0.8450833357838692  0.312663634698218  1.0000
  C   C26       1.0  0.1079226911714102  0.8912645292114547  0.3404115912066885  1.0000
  C   C27       1.0  0.1545275038024059  0.9082132407508043  0.3126396190581672  1.0000
  C   C28       1.0  0.1539391507143435  0.3119901839347108  0.9074437489115326  1.0000
  C   C29       1.0  0.1072770192864496  0.3401181078900919  0.8908494576209449  1.0000
  C   C30       1.0  0.08967614161360873  0.31278776974865974  0.8445589747213302  1.0000
  C   C31       1.0  0.3100538030176878  0.09157860086309459  0.8454665128808755  1.0000
  C   C32       1.0  0.3379392893601861  0.1090424733955118  0.8915411494358522  1.0000
  C   C33       1.0  0.31041402677695373  0.15601342443719093  0.9077531021422088  1.0000
  C   C34       1.0  0.0897350645295205  0.15618737763347923  0.6888784144294744  1.0000
  C   C35       1.0  0.10712320812210413  0.10966974726360948  0.6615034502223693  1.0000
  C   C36       1.0  0.1537138519647598  0.09262981099872294  0.6893842894477019  1.0000
  C   C37       1.0  2.70155854878e-05  0.00033058216058630006  0.5007871872865763  1.0000
  C   C38       1.0  0.9999266842629169  0.5008210957664616  0.0007486924919390995  1.0000
  C   C39       1.0  0.49925656278406194  0.0004394640362904001  0.0008006374623831997  1.0000
  C   C40       1.0  0.9170876748570151  0.616440846472905  0.917517512240728  1.0000
  C   C41       1.0  0.9658200216968993  0.5394777763901643  0.9667630290509377  1.0000
  C   C42       1.0  0.9180030620409527  0.38417012284156726  0.08295376971916821  1.0000
  C   C43       1.0  0.9660212457851999  0.4619027222908869  0.03446335134360369  1.0000
  C   C44       1.0  0.0819855044962239  0.6161400008927203  0.08434887550667719  1.0000
  C   C45       1.0  0.0338020207917396  0.5392006220969562  0.0349983097649726  1.0000
  C   C46       1.0  0.08215319432192561  0.3857987196359289  0.9168120802518374  1.0000
  C   C47       1.0  0.03406773008797611  0.4626657883496961  0.9664368163929636  1.0000
  C   C48       1.0  0.6144225679751544  0.9177396801601462  0.9171269763529677  1.0000
  C   C49       1.0  0.5376081666386554  0.9663583326034415  0.9666186030321028  1.0000
  C   C50       1.0  0.383413359019734  0.0832464372561361  0.9176068048087129  1.0000
  C   C51       1.0  0.460528834917568  0.03447863995899782  0.966817850235749  1.0000
  C   C52       1.0  0.6160518797183272  0.0824586866321653  0.0827443901865692  1.0000
  C   C53       1.0  0.5382386015943369  0.0342657200485448  0.03443987139429079  1.0000
  C   C54       1.0  0.3835593965834292  0.9179124617910759  0.08400351708259987  1.0000
  C   C55       1.0  0.4606846366387174  0.9665297634194875  0.034934448774634995  1.0000
  C   C56       1.0  0.9168622354721805  0.9178422530865691  0.6160692773753524  1.0000
  C   C57       1.0  0.965773168829891  0.9664297942416483  0.5392125644198416  1.0000
  C   C58       1.0  0.08276547586311982  0.9167917448423496  0.38615009821412366  1.0000
  C   C59       1.0  0.0343330502128865  0.9659219092152753  0.46288764661854725  1.0000
  C   C60       1.0  0.0818633624373035  0.0838692920471829  0.6160061534985742  1.0000
  C   C61       1.0  0.03388006310857611  0.0346452074416703  0.5390971962736159  1.0000
  C   C62       1.0  0.9176006502528438  0.08282620336795792  0.38468885964883265  1.0000
  C   C63       1.0  0.9660427807394498  0.034253620411625704  0.4620148819923955  1.0000
  N   N1        1.0  0.8748603713064612  0.7306430229039691  0.8350743509219426  1.0000
  N   N2        1.0  0.834565152168544  0.7303388138028026  0.8736414605135678  1.0000
  N   N3        1.0  0.7288844064082411  0.8358205532142479  0.8736146325696693  1.0000
  N   N4        1.0  0.7286309104340133  0.8755109936857082  0.834499540323037  1.0000
  N   N5        1.0  0.8345419318849708  0.8753127029198138  0.7299190573112212  1.0000
  N   N6        1.0  0.8743812456928878  0.8359881867594084  0.7301471825349352  1.0000
  N   N7        1.0  0.8761744717114298  0.26949623040977144  0.16479120763663957  1.0000
  N   N8        1.0  0.8366656169740878  0.2691613792026359  0.12539647800617354  1.0000
  N   N9        1.0  0.7311009535449247  0.1639114128474901  0.12522148422485907  1.0000
  N   N10       1.0  0.7309164764451666  0.12442635453869139  0.16453762790808205  1.0000
  N   N11       1.0  0.836156161216863  0.12490225108619062  0.2698840931675406  1.0000
  N   N12       1.0  0.8757058021423845  0.1643981950157496  0.2700091025706683  1.0000
  N   N13       1.0  0.12369403732552087  0.7304432400794456  0.1663972818789361  1.0000
  N   N14       1.0  0.16400920511502184  0.7301238975570924  0.12784596818250546  1.0000
  N   N15       1.0  0.26945753715582293  0.8355279006870759  0.1273930239142658  1.0000
  N   N16       1.0  0.2691944648945607  0.8753406830359225  0.1662351083582009  1.0000
  N   N17       1.0  0.16390028539162665  0.8745564847853873  0.2714523451308679  1.0000
  N   N18       1.0  0.1240507612999693  0.8353572546797847  0.27146477714135386  1.0000
  N   N19       1.0  0.12345652012619719  0.2714659805665036  0.8344648076653127  1.0000
  N   N20       1.0  0.16334860905135434  0.27100169016938486  0.87348575638169  1.0000
  N   N21       1.0  0.26920989339085116  0.16568329223481026  0.8738015912114747  1.0000
  N   N22       1.0  0.2690118002839911  0.12572127341292827  0.8351150971280246  1.0000
  N   N23       1.0  0.16327871967547478  0.12656669266178258  0.7302778549573645  1.0000
  N   N24       1.0  0.1235721320993548  0.16602655571927022  0.7299751761877429  1.0000
  N   N25       1.0  0.8931190397636328  0.5960171215305651  0.9622580560258598  1.0000
  N   N26       1.0  0.9643731907189306  0.5980624594032234  0.8961815750346318  1.0000
  N   N27       1.0  0.9893017518674229  0.558664559734602  0.9218794495403556  1.0000
  N   N28       1.0  0.9186348359252605  0.5565907702717537  0.9875962757602179  1.0000
  N   N29       1.0  0.8951152867032234  0.40322243347497266  0.0369814946681544  1.0000
  N   N30       1.0  0.9636027351683295  0.4044716205255625  0.10594859032016758  1.0000
  N   N31       1.0  0.988207699488953  0.44430803278702785  0.08063550772894248  1.0000
  N   N32       1.0  0.9202556850627701  0.44299867454688524  0.012075370307158597  1.0000
  N   N33       1.0  0.1059071393884778  0.5962785346207368  0.039356718883468  1.0000
  N   N34       1.0  0.035254871916670504  0.5969420240284009  0.10607577344880778  1.0000
  N   N35       1.0  0.010571276278859901  0.5575630043620735  0.08029488444390859  1.0000
  N   N36       1.0  0.08071226257321482  0.5568710813401623  0.013999520678993297  1.0000
  N   N37       1.0  0.036499573656591594  0.4065529517551739  0.8941419198530268  1.0000
  N   N38       1.0  0.10539189113115552  0.4043928207401422  0.962695384001037  1.0000
  N   N39       1.0  0.08018917175009223  0.44372088132194426  0.9882262950770266  1.0000
  N   N40       1.0  0.011863659933951002  0.44594483547876257  0.9200461937291777  1.0000
  N   N41       1.0  0.5956091398484773  0.8948963692968092  0.963155426978048  1.0000
  N   N42       1.0  0.594224284634933  0.9635297770550512  0.8944996338474096  1.0000
  N   N43       1.0  0.5548553941747443  0.9884511392602846  0.9203427415170251  1.0000
  N   N44       1.0  0.5562942529101562  0.9203604412776446  0.9885904187020244  1.0000
  N   N45       1.0  0.40360034627178715  0.1067827245796735  0.962614436240436  1.0000
  N   N46       1.0  0.4020908472491272  0.0363902718313796  0.8960177701047698  1.0000
  N   N47       1.0  0.4415813094377157  0.0114349123952806  0.921703671012217  1.0000
  N   N48       1.0  0.4431008903215385  0.08125862339545621  0.9879214781758632  1.0000
  N   N49       1.0  0.5958543594321526  0.036979267950243914  0.10585049064960117  1.0000
  N   N50       1.0  0.5969349251752334  0.1050848271680138  0.03668227681071559  1.0000
  N   N51       1.0  0.5570862974486419  0.07987984941282629  0.011903378714741598  1.0000
  N   N52       1.0  0.555999441395663  0.012253544786531703  0.08060894369213398  1.0000
  N   N53       1.0  0.4028683363708511  0.964177442636718  0.10616752699201729  1.0000
  N   N54       1.0  0.4032639561829967  0.894746552763941  0.038568887948009896  1.0000
  N   N55       1.0  0.4427819143489771  0.9201478040229248  0.0133992866348578  1.0000
  N   N56       1.0  0.4423365186988805  0.9891257977331378  0.0805095133353433  1.0000
  N   N57       1.0  0.8936056671477388  0.9634282628162653  0.5960918282567745  1.0000
  N   N58       1.0  0.9632880917379508  0.8952016645285783  0.5970927261378236  1.0000
  N   N59       1.0  0.9883558228452145  0.9205817033341718  0.5577238178726914  1.0000
  N   N60       1.0  0.9192071057534577  0.9883978704701946  0.5567421131519197  1.0000
  N   N61       1.0  0.036792243067012  0.8940836724622231  0.4059989005360335  1.0000
  N   N62       1.0  0.1063120743116599  0.962230436550584  0.405810368068927  1.0000
  N   N63       1.0  0.08094946241315168  0.9874976622488633  0.44508130494419607  1.0000
  N   N64       1.0  0.011956385299406196  0.9197510210735943  0.4452945391002529  1.0000
  N   N65       1.0  0.035889989400431  0.10654485474625375  0.5959352131120638  1.0000
  N   N66       1.0  0.10527131709737599  0.0380244881845329  0.596961506959424  1.0000
  N   N67       1.0  0.0801668413695609  0.0127419692795314  0.5575897092493277  1.0000
  N   N68       1.0  0.0112831938370874  0.08081996766075861  0.5565400727721794  1.0000
  N   N69       1.0  0.9636479747670776  0.10560348712701992  0.40425397778218297  1.0000
  N   N70       1.0  0.8944325615375918  0.0371252904875305  0.4043449193947168  1.0000
  N   N71       1.0  0.9197734547027638  0.0121874321808164  0.44393830341486046  1.0000
  N   N72       1.0  0.9884893751426278  0.08022231708289951  0.4438573160261469  1.0000
