data_image0
_chemical_formula_structural       Zn8H96C144N48O32
_chemical_formula_sum              "Zn8 H96 C144 N48 O32"
_cell_length_a       15.876388431015751
_cell_length_b       17.07192783100867
_cell_length_c       19.77940519602832
_cell_angle_alpha    89.99988862971391
_cell_angle_beta     90.00015897129504
_cell_angle_gamma    89.99997133158264

_space_group_name_H-M_alt    "P 1"
_space_group_IT_number       1

loop_
  _space_group_symop_operation_xyz
  'x, y, z'

loop_
  _atom_site_type_symbol
  _atom_site_label
  _atom_site_symmetry_multiplicity
  _atom_site_fract_x
  _atom_site_fract_y
  _atom_site_fract_z
  _atom_site_occupancy
  Zn  Zn1       1.0  0.5218139941235691  0.9931844828566126  0.2148985215448107  1.0000
  Zn  Zn2       1.0  0.9781856742970445  0.4931833558082275  0.28510125828471905  1.0000
  Zn  Zn3       1.0  0.5218144813623838  0.506817565431355  0.7851006076575829  1.0000
  Zn  Zn4       1.0  0.9781859186829608  0.006817181551895101  0.714899728995583  1.0000
  Zn  Zn5       1.0  0.47818693549474733  0.006816633420712001  0.7851009803614346  1.0000
  Zn  Zn6       1.0  0.0218158851940444  0.5068160031941957  0.7149017826583446  1.0000
  Zn  Zn7       1.0  0.4781851885251881  0.4931841366020465  0.2148999053995198  1.0000
  Zn  Zn8       1.0  0.02181501093654959  0.9931827632110031  0.2851002784880308  1.0000
  H   H1        1.0  0.41875972033874115  0.25443032812110294  0.1116502217510345  1.0000
  H   H2        1.0  0.3773419350634624  0.09943301370675073  0.2751921300793398  1.0000
  H   H3        1.0  0.35974454302617437  0.34600923464508776  0.20315434723854514  1.0000
  H   H4        1.0  0.227097265816667  0.4212766622345612  0.22588383894910183  1.0000
  H   H5        1.0  0.09435939057356528  0.20655222002589824  0.2628834680896688  1.0000
  H   H6        1.0  0.22402424382507743  0.1300734529637211  0.23555120675336386  1.0000
  H   H7        1.0  0.6926438745701732  0.009873225379344302  0.1179562810943793  1.0000
  H   H8        1.0  0.5418274359181439  0.8960914910082068  0.9709193376529512  1.0000
  H   H9        1.0  0.6188781872319283  0.9983131639291047  0.9014880279608448  1.0000
  H   H10       1.0  0.7299772472049851  0.0070280007231105016  0.813970176994026  1.0000
  H   H11       1.0  0.9183910059659509  0.9459668599667028  0.9607252725779816  1.0000
  H   H12       1.0  0.806017529201327  0.9317328430265307  0.0493509386538591  1.0000
  H   H13       1.0  0.08124249717636187  0.7544269382940031  0.3883483421315291  1.0000
  H   H14       1.0  0.12265595677901328  0.5994323143433749  0.2248051782351581  1.0000
  H   H15       1.0  0.14025762521436036  0.8460066082926191  0.2968430511814901  1.0000
  H   H16       1.0  0.27290297233046346  0.9212746108801754  0.2741144437965701  1.0000
  H   H17       1.0  0.4056403332405338  0.7065484325953193  0.2371171987698517  1.0000
  H   H18       1.0  0.2759761509980193  0.6300702503429889  0.2644465555137288  1.0000
  H   H19       1.0  0.8073560538901459  0.5098761877975166  0.3820458298333165  1.0000
  H   H20       1.0  0.9581733845534399  0.39609329036758834  0.5290823653836441  1.0000
  H   H21       1.0  0.8811181691772914  0.49831308618890824  0.5985129972540051  1.0000
  H   H22       1.0  0.7700181137966522  0.5070284912499832  0.6860296537218391  1.0000
  H   H23       1.0  0.5816066383321041  0.4459658829145783  0.5392712906544048  1.0000
  H   H24       1.0  0.6939834320137734  0.4317320627786998  0.45064843914552455  1.0000
  H   H25       1.0  0.4187598064285466  0.24557339833900474  0.8883505317634147  1.0000
  H   H26       1.0  0.37734389147052366  0.400569560515315  0.7248054978110475  1.0000
  H   H27       1.0  0.3597424722444487  0.15399217624977982  0.796845769369952  1.0000
  H   H28       1.0  0.22709578677009998  0.07872188159885954  0.7741169936292709  1.0000
  H   H29       1.0  0.0943576680053653  0.29344814284328896  0.7371185858284619  1.0000
  H   H30       1.0  0.22402005518998888  0.3699286068441269  0.7644475966749908  1.0000
  H   H31       1.0  0.6926438072682967  0.49012451606561314  0.8820450819116702  1.0000
  H   H32       1.0  0.5418258854444032  0.603907619182216  0.029080341662847804  1.0000
  H   H33       1.0  0.6188788215412728  0.5016882534352335  0.09851131724355612  1.0000
  H   H34       1.0  0.7299747706179147  0.49297265213308356  0.18603278581565522  1.0000
  H   H35       1.0  0.9183888877296909  0.5540314892397336  0.0392767614507932  1.0000
  H   H36       1.0  0.8060185560702918  0.5682643869558108  0.9506508453096103  1.0000
  H   H37       1.0  0.0812428858002292  0.7455718004608797  0.6116513233791068  1.0000
  H   H38       1.0  0.12265808749666009  0.900569333924345  0.7751950850105729  1.0000
  H   H39       1.0  0.1402564900617165  0.6539950317853142  0.7031572512304011  1.0000
  H   H40       1.0  0.2729000667025474  0.5787240386905309  0.7258856482211513  1.0000
  H   H41       1.0  0.4056431088616037  0.7934489836966635  0.7628806607597697  1.0000
  H   H42       1.0  0.2759794207959345  0.8699278120415813  0.7355515210447408  1.0000
  H   H43       1.0  0.8073569626086721  0.9901257276179936  0.6179554515283741  1.0000
  H   H44       1.0  0.9581752521542057  0.1039084278154476  0.47092110524509684  1.0000
  H   H45       1.0  0.8811192217202402  0.0016869105823076002  0.40148777401896046  1.0000
  H   H46       1.0  0.7700211187244504  0.9929699270001252  0.31396952224982755  1.0000
  H   H47       1.0  0.5816116468396828  0.05403191020243979  0.46072578065007974  1.0000
  H   H48       1.0  0.6939824407830385  0.0682650922884775  0.5493509045354656  1.0000
  H   H49       1.0  0.5812437287410075  0.74557313118504  0.8883477634269142  1.0000
  H   H50       1.0  0.6226583646831256  0.900569274087971  0.7248043383669655  1.0000
  H   H51       1.0  0.6402563865857118  0.6539930531500532  0.7968416156320828  1.0000
  H   H52       1.0  0.7729036637979971  0.5787250398019523  0.7741136406511445  1.0000
  H   H53       1.0  0.9056427987759079  0.793450067765555  0.7371155282406223  1.0000
  H   H54       1.0  0.7759779455193934  0.8699311778582769  0.7644452616930693  1.0000
  H   H55       1.0  0.3073557953185855  0.9901273051396444  0.8820447375400917  1.0000
  H   H56       1.0  0.458172863834406  0.10391138253947932  0.029080669827493497  1.0000
  H   H57       1.0  0.38111896318570604  0.0016885381082901003  0.098509451635195  1.0000
  H   H58       1.0  0.270023682415399  0.9929719440392193  0.1860303360659614  1.0000
  H   H59       1.0  0.08160803405338161  0.05403601358184319  0.03927422932468261  1.0000
  H   H60       1.0  0.1939815108197536  0.06827003052087831  0.9506495744015524  1.0000
  H   H61       1.0  0.918759692177957  0.24557359222382755  0.6116531820821152  1.0000
  H   H62       1.0  0.877342453377558  0.40056763041897636  0.7751958403984034  1.0000
  H   H63       1.0  0.8597445641363066  0.1539945079844074  0.7031564507261552  1.0000
  H   H64       1.0  0.7270979572899917  0.07872181934115469  0.7258855636900067  1.0000
  H   H65       1.0  0.5943605963808805  0.29345092640951986  0.7628838198670068  1.0000
  H   H66       1.0  0.7240241487560367  0.36993028017641194  0.7355539575450649  1.0000
  H   H67       1.0  0.1926417264003391  0.49012668574905394  0.6179556943734498  1.0000
  H   H68       1.0  0.04182061654390169  0.6039048971227318  0.4709206755519943  1.0000
  H   H69       1.0  0.11887772151634828  0.5016868585728959  0.40148903252950424  1.0000
  H   H70       1.0  0.22997525742657388  0.49297321078659456  0.3139693425991297  1.0000
  H   H71       1.0  0.4183873627539541  0.5540352333671875  0.4607256833622486  1.0000
  H   H72       1.0  0.3060143482729742  0.5682684677429962  0.5493505571813344  1.0000
  H   H73       1.0  0.5812392335944452  0.7544288894503454  0.1116509924452487  1.0000
  H   H74       1.0  0.6226595576100138  0.5994309700061893  0.2751924873693667  1.0000
  H   H75       1.0  0.6402565677759852  0.8460065970002689  0.20315373253616542  1.0000
  H   H76       1.0  0.7729045129794159  0.9212727913552359  0.22587998039982443  1.0000
  H   H77       1.0  0.9056432616111249  0.7065500446510881  0.2628793993511209  1.0000
  H   H78       1.0  0.7759789848294146  0.6300707521634124  0.23555139965425553  1.0000
  H   H79       1.0  0.30735586262077413  0.5098748429395172  0.11795593672378153  1.0000
  H   H80       1.0  0.45817630391270103  0.396092325576987  0.9709226992804219  1.0000
  H   H81       1.0  0.3811214782159666  0.49831344859575916  0.9014912181197517  1.0000
  H   H82       1.0  0.2700230096790079  0.5070290498956637  0.8139722774267356  1.0000
  H   H83       1.0  0.08161015229718059  0.44596611249249213  0.9607262794909418  1.0000
  H   H84       1.0  0.19398237355485284  0.4317308717488261  0.0493516900598294  1.0000
  H   H85       1.0  0.9187599334182648  0.2544263870307902  0.3883486841080881  1.0000
  H   H86       1.0  0.8773447317208891  0.09943236810890002  0.22480492247365902  1.0000
  H   H87       1.0  0.8597431798248178  0.346007256005585  0.29684275624983775  1.0000
  H   H88       1.0  0.7270964538549547  0.4212747345589706  0.2741148648349139  1.0000
  H   H89       1.0  0.5943584506208949  0.20654978955450082  0.2371173244200264  1.0000
  H   H90       1.0  0.7240215088224602  0.13006978969473693  0.264447475288094  1.0000
  H   H91       1.0  0.1926439670144902  0.0098736313857017  0.3820465782612317  1.0000
  H   H92       1.0  0.04182504760072449  0.896092102703392  0.5290799133900707  1.0000
  H   H93       1.0  0.11888170790180647  0.9983101053948216  0.5985132446198662  1.0000
  H   H94       1.0  0.22997666156983598  0.007025331705250402  0.6860330131161092  1.0000
  H   H95       1.0  0.4183905425159011  0.9459639342599718  0.5392757435675151  1.0000
  H   H96       1.0  0.30601785897355416  0.9317325094451547  0.450650619678548  1.0000
  C   C1        1.0  0.4247139168453984  0.20460287594968918  0.1452877833850508  1.0000
  C   C2        1.0  0.40234753613456314  0.12591044363355766  0.22962352566655403  1.0000
  C   C3        1.0  0.2982551710758726  0.2346644566473159  0.2166638789733639  1.0000
  C   C4        1.0  0.3003374810825222  0.31630140283398595  0.21342913485762688  1.0000
  C   C5        1.0  0.2268755729197522  0.35759140995579486  0.22753914941205983  1.0000
  C   C6        1.0  0.1526112435446549  0.3183240199475676  0.24547593853321104  1.0000
  C   C7        1.0  0.1524670325061166  0.23641118135366665  0.249106045763952  1.0000
  C   C8        1.0  0.2250994064691055  0.1939496610661138  0.23455264079168356  1.0000
  C   C9        1.0  0.07374760562459667  0.363389229428165  0.26163605610171464  1.0000
  C   C10       1.0  0.6407274823290905  0.9797496702004623  0.0936740896008672  1.0000
  C   C11       1.0  0.5624003604808223  0.9214675439584569  0.0186561232916418  1.0000
  C   C12       1.0  0.7061695948119889  0.9622462449527874  0.9793944415692836  1.0000
  C   C13       1.0  0.6838904790443292  0.9837108006604324  0.9136957597774328  1.0000
  C   C14       1.0  0.7467245828971724  0.9895572804647447  0.8650613996922588  1.0000
  C   C15       1.0  0.8310252743253341  0.9752987468817126  0.8818567527173826  1.0000
  C   C16       1.0  0.8523236896492106  0.9559388149089258  0.9485681011261988  1.0000
  C   C17       1.0  0.7899821424488419  0.9486953041138196  0.9977403962005625  1.0000
  C   C18       1.0  0.8989083785309403  0.9807785461970937  0.829188404654282  1.0000
  C   C19       1.0  0.07528643787703969  0.7045978070498009  0.3547088421498614  1.0000
  C   C20       1.0  0.09765160119656709  0.6259084822132408  0.27037474918906673  1.0000
  C   C21       1.0  0.2017457973383827  0.7346600747048271  0.2833326959083351  1.0000
  C   C22       1.0  0.19966533300365796  0.8162987718794668  0.2865657857385031  1.0000
  C   C23       1.0  0.2731265890877381  0.8575876049408323  0.2724572183404135  1.0000
  C   C24       1.0  0.3473890499941561  0.8183202205934492  0.2545220121112735  1.0000
  C   C25       1.0  0.3475320453719774  0.7364085615861313  0.2508920429000838  1.0000
  C   C26       1.0  0.27490032411726856  0.6939476282224534  0.2654434971140986  1.0000
  C   C27       1.0  0.4262551831330441  0.8633825008271359  0.23836181861381084  1.0000
  C   C28       1.0  0.8592747127866714  0.47975711301718615  0.4063282407435906  1.0000
  C   C29       1.0  0.9376012361269446  0.4214736106026607  0.4813463052578086  1.0000
  C   C30       1.0  0.7938280407335726  0.4622475540333468  0.5206061388416643  1.0000
  C   C31       1.0  0.8161065150876182  0.4837107805450459  0.5863052900428443  1.0000
  C   C32       1.0  0.7532711483573209  0.48955542326544343  0.6349396402769258  1.0000
  C   C33       1.0  0.6689692048645667  0.4752981380858827  0.6181422889692669  1.0000
  C   C34       1.0  0.6476726895547598  0.45593777985230594  0.5514304676077445  1.0000
  C   C35       1.0  0.7100161302515954  0.44869493606194066  0.5022586903165092  1.0000
  C   C36       1.0  0.6010905067702195  0.4807848799751895  0.6708096166452933  1.0000
  C   C37       1.0  0.42471322989513977  0.2954014334974389  0.8547124778018186  1.0000
  C   C38       1.0  0.4023477748277385  0.37409153319561034  0.7703746634448836  1.0000
  C   C39       1.0  0.29825236378705705  0.26533815437372243  0.7833366063746114  1.0000
  C   C40       1.0  0.30033409904139324  0.18369944994744716  0.786571355125055  1.0000
  C   C41       1.0  0.22687657334681424  0.14241064852120647  0.7724621882491434  1.0000
  C   C42       1.0  0.1526109010630421  0.1816786588433672  0.7545257394385985  1.0000
  C   C43       1.0  0.1524666333968909  0.26359091174632715  0.7508966430401216  1.0000
  C   C44       1.0  0.225098404992103  0.3060518124803622  0.7654491984915738  1.0000
  C   C45       1.0  0.07374849120998309  0.13661407182195265  0.7383608961847515  1.0000
  C   C46       1.0  0.6407252323727233  0.520244122155134  0.9063273265344806  1.0000
  C   C47       1.0  0.5623989685432206  0.5785274563602841  0.9813436018096413  1.0000
  C   C48       1.0  0.7061693103485494  0.5377539602765183  0.020607120194121403  1.0000
  C   C49       1.0  0.6838891736727389  0.5162894149356347  0.0863062579824856  1.0000
  C   C50       1.0  0.7467209294507738  0.5104434916497809  0.1349412634685123  1.0000
  C   C51       1.0  0.8310240745694911  0.5247025717628446  0.11814508689102608  1.0000
  C   C52       1.0  0.8523235084324411  0.5440624938240859  0.0514342914560473  1.0000
  C   C53       1.0  0.7899811573613249  0.5513036906031914  0.0022598353457894  1.0000
  C   C54       1.0  0.8989048444601406  0.5192186405604886  0.1708145971710877  1.0000
  C   C55       1.0  0.07528880565986637  0.795400348719788  0.6452903045328072  1.0000
  C   C56       1.0  0.09765484825017977  0.8740937634463748  0.729625458414084  1.0000
  C   C57       1.0  0.20174653861247546  0.7653391937339364  0.7166667321872852  1.0000
  C   C58       1.0  0.1996635875518322  0.6837010832854704  0.7134331321477276  1.0000
  C   C59       1.0  0.2731249146613663  0.642410458767472  0.7275438853295457  1.0000
  C   C60       1.0  0.34738930608049406  0.6816766370464294  0.7454772345159456  1.0000
  C   C61       1.0  0.3475347894082361  0.76358888174412  0.7491066984712448  1.0000
  C   C62       1.0  0.27490236510108446  0.8060510204205117  0.73455407147204  1.0000
  C   C63       1.0  0.4262517401719208  0.6366090483032139  0.7616370979417368  1.0000
  C   C64       1.0  0.8592739007163247  0.0202469942161869  0.5936734930673637  1.0000
  C   C65       1.0  0.9376001331883755  0.0785298744240777  0.5186576251623833  1.0000
  C   C66       1.0  0.7938318628399725  0.0377530691149417  0.47939241587770454  1.0000
  C   C67       1.0  0.8161076020010538  0.016289246480155797  0.413693314251276  1.0000
  C   C68       1.0  0.7532752195037133  0.010444047240611104  0.3650593297669857  1.0000
  C   C69       1.0  0.668972066716776  0.0247025431612116  0.3818575046241293  1.0000
  C   C70       1.0  0.6476770315019419  0.044061154034089604  0.44856877302029824  1.0000
  C   C71       1.0  0.7100187488067886  0.051304554571082406  0.4977411946211845  1.0000
  C   C72       1.0  0.6010906699092686  0.019219933159703804  0.32918749800622044  1.0000
  C   C73       1.0  0.5752882725030446  0.7953999975992547  0.8547107073683691  1.0000
  C   C74       1.0  0.5976527636111512  0.8740918441617326  0.7703724372033707  1.0000
  C   C75       1.0  0.7017451286714331  0.7653384169037664  0.7833330950488175  1.0000
  C   C76       1.0  0.6996647082559875  0.6837026422350477  0.7865637945546669  1.0000
  C   C77       1.0  0.773127876152131  0.6424120493554497  0.7724542855785047  1.0000
  C   C78       1.0  0.847390315933964  0.6816794393607211  0.7545205299135064  1.0000
  C   C79       1.0  0.8475320075060677  0.7635922779563415  0.7508894115272113  1.0000
  C   C80       1.0  0.7748990036751521  0.8060537982451735  0.7654418053460219  1.0000
  C   C81       1.0  0.9262558434536458  0.6366165729062558  0.7383614234978851  1.0000
  C   C82       1.0  0.359272187558794  0.020250860319087804  0.9063264234572301  1.0000
  C   C83       1.0  0.4376005691397253  0.07853181504694363  0.9813443897688359  1.0000
  C   C84       1.0  0.29382818547618667  0.037755457081623006  0.020605565909342302  1.0000
  C   C85       1.0  0.3161085609760335  0.016291487130615703  0.0863042477021025  1.0000
  C   C86       1.0  0.2532763467224228  0.010445593082224  0.1349391133652631  1.0000
  C   C87       1.0  0.16897376569440323  0.0247058839370453  0.1181432547601773  1.0000
  C   C88       1.0  0.14767472050348118  0.0440658159105496  0.05143140077428401  1.0000
  C   C89       1.0  0.21001563783814695  0.05130756943501781  0.002259105700702  1.0000
  C   C90       1.0  0.1010925510911918  0.019221398564106106  0.1708131195584528  1.0000
  C   C91       1.0  0.924716381342648  0.29539920892744936  0.645291670914695  1.0000
  C   C92       1.0  0.9023499582934846  0.37409146254668  0.7296277861771188  1.0000
  C   C93       1.0  0.7982551322823142  0.26533869854364417  0.7166678171526399  1.0000
  C   C94       1.0  0.800336226482905  0.18370117288272073  0.7134347273221877  1.0000
  C   C95       1.0  0.7268768599967785  0.14241116830762476  0.7275427891469874  1.0000
  C   C96       1.0  0.6526125094934299  0.1816791384112406  0.7454790065262884  1.0000
  C   C97       1.0  0.6524695141152959  0.2635919689324098  0.7491089757364833  1.0000
  C   C98       1.0  0.7251024951023479  0.30605290229579646  0.7345575215238683  1.0000
  C   C99       1.0  0.5737451166215592  0.13661275788048502  0.761638188873043  1.0000
  C   C100      1.0  0.14072369737085924  0.5202457605286669  0.5936737890402526  1.0000
  C   C101      1.0  0.06239528443302329  0.5785257484020647  0.5186557245268946  1.0000
  C   C102      1.0  0.20616722009126684  0.5377523907303045  0.4793943742120205  1.0000
  C   C103      1.0  0.18388811586945758  0.5162885784629552  0.4136942118578731  1.0000
  C   C104      1.0  0.2467215930025901  0.5104421784716493  0.3650603671995469  1.0000
  C   C105      1.0  0.3310229066252859  0.5247041497084766  0.3818562017734308  1.0000
  C   C106      1.0  0.3523213115339273  0.5440633364277618  0.4485680231380371  1.0000
  C   C107      1.0  0.28998039030502537  0.5513038371881294  0.49774131716318243  1.0000
  C   C108      1.0  0.39890538391365027  0.5192220938748449  0.329187862944913  1.0000
  C   C109      1.0  0.5752864399947413  0.7046014400481228  0.1452895519834314  1.0000
  C   C110      1.0  0.5976531547908976  0.6259084115678563  0.2296248384623496  1.0000
  C   C111      1.0  0.7017460463670488  0.7346612046333973  0.21666289553031248  1.0000
  C   C112      1.0  0.6996636812471664  0.8162975660321125  0.2134281467811476  1.0000
  C   C113      1.0  0.7731275056022753  0.8575875389713091  0.227536808086704  1.0000
  C   C114      1.0  0.8473887688160956  0.8183218716818532  0.24546971785573393  1.0000
  C   C115      1.0  0.8475349260852951  0.7364090330186885  0.24910134213868676  1.0000
  C   C116      1.0  0.7749012648971315  0.693946960767839  0.23455182014437537  1.0000
  C   C117      1.0  0.926255587721549  0.8633876302228957  0.26162849419698386  1.0000
  C   C118      1.0  0.3592763271193959  0.479754651089799  0.0936762199854542  1.0000
  C   C119      1.0  0.437601961076922  0.4214701453749043  0.0186564056759408  1.0000
  C   C120      1.0  0.2938309894101962  0.4622453987261963  0.9793959207475426  1.0000
  C   C121      1.0  0.3161104962202331  0.483711701337441  0.9136972885333705  1.0000
  C   C122      1.0  0.2532762209798206  0.48955879613603775  0.8650637997726848  1.0000
  C   C123      1.0  0.16897496545516333  0.4752967872412981  0.8818569428964835  1.0000
  C   C124      1.0  0.1476767913290828  0.45593627942000126  0.9485702662152349  1.0000
  C   C125      1.0  0.210017882664836  0.44869332537267337  0.9977427000200692  1.0000
  C   C126      1.0  0.10109293583685289  0.48077954692725916  0.8291899604978853  1.0000
  C   C127      1.0  0.9247152732903385  0.2046001817993073  0.3547097029538122  1.0000
  C   C128      1.0  0.9023498605626298  0.1259102816158375  0.27037303234114773  1.0000
  C   C129      1.0  0.7982543910077524  0.2346613367853223  0.28333378087221217  1.0000
  C   C130      1.0  0.8003360823354908  0.31629827572078995  0.28656687533496955  1.0000
  C   C131      1.0  0.7268760149610854  0.35758831447986955  0.272457638884184  1.0000
  C   C132      1.0  0.6526116235402099  0.318322136202049  0.2545232785450295  1.0000
  C   C133      1.0  0.6524680298104214  0.23640871999062799  0.2508933090164476  1.0000
  C   C134      1.0  0.7251004541155055  0.1939477528292244  0.2654449248619102  1.0000
  C   C135      1.0  0.5737454102538848  0.3633850388901508  0.2383639206953561  1.0000
  C   C136      1.0  0.14072639903908168  0.9797517790318649  0.4063275255692887  1.0000
  C   C137      1.0  0.06239827696669659  0.9214724133665514  0.4813428878928221  1.0000
  C   C138      1.0  0.2061696966473718  0.9622439468626068  0.5206080971854521  1.0000
  C   C139      1.0  0.18389143802469474  0.9837060122254894  0.5863087155396869  1.0000
  C   C140      1.0  0.24672445039011842  0.9895506257068262  0.6349437111779183  1.0000
  C   C141      1.0  0.33102634344669457  0.9752880294874586  0.6181460418992091  1.0000
  C   C142      1.0  0.3523245279874629  0.9559346904284639  0.5514327511965931  1.0000
  C   C143      1.0  0.2899821808166934  0.948693632918769  0.5022608351694089  1.0000
  C   C144      1.0  0.3989096298486529  0.9807694679775028  0.6708135206383262  1.0000
  N   N1        1.0  0.48238699074575914  0.1493437300685727  0.14118160278518843  1.0000
  N   N2        1.0  0.46803244742699224  0.10010025939683233  0.19522925963255497  1.0000
  N   N3        1.0  0.3722700966620919  0.19168630151457927  0.1993571070305578  1.0000
  N   N4        1.0  0.517256057549453  0.9259737200248708  0.074388281081518  1.0000
  N   N5        1.0  0.567198217746565  0.9630713991400203  0.1214665663840293  1.0000
  N   N6        1.0  0.6406820259277595  0.9543677241670705  0.0284218959556952  1.0000
  N   N7        1.0  0.017613393708806793  0.6493421933385477  0.3588161270103569  1.0000
  N   N8        1.0  0.03196544405668081  0.6000988371781732  0.3047680475582554  1.0000
  N   N9        1.0  0.12772900527921385  0.6916848439898119  0.3006410569932711  1.0000
  N   N10       1.0  0.9827474262336794  0.4259845766825521  0.4256156566022966  1.0000
  N   N11       1.0  0.9328058759428686  0.46308238459955225  0.3785373087913158  1.0000
  N   N12       1.0  0.8593182932454084  0.454370334595211  0.4715794660061902  1.0000
  N   N13       1.0  0.4823869181340185  0.3506593810288052  0.8588177755931028  1.0000
  N   N14       1.0  0.4680334210826159  0.39990168686658484  0.8047695812276956  1.0000
  N   N15       1.0  0.3722692157179636  0.30831568930845077  0.8006430374524527  1.0000
  N   N16       1.0  0.5172532155132074  0.5740166152422788  0.9256143770186968  1.0000
  N   N17       1.0  0.5671952328087428  0.5369200844021125  0.8785356972772149  1.0000
  N   N18       1.0  0.6406806179096945  0.545629582751616  0.9715790145000939  1.0000
  N   N19       1.0  0.01761445781856  0.8506595038109169  0.6411818801727023  1.0000
  N   N20       1.0  0.0319672985094499  0.8999028532926943  0.6952299915639558  1.0000
  N   N21       1.0  0.12773092328819044  0.8083156304040389  0.6993587119661201  1.0000
  N   N22       1.0  0.9827465185124568  0.07401888733750181  0.5743873631312297  1.0000
  N   N23       1.0  0.9328026315757396  0.03692285993157899  0.6214650942245541  1.0000
  N   N24       1.0  0.8593197612521235  0.045630843834409504  0.5284207511776273  1.0000
  N   N25       1.0  0.5176164583341458  0.8506591434806483  0.8588163823932508  1.0000
  N   N26       1.0  0.5319691120545613  0.8999020283959  0.8047687255442781  1.0000
  N   N27       1.0  0.6277302030860807  0.8083165720359418  0.8006403725680045  1.0000
  N   N28       1.0  0.4827448720724377  0.07402388170918069  0.9256127375568184  1.0000
  N   N29       1.0  0.432802711874288  0.036926788351529204  0.8785339466774361  1.0000
  N   N30       1.0  0.35931701409204914  0.045633392110687516  0.9715776059484471  1.0000
  N   N31       1.0  0.9823894255124015  0.35065892293550155  0.6411859027798741  1.0000
  N   N32       1.0  0.9680348556989669  0.3999022790970201  0.6952334766528026  1.0000
  N   N33       1.0  0.8722712944755527  0.30831627228595704  0.6993599616413988  1.0000
  N   N34       1.0  0.0172497241946061  0.5740165395911137  0.57438788991076  1.0000
  N   N35       1.0  0.06719379394859712  0.5369210747018016  0.6214657321461843  1.0000
  N   N36       1.0  0.14067822731384172  0.5456284386531537  0.5284220582026294  1.0000
  N   N37       1.0  0.517610862157184  0.649344078274119  0.14118425418954672  1.0000
  N   N38       1.0  0.5319668786728754  0.6001000151655448  0.1952319429828648  1.0000
  N   N39       1.0  0.6277310840355312  0.6916836696976604  0.199356970030955  1.0000
  N   N40       1.0  0.4827489738490556  0.4259804007294506  0.0743911918089211  1.0000
  N   N41       1.0  0.4328050669489655  0.4630798603580999  0.12146683808757791  1.0000
  N   N42       1.0  0.3593209415819557  0.4543709477640903  0.028424532018362897  1.0000
  N   N43       1.0  0.9823908808565277  0.1493427839832009  0.3588140827028283  1.0000
  N   N44       1.0  0.9680367804331379  0.10010002025864402  0.3047659713096849  1.0000
  N   N45       1.0  0.8722706361967737  0.19168372860234945  0.3006407899423138  1.0000
  N   N46       1.0  0.0172525215086949  0.9259804716689077  0.42561264435077123  1.0000
  N   N47       1.0  0.06719514871291207  0.9630770848320511  0.3785349132555496  1.0000
  N   N48       1.0  0.14068053850137122  0.9543685151717014  0.4715792563057804  1.0000
  O   O1        1.0  0.004840897808648498  0.3290533379158517  0.2687211556932212  1.0000
  O   O2        1.0  0.08429407445275668  0.4387450920491744  0.26737277948910804  1.0000
  O   O3        1.0  0.8733275132902063  0.997116553101037  0.7678948104725265  1.0000
  O   O4        1.0  0.9743021288291587  0.9698406724633911  0.8444205028164334  1.0000
  O   O5        1.0  0.49516190942074445  0.8290448358683947  0.23127526015014868  1.0000
  O   O6        1.0  0.4157099334963447  0.9387395527304535  0.23262699055878497  1.0000
  O   O7        1.0  0.6266745125525472  0.4971186372392681  0.7321031833048295  1.0000
  O   O8        1.0  0.5256923532979555  0.46984766123379973  0.6555800647897244  1.0000
  O   O9        1.0  0.0048436300084659985  0.1709505811549761  0.7312756432535821  1.0000
  O   O10       1.0  0.08429246127096231  0.06125879005146122  0.7326236906872481  1.0000
  O   O11       1.0  0.8733210507133717  0.5028894319140561  0.23210863999229758  1.0000
  O   O12       1.0  0.974300425781685  0.5301500358841837  0.1555831723699086  1.0000
  O   O13       1.0  0.49515847249374173  0.6709408236335648  0.7687192595642216  1.0000
  O   O14       1.0  0.4157002522586381  0.5612514155502808  0.7673729136762475  1.0000
  O   O15       1.0  0.6266769919063646  0.0028908500461284005  0.2678934827021848  1.0000
  O   O16       1.0  0.5256963424353458  0.030153672442928308  0.3444173876584529  1.0000
  O   O17       1.0  0.9951619214062999  0.6709548074441685  0.7312783462092086  1.0000
  O   O18       1.0  0.9157118940942367  0.5612618817956873  0.7326272279941932  1.0000
  O   O19       1.0  0.12667782539044484  0.0028845631758188  0.23210418586225498  1.0000
  O   O20       1.0  0.025697541061667595  0.030158686540602303  0.15558152697177266  1.0000
  O   O21       1.0  0.504839650058166  0.1709510086009658  0.7687201971502304  1.0000
  O   O22       1.0  0.5842922558568586  0.06125863476079728  0.7673735225040801  1.0000
  O   O23       1.0  0.3733207482662734  0.5028906796374883  0.2678953074354524  1.0000
  O   O24       1.0  0.4743010179268694  0.53015462655857  0.3444199426835013  1.0000
  O   O25       1.0  0.9951617086543718  0.8290517066470784  0.2687132415526889  1.0000
  O   O26       1.0  0.9157090981929414  0.9387440835095335  0.2673641829615718  1.0000
  O   O27       1.0  0.12667735944710046  0.49711227011624  0.7678949065216616  1.0000
  O   O28       1.0  0.0256986142460605  0.46984756584747334  0.844420374148207  1.0000
  O   O29       1.0  0.5048393077991803  0.32904974901808265  0.23128175907653772  1.0000
  O   O30       1.0  0.584291859236366  0.43874150013152763  0.2326270938034796  1.0000
  O   O31       1.0  0.37332519744872866  0.9971003083619931  0.7321070303666063  1.0000
  O   O32       1.0  0.47430332745290826  0.9698357286966867  0.6555816086798885  1.0000
