data_image0
_chemical_formula_structural       Cu6H16C24I6N4
_chemical_formula_sum              "Cu6 H16 C24 I6 N4"
_cell_length_a       4.081397836613571
_cell_length_b       13.16909734353173
_cell_length_c       15.644436233360539
_cell_angle_alpha    112.82496342006674
_cell_angle_beta     92.4598225728892
_cell_angle_gamma    97.49405131433012

_space_group_name_H-M_alt    "P 1"
_space_group_IT_number       1

loop_
  _space_group_symop_operation_xyz
  'x, y, z'

loop_
  _atom_site_type_symbol
  _atom_site_label
  _atom_site_symmetry_multiplicity
  _atom_site_fract_x
  _atom_site_fract_y
  _atom_site_fract_z
  _atom_site_occupancy
  Cu  Cu1       1.0  0.9442777042602799  0.9300637663746658  0.406239078419631  1.0000
  Cu  Cu2       1.0  0.05572937197273121  0.0699382277789837  0.5937599955072697  1.0000
  Cu  Cu3       1.0  0.47923118675669224  0.0326671928068123  0.3609587365707084  1.0000
  Cu  Cu4       1.0  0.5207799633235624  0.9673331213231223  0.6390398260219212  1.0000
  Cu  Cu5       1.0  0.9865539819867237  0.18994727558995816  0.20193419189793357  1.0000
  Cu  Cu6       1.0  0.013453486694388055  0.8100505470499897  0.7980628605270182  1.0000
  H   H1        1.0  0.05703283928511381  0.3848193143504944  0.4066445124853785  1.0000
  H   H2        1.0  0.9429635511844339  0.6151759867342292  0.5933554086743624  1.0000
  H   H3        1.0  0.3803187808514394  0.5792550833960065  0.47628703078211737  1.0000
  H   H4        1.0  0.6196596561575306  0.4207435929980223  0.523714443757882  1.0000
  H   H5        1.0  0.6986833694135511  0.6527846969132797  0.37334660601662506  1.0000
  H   H6        1.0  0.3012909869501287  0.3472156528626017  0.6266560167966373  1.0000
  H   H7        1.0  0.8590895809557039  0.6201912340560227  0.21230548752230047  1.0000
  H   H8        1.0  0.14089172541172698  0.3798082780398602  0.7876956588594836  1.0000
  H   H9        1.0  0.8046286339686476  0.49896689157807844  0.04388823856166377  1.0000
  H   H10       1.0  0.1953792271128023  0.5010367317962549  0.956115221447092  1.0000
  H   H11       1.0  0.5506670052582976  0.3172758855845359  0.9095242627544449  1.0000
  H   H12       1.0  0.44935228569448077  0.6827260479801397  0.09047812865150463  1.0000
  H   H13       1.0  0.17520868360593062  0.13386283215113084  0.8576210807256144  1.0000
  H   H14       1.0  0.8248098224984021  0.8661374721928682  0.14237692459848014  1.0000
  H   H15       1.0  0.9028911455174439  0.07867992835329571  0.9762275578429109  1.0000
  H   H16       1.0  0.09711226291255333  0.9213195875940915  0.023768732038334604  1.0000
  C   C1        1.0  0.1921583622975476  0.4203822390627537  0.36335701356701117  1.0000
  C   C2        1.0  0.8078290480426844  0.5796147463556878  0.636644002752355  1.0000
  C   C3        1.0  0.37550772210498456  0.5286646750447446  0.4020470854752815  1.0000
  C   C4        1.0  0.6244723390092161  0.4713323268014946  0.5979538511736279  1.0000
  C   C5        1.0  0.5503402695201772  0.5696828966946583  0.34523405545366603  1.0000
  C   C6        1.0  0.4496361441612892  0.43031663299495204  0.6547664008754879  1.0000
  C   C7        1.0  0.5334200915444001  0.5025091794821535  0.24911524076345865  1.0000
  C   C8        1.0  0.4665755208508812  0.4974894851477957  0.7508838719183115  1.0000
  C   C9        1.0  0.7041665489566782  0.5381018760852286  0.18499600615291456  1.0000
  C   C10       1.0  0.295828230979879  0.46190009895504164  0.8150073935628156  1.0000
  C   C11       1.0  0.6744560175214502  0.4709840463860148  0.09214317813366797  1.0000
  C   C12       1.0  0.32555223600810734  0.5290154054746099  0.9078582603731318  1.0000
  C   C13       1.0  0.470275882846984  0.3634437944782932  0.055494480700538425  1.0000
  C   C14       1.0  0.5297270583801535  0.6365548337982718  0.9445066224686652  1.0000
  C   C15       1.0  0.4243490115803183  0.292120540103042  0.9599125462058635  1.0000
  C   C16       1.0  0.5756682560449562  0.7078822467572151  0.040088826989240524  1.0000
  C   C17       1.0  0.21849278764736368  0.1902253347126504  0.9309502326390839  1.0000
  C   C18       1.0  0.7815241011498061  0.8097766508209929  0.06904767363711531  1.0000
  C   C19       1.0  0.06530290587519257  0.15886112312404066  0.9976214593338566  1.0000
  C   C20       1.0  0.9347070465143333  0.8411417133733251  0.0023766494958437413  1.0000
  C   C21       1.0  0.3021625050614247  0.32538751898975704  0.11768034465733018  1.0000
  C   C22       1.0  0.6978388460507787  0.674612817043901  0.8823181117080167  1.0000
  C   C23       1.0  0.33578807173343245  0.39532391933066435  0.21559445908371794  1.0000
  C   C24       1.0  0.6642042448888787  0.6046730617777811  0.7844059734102939  1.0000
  I   I1        1.0  0.04264126513785271  0.14851115081147273  0.4600366855970106  1.0000
  I   I2        1.0  0.9573654050748248  0.8514900154481142  0.5399614691669469  1.0000
  I   I3        1.0  0.37988877644855273  0.817832208258416  0.30040222262169175  1.0000
  I   I4        1.0  0.6201125610675362  0.1821681144915246  0.6995975076216394  1.0000
  I   I5        1.0  0.4566934103336565  0.0778750675714335  0.21125935622394104  1.0000
  I   I6        1.0  0.5433099777021652  0.9221244284503739  0.7887388444742667  1.0000
  N   N1        1.0  0.10502814626067898  0.2238918017416083  0.08859071081494108  1.0000
  N   N2        1.0  0.8949760742099856  0.776109369993911  0.9114074173921974  1.0000
  N   N3        1.0  0.17174255620455633  0.3544976529136791  0.2727068455117276  1.0000
  N   N4        1.0  0.8282522237558825  0.6454993360025513  0.7272923396611259  1.0000
