data_image0
_chemical_formula_structural       Cu4H20C30N2O16
_chemical_formula_sum              "Cu4 H20 C30 N2 O16"
_cell_length_a       8.189173882864916
_cell_length_b       10.089913532141516
_cell_length_c       10.838239682912322
_cell_angle_alpha    63.02084608494176
_cell_angle_beta     72.91306480595193
_cell_angle_gamma    75.34897409698569

_space_group_name_H-M_alt    "P 1"
_space_group_IT_number       1

loop_
  _space_group_symop_operation_xyz
  'x, y, z'

loop_
  _atom_site_type_symbol
  _atom_site_label
  _atom_site_symmetry_multiplicity
  _atom_site_fract_x
  _atom_site_fract_y
  _atom_site_fract_z
  _atom_site_occupancy
  Cu  Cu1       1.0  0.005602179983704026  0.6372382170115072  0.8555177255968542  1.0000
  Cu  Cu2       1.0  0.994403664356291  0.3627614274036047  0.1444833875315865  1.0000
  Cu  Cu3       1.0  0.1828350246068524  0.3063341250044543  0.843407941289115  1.0000
  Cu  Cu4       1.0  0.8171624556511787  0.6936610874960321  0.1565886518625632  1.0000
  H   H1        1.0  0.04660808054227063  0.8996124347398006  0.42951730490478474  1.0000
  H   H2        1.0  0.9533900173695073  0.10037940319234197  0.5704888787925384  1.0000
  H   H3        1.0  0.2551574555024915  0.8579360637133104  0.0315950658457568  1.0000
  H   H4        1.0  0.744849289585531  0.1420658207697727  0.968402126067154  1.0000
  H   H5        1.0  0.2300189194654578  0.4628064344784804  0.4237831303793484  1.0000
  H   H6        1.0  0.76996455763517  0.5371967212362705  0.5762123776598072  1.0000
  H   H7        1.0  0.4331514100703729  0.3822171225207994  0.11027652006137587  1.0000
  H   H8        1.0  0.5668401736764395  0.6177837343269276  0.889725490918515  1.0000
  H   H9        1.0  0.37562773734357796  0.35969440619017934  0.28869330183574243  1.0000
  H   H10       1.0  0.624370355798746  0.6403052901018497  0.7113031002847591  1.0000
  H   H11       1.0  0.16674370209408815  0.018997975728382195  0.8498225881879832  1.0000
  H   H12       1.0  0.8332602796597612  0.9810050496327984  0.15017198403040782  1.0000
  H   H13       1.0  0.28156794695309634  0.8817625104222414  0.6963470906061103  1.0000
  H   H14       1.0  0.7184290733490073  0.11823606902466818  0.3036527969399572  1.0000
  H   H15       1.0  0.630134022961549  0.2146017149860952  0.4395785562408746  1.0000
  H   H16       1.0  0.3698665972024103  0.7854069397891832  0.5604190159459816  1.0000
  H   H17       1.0  0.49762956226344096  0.3356405659579379  0.606352407945046  1.0000
  H   H18       1.0  0.5023682317510206  0.6643613746020873  0.3936468040069486  1.0000
  H   H19       1.0  0.883445071471364  0.4073246503323346  0.9330563187349196  1.0000
  H   H20       1.0  0.11655842130362264  0.5926738852486577  0.06694856839609298  1.0000
  C   C1        1.0  0.13488102970178767  0.6742313191292623  0.440688698379006  1.0000
  C   C2        1.0  0.8651085016078853  0.3257661846163273  0.5593142767719639  1.0000
  C   C3        1.0  0.10284981961023484  0.8305576063945918  0.3699818325466638  1.0000
  C   C4        1.0  0.8971474065764581  0.16943984819620536  0.6300212518479424  1.0000
  C   C5        1.0  0.14743701572208334  0.8972391904737829  0.22176919961077615  1.0000
  C   C6        1.0  0.852579563428712  0.1027570207292783  0.7782299919186143  1.0000
  C   C7        1.0  0.21791416660136065  0.8074777939094131  0.14632120459111775  1.0000
  C   C8        1.0  0.7820929451993025  0.1925218430391382  0.8536786996074495  1.0000
  C   C9        1.0  0.24469499372660414  0.6515727898829479  0.21779862840882208  1.0000
  C   C10       1.0  0.7553101622446263  0.3484313474235492  0.7822007415597411  1.0000
  C   C11       1.0  0.2072337969052214  0.5840058644297128  0.36517112665588064  1.0000
  C   C12       1.0  0.7927559580478346  0.4159983717308079  0.634827104472535  1.0000
  C   C13       1.0  0.0990464454337499  0.5989677661278634  0.5991903949642604  1.0000
  C   C14       1.0  0.9009432467039815  0.40102861493930664  0.40081209562382003  1.0000
  C   C15       1.0  0.1189003441073595  0.0648082970675432  0.14042147139598873  1.0000
  C   C16       1.0  0.8811035748311583  0.935186873200287  0.8595773602820599  1.0000
  C   C17       1.0  0.4224306376333402  0.4379590917516225  0.17952264624437217  1.0000
  C   C18       1.0  0.5775662105765775  0.5620406109181318  0.8204768055117169  1.0000
  C   C19       1.0  0.6000267469915741  0.47504797363641393  0.16418133731740872  1.0000
  C   C20       1.0  0.3999657487673928  0.5249551227348518  0.8358176727998053  1.0000
  C   C21       1.0  0.26892625570455664  0.05791824963083769  0.7569259982000104  1.0000
  C   C22       1.0  0.7310813836368125  0.942078017104755  0.24307613372133136  1.0000
  C   C23       1.0  0.3339665307641154  0.9829407548432699  0.6686934650781279  1.0000
  C   C24       1.0  0.6660466352455856  0.017053230136127695  0.3313139062322534  1.0000
  C   C25       1.0  0.46533097058319584  0.037327934649404385  0.5494030435941608  1.0000
  C   C26       1.0  0.5346851421169986  0.9626637856846254  0.4506083035535725  1.0000
  C   C27       1.0  0.5273584099373139  0.1655081249357693  0.5287596536729706  1.0000
  C   C28       1.0  0.4726470789541679  0.8344937664694567  0.471239667522674  1.0000
  C   C29       1.0  0.4539004685363679  0.23501369263811966  0.6214019731256427  1.0000
  C   C30       1.0  0.5461008287322288  0.7649904697901986  0.378596421868238  1.0000
  N   N1        1.0  0.32510940108022623  0.1831214805690351  0.7335171467117049  1.0000
  N   N2        1.0  0.6748936911897303  0.816879304179757  0.26648226707507666  1.0000
  O   O1        1.0  0.0630064218108686  0.14434475111573158  0.21150551920347024  1.0000
  O   O2        1.0  0.9369953401830953  0.8556481860062772  0.7884993629728426  1.0000
  O   O3        1.0  0.1511290671938426  0.1109960162409109  0.006140211658689094  1.0000
  O   O4        1.0  0.8488809800331794  0.8890013566066981  0.9938627480243697  1.0000
  O   O5        1.0  0.7128897588693447  0.3602407540750931  0.20319584006197297  1.0000
  O   O6        1.0  0.28710716342002474  0.6397668031435867  0.7968002725873119  1.0000
  O   O7        1.0  0.618925573584228  0.6115087414216586  0.11391905604786268  1.0000
  O   O8        1.0  0.3810627305518466  0.3884966259726922  0.8860790278675948  1.0000
  O   O9        1.0  0.18620919705607267  0.4701167944532329  0.6512825516389568  1.0000
  O   O10       1.0  0.8137710806877435  0.5298740367653421  0.34872074510363393  1.0000
  O   O11       1.0  0.9882792518770672  0.6698491445122698  0.6666409658202779  1.0000
  O   O12       1.0  0.011719537767909608  0.3301471734004621  0.3333714693158853  1.0000
  O   O13       1.0  0.9974578311761206  0.4149583168181366  0.9425376359318205  1.0000
  O   O14       1.0  0.0025505385462949197  0.5850570293836057  0.057441496183244546  1.0000
  O   O15       1.0  0.2998978136805377  0.5716453735586526  0.13450570349748153  1.0000
  O   O16       1.0  0.7001062243939629  0.4283576490804108  0.8654934704852052  1.0000
