data_image0
_chemical_formula_structural       Ag12H20C32S4O32
_chemical_formula_sum              "Ag12 H20 C32 S4 O32"
_cell_length_a       7.067607102002721
_cell_length_b       12.250120205497419
_cell_length_c       13.47181348768692
_cell_angle_alpha    107.54441947873879
_cell_angle_beta     89.99993473986535
_cell_angle_gamma    90.00009422715925

_space_group_name_H-M_alt    "P 1"
_space_group_IT_number       1

loop_
  _space_group_symop_operation_xyz
  'x, y, z'

loop_
  _atom_site_type_symbol
  _atom_site_label
  _atom_site_symmetry_multiplicity
  _atom_site_fract_x
  _atom_site_fract_y
  _atom_site_fract_z
  _atom_site_occupancy
  Ag  Ag1       1.0  0.6650682571056094  0.7228715545311953  0.8025811436586991  1.0000
  Ag  Ag2       1.0  0.165069503146654  0.777128180483224  0.1974188574585938  1.0000
  Ag  Ag3       1.0  0.3349353265667859  0.27712759613147137  0.19741922605957285  1.0000
  Ag  Ag4       1.0  0.834932665621487  0.2228718333787043  0.8025810127487959  1.0000
  Ag  Ag5       1.0  0.18751488551852452  0.5061813967974159  0.4667218572686808  1.0000
  Ag  Ag6       1.0  0.6875150136743002  0.9938183565195258  0.5332781356238459  1.0000
  Ag  Ag7       1.0  0.8124872832478333  0.4938177538646754  0.5332785124498471  1.0000
  Ag  Ag8       1.0  0.3124857401905672  0.006183376655620501  0.4667214758843627  1.0000
  Ag  Ag9       1.0  0.5826050598364318  0.9037104701734507  0.7154807840436634  1.0000
  Ag  Ag10      1.0  0.08260276257717442  0.5962891975990559  0.28451924729072436  1.0000
  Ag  Ag11      1.0  0.41739710892991877  0.09628868048863382  0.2845195856748646  1.0000
  Ag  Ag12      1.0  0.9173965763798575  0.40371167237567107  0.7154808637288783  1.0000
  H   H1        1.0  0.555927003287259  0.7530288135387693  0.5204977183064443  1.0000
  H   H2        1.0  0.0559261271421647  0.7469725376230585  0.4795035447493775  1.0000
  H   H3        1.0  0.4440737505749865  0.24697204935065287  0.4795031330357347  1.0000
  H   H4        1.0  0.9440746267191071  0.2530274691523998  0.5204970657811147  1.0000
  H   H5        1.0  0.38896939362219035  0.7278377786492808  0.5888186019959178  1.0000
  H   H6        1.0  0.8889691504495332  0.7721629879615148  0.4111822982135608  1.0000
  H   H7        1.0  0.6110299453340176  0.27216308423955843  0.411182249346524  1.0000
  H   H8        1.0  0.1110301885066747  0.22783787492732435  0.5888185531288812  1.0000
  H   H9        1.0  0.7833718679023534  0.2194024863419273  0.9859474523471903  1.0000
  H   H10       1.0  0.28337352713484876  0.2805960520971098  0.014051824219912124  1.0000
  H   H11       1.0  0.21662888596072344  0.7805983836333822  0.01405265867215636  1.0000
  H   H12       1.0  0.7166258118203856  0.7194039546777733  0.9859487863108356  1.0000
  H   H13       1.0  0.9070258480447677  0.34459206643194296  0.1530888398925399  1.0000
  H   H14       1.0  0.40702814448357566  0.15540743603461485  0.8469098918535992  1.0000
  H   H15       1.0  0.0929734909094933  0.6554070842289901  0.846911529826514  1.0000
  H   H16       1.0  0.5929726093786769  0.8445934268548072  0.15309095948858711  1.0000
  H   H17       1.0  0.8080625592378325  0.9326867324828995  0.10693373026391131  1.0000
  H   H18       1.0  0.30806591482129864  0.5673131262157795  0.8930654781336997  1.0000
  H   H19       1.0  0.19193536481466109  0.0673133026349504  0.8930639189757488  1.0000
  H   H20       1.0  0.6919362539453501  0.4326877225024432  0.10693685385389533  1.0000
  C   C1        1.0  0.7140383905963716  0.9863717389126734  0.9344288528252422  1.0000
  C   C2        1.0  0.21403916597118663  0.5136280431176772  0.06557039002549912  1.0000
  C   C3        1.0  0.2859623632683537  0.013629145234403896  0.0655697775484327  1.0000
  C   C4        1.0  0.7859615878882948  0.4863711004579512  0.934430720016124  1.0000
  C   C5        1.0  0.7810833747886861  0.0672239204888214  0.035878166358280304  1.0000
  C   C6        1.0  0.2810847991996894  0.4327763212261004  0.9641223329936538  1.0000
  C   C7        1.0  0.21891596416737258  0.9327760933719491  0.9641217038496279  1.0000
  C   C8        1.0  0.7189159546643608  0.5672254048631585  0.03587801883738713  1.0000
  C   C9        1.0  0.8104725413704159  0.1836887307685373  0.04945424659102572  1.0000
  C   C10       1.0  0.3104736594695368  0.31631155616783957  0.9505440210235818  1.0000
  C   C11       1.0  0.1895282124934781  0.8163121462926524  0.9505451241054886  1.0000
  C   C12       1.0  0.6895270943935329  0.6836893138074699  0.04945608999577196  1.0000
  C   C13       1.0  0.8760449459662067  0.2551132186323457  0.14419213329720296  1.0000
  C   C14       1.0  0.37604748111651526  0.2448862656583727  0.8558058694781819  1.0000
  C   C15       1.0  0.1239543929898517  0.7448867952284244  0.8558077369107054  1.0000
  C   C16       1.0  0.6239532727473786  0.755114611402817  0.14419350121833222  1.0000
  C   C17       1.0  0.9024073220545858  0.2141060048375749  0.22981100051754308  1.0000
  C   C18       1.0  0.4024087489173169  0.2858934938626802  0.7701877329210876  1.0000
  C   C19       1.0  0.09759060199543508  0.7858940090226199  0.7701888696906283  1.0000
  C   C20       1.0  0.5975905900397152  0.7141073761120469  0.2298123780985223  1.0000
  C   C21       1.0  0.8745589877802048  0.09678767141575412  0.21545443084654184  1.0000
  C   C22       1.0  0.37456213661166515  0.40321181166356707  0.7845435724732185  1.0000
  C   C23       1.0  0.12543752136362227  0.9032114934157959  0.7845444582273587  1.0000
  C   C24       1.0  0.625438617249607  0.5967881951118982  0.21545703805726651  1.0000
  C   C25       1.0  0.8194583030481083  0.024094427415029394  0.1188349423841544  1.0000
  C   C26       1.0  0.31946144925773706  0.47590585267739255  0.8811648025831574  1.0000
  C   C27       1.0  0.18053962100191256  0.9759055864451726  0.881164927824017  1.0000
  C   C28       1.0  0.6805407195115264  0.5240958663265544  0.11883628957046714  1.0000
  C   C29       1.0  0.9548126250977518  0.30038917949133287  0.33124189328833614  1.0000
  C   C30       1.0  0.4548140259358036  0.19961206708220658  0.6687580428939982  1.0000
  C   C31       1.0  0.04518529895241131  0.699611683396931  0.6687589580543617  1.0000
  C   C32       1.0  0.5451838981151836  0.8003888028919449  0.3312420681258673  1.0000
  S   S1        1.0  0.9128263346058815  0.03495589444172249  0.31804336620048457  1.0000
  S   S2        1.0  0.41282988747719424  0.4650436127550605  0.6819553634199879  1.0000
  S   S3        1.0  0.08717158944480728  0.9650432774762906  0.6819547825503209  1.0000
  S   S4        1.0  0.5871722812910959  0.5349572501349372  0.31804548792193543  1.0000
  O   O1        1.0  0.6972051060945219  0.8822218935239404  0.9316961424147367  1.0000
  O   O2        1.0  0.19720759098477458  0.6177770186672972  0.06830286579210562  1.0000
  O   O3        1.0  0.3027956477674394  0.11777727130934319  0.06830274665838232  1.0000
  O   O4        1.0  0.8027931628764975  0.3822229881081681  0.9316977447383865  1.0000
  O   O5        1.0  0.6782852432509473  0.027743783308146395  0.8597946445188782  1.0000
  O   O6        1.0  0.17828434849801772  0.47225553264208736  0.1402041710437487  1.0000
  O   O7        1.0  0.3217155106111561  0.9722562305532066  0.14020522568876717  1.0000
  O   O8        1.0  0.8217135755510298  0.5277436251041577  0.8597954583527212  1.0000
  O   O9        1.0  0.10061129795051467  0.3608671589091016  0.32907445564460863  1.0000
  O   O10       1.0  0.6006115145963234  0.13913553233386006  0.670923870980481  1.0000
  O   O11       1.0  0.8993880410073417  0.6391337181515125  0.6709249150521615  1.0000
  O   O12       1.0  0.3993864094546637  0.8608653376402912  0.32907624003938457  1.0000
  O   O13       1.0  0.8485729205251148  0.3124919052376852  0.41026373828081125  1.0000
  O   O14       1.0  0.3485716303633311  0.18750667219329392  0.5897369950413137  1.0000
  O   O15       1.0  0.15142641842929552  0.6875080944513171  0.589737612572776  1.0000
  O   O16       1.0  0.6514248787788476  0.8124924784664812  0.41026337467825164  1.0000
  O   O17       1.0  0.7379792853179338  0.05856283289737969  0.3808621610991737  1.0000
  O   O18       1.0  0.237984323079985  0.44143484075952694  0.6191339299971759  1.0000
  O   O19       1.0  0.2620186387298489  0.9414337706787775  0.6191352652165352  1.0000
  O   O20       1.0  0.7620178456910764  0.5585677414442571  0.3808666626453104  1.0000
  O   O21       1.0  0.07881989208797077  0.09375182089214458  0.3767269951861749  1.0000
  O   O22       1.0  0.5788252292279381  0.40624827007057  0.6232720976334464  1.0000
  O   O23       1.0  0.9211766170566803  0.9062473510252997  0.6232711535648862  1.0000
  O   O24       1.0  0.42117552463334107  0.5937517367048953  0.37672851289703874  1.0000
  O   O25       1.0  0.9402428746340235  0.9118469153039186  0.2680141821382521  1.0000
  O   O26       1.0  0.44024239982969243  0.5881530511729876  0.7319849778261017  1.0000
  O   O27       1.0  0.059757879228605794  0.08815140758718337  0.7319829854775011  1.0000
  O   O28       1.0  0.5597597689377808  0.4118478046311225  0.2680166138386611  1.0000
  O   O29       1.0  0.5271378207271198  0.7430729130878289  0.5886537856453984  1.0000
  O   O30       1.0  0.0271371231767645  0.7569267094573604  0.41134626601319024  1.0000
  O   O31       1.0  0.47286151822811456  0.25692709368706085  0.4113468248853493  1.0000
  O   O32       1.0  0.9728622157784698  0.24307329731752253  0.5886543445175505  1.0000
