data_image0
_chemical_formula_structural       Ag4H8C12N20O24
_chemical_formula_sum              "Ag4 H8 C12 N20 O24"
_cell_length_a       5.352456054043875
_cell_length_b       10.535069014426723
_cell_length_c       15.125582653417037
_cell_angle_alpha    99.94238765016756
_cell_angle_beta     89.99984650565241
_cell_angle_gamma    89.99959537404578

_space_group_name_H-M_alt    "P 1"
_space_group_IT_number       1

loop_
  _space_group_symop_operation_xyz
  'x, y, z'

loop_
  _atom_site_type_symbol
  _atom_site_label
  _atom_site_symmetry_multiplicity
  _atom_site_fract_x
  _atom_site_fract_y
  _atom_site_fract_z
  _atom_site_occupancy
  Ag  Ag1       1.0  0.3485230722926502  0.8307054754380163  0.2314499580682252  1.0000
  Ag  Ag2       1.0  0.8485222847569742  0.16928708350600633  0.2685511975244879  1.0000
  Ag  Ag3       1.0  0.6514743916963327  0.1692909427128413  0.7685510506548708  1.0000
  Ag  Ag4       1.0  0.1514751792560887  0.830707448507063  0.7314469258960443  1.0000
  H   H1        1.0  0.6795164720720307  0.9526751775202841  0.12559376424287902  1.0000
  H   H2        1.0  0.17952517562956416  0.047326720720953105  0.3744087372428098  1.0000
  H   H3        1.0  0.32048286018952155  0.04732509514120411  0.8744077362223094  1.0000
  H   H4        1.0  0.8204760249404971  0.9526735827763703  0.6255907836479153  1.0000
  H   H5        1.0  0.45633536228162086  0.0486031182064792  0.15813639678069077  1.0000
  H   H6        1.0  0.9563474494511937  0.951393802742153  0.3418672002886963  1.0000
  H   H7        1.0  0.543658365076368  0.9513971544660578  0.8418651036884625  1.0000
  H   H8        1.0  0.0436574877210703  0.04860550627969928  0.6581341772366686  1.0000
  C   C1        1.0  0.35447126829829756  0.5349591626664465  0.4045693261208712  1.0000
  C   C2        1.0  0.8544770355530673  0.4650420557386  0.0954322676037549  1.0000
  C   C3        1.0  0.6455318005609172  0.4650420838960869  0.595431637419807  1.0000
  C   C4        1.0  0.1455372430965127  0.5349611077791393  0.9045696016584016  1.0000
  C   C5        1.0  0.38163173860634453  0.6687179037252946  0.3951433111350156  1.0000
  C   C6        1.0  0.8816318173907404  0.3312803577881739  0.10485523586969951  1.0000
  C   C7        1.0  0.6183619887422154  0.33128431676408354  0.6048571154904181  1.0000
  C   C8        1.0  0.11837872467321378  0.668720888759623  0.8951457276656852  1.0000
  C   C9        1.0  0.4808655787829537  0.7738745385320418  0.46019273252012743  1.0000
  C   C10       1.0  0.9808601391194429  0.2261252896539362  0.039803940175843905  1.0000
  C   C11       1.0  0.5191281485799165  0.22612575470018478  0.5398074482335957  1.0000
  C   C12       1.0  0.0191354565519362  0.7738750344141252  0.9601942610034229  1.0000
  N   N1        1.0  0.2965046903081472  0.6799248599764952  0.315085971114364  1.0000
  N   N2        1.0  0.796508051710461  0.32007177922360347  0.18491443021180493  1.0000
  N   N3        1.0  0.7034927736736805  0.320072521802942  0.6849151605445912  1.0000
  N   N4        1.0  0.2034968854619734  0.6799285242663518  0.8150850906762699  1.0000
  N   N5        1.0  0.245365071224434  0.47041666382526875  0.3320537920289723  1.0000
  N   N6        1.0  0.7453563124884965  0.5295801565629719  0.16794800148443303  1.0000
  N   N7        1.0  0.7546454708657038  0.5295807179283757  0.6679473396207101  1.0000
  N   N8        1.0  0.25465049297308434  0.4704210899922003  0.8320529620535951  1.0000
  N   N9        1.0  0.4393446927767074  0.46563621944583405  0.468382548330716  1.0000
  N   N10       1.0  0.9393294324434365  0.534363741702123  0.03161616277913741  1.0000
  N   N11       1.0  0.5606695858849093  0.534366001003015  0.5316178782801586  1.0000
  N   N12       1.0  0.0606680315219776  0.4656375459908303  0.9683821613346595  1.0000
  N   N13       1.0  0.671078732874733  0.8521665149316604  0.437801382717339  1.0000
  N   N14       1.0  0.17106973554743382  0.1478306807236009  0.06219523719591541  1.0000
  N   N15       1.0  0.3289187310664445  0.14783566443097845  0.5622016833363048  1.0000
  N   N16       1.0  0.8289258601167903  0.85217060697304  0.9378030869192031  1.0000
  N   N17       1.0  0.3778862388379949  0.7912609426106343  0.5458682683938179  1.0000
  N   N18       1.0  0.8778890957617875  0.20873854444351997  0.9541256740626167  1.0000
  N   N19       1.0  0.6221130934547858  0.208736480284486  0.4541302238329479  1.0000
  N   N20       1.0  0.12211023652871941  0.7912598626398618  0.045871621384584685  1.0000
  O   O1        1.0  0.5814077772393206  0.9901642990183963  0.17884815475669316  1.0000
  O   O2        1.0  0.0814136699913774  0.0098360692478963  0.321153580018489  1.0000
  O   O3        1.0  0.4185915550056478  0.0098388850885058  0.8211523948006273  1.0000
  O   O4        1.0  0.9185837939763105  0.9901642342567959  0.6788459408748793  1.0000
  O   O5        1.0  0.20979036177148908  0.556656407777453  0.2763849503208888  1.0000
  O   O6        1.0  0.7097898493492779  0.44333862566437443  0.2236166477232118  1.0000
  O   O7        1.0  0.7902164437330296  0.44333905700624854  0.7236152756020217  1.0000
  O   O8        1.0  0.2902113512255013  0.5566607039245356  0.7763834100893732  1.0000
  O   O9        1.0  0.7465847335491915  0.8281366669187592  0.35643807980828507  1.0000
  O   O10       1.0  0.24656731005384105  0.17185537165200063  0.1435604578729084  1.0000
  O   O11       1.0  0.253412730430199  0.17186070458083694  0.6435637117083743  1.0000
  O   O12       1.0  0.7534338905066207  0.8281458851940616  0.85643984581138  1.0000
  O   O13       1.0  0.762936665482343  0.9418728458206406  0.4927903150613703  1.0000
  O   O14       1.0  0.26293867337430044  0.058125914729828296  0.0072064205560096  1.0000
  O   O15       1.0  0.23705519356031596  0.05813034858084622  0.5072095746435252  1.0000
  O   O16       1.0  0.7370513173839228  0.9418753626980276  0.9927925634207924  1.0000
  O   O17       1.0  0.47528750598144137  0.8625924252583133  0.6120478032308512  1.0000
  O   O18       1.0  0.975286251907242  0.13740570368920402  0.8879465381358358  1.0000
  O   O19       1.0  0.5247155629234754  0.1374050387488026  0.3879480495624179  1.0000
  O   O20       1.0  0.0247018705546793  0.8625955943020146  0.1120511261268575  1.0000
  O   O21       1.0  0.1797887970242655  0.7287555835781562  0.5543791079161267  1.0000
  O   O22       1.0  0.6797964560911467  0.2712475552022299  0.9456168037577156  1.0000
  O   O23       1.0  0.8202067986542688  0.27124377686132567  0.4456189703272884  1.0000
  O   O24       1.0  0.320202876179998  0.7287517641105199  0.0543839139139024  1.0000
