data_image0
_chemical_formula_structural       Zn2Mo8H28C32N12O26
_chemical_formula_sum              "Zn2 Mo8 H28 C32 N12 O26"
_cell_length_a       10.073391116814221
_cell_length_b       11.5373739790384
_cell_length_c       11.5714
_cell_angle_alpha    89.00708243449756
_cell_angle_beta     74.65594859804334
_cell_angle_gamma    74.65417221574442

_space_group_name_H-M_alt    "P 1"
_space_group_IT_number       1

loop_
  _space_group_symop_operation_xyz
  'x, y, z'

loop_
  _atom_site_type_symbol
  _atom_site_label
  _atom_site_symmetry_multiplicity
  _atom_site_fract_x
  _atom_site_fract_y
  _atom_site_fract_z
  _atom_site_occupancy
  Zn  Zn1       1.0  0.863593056544943  0.7832290834086422  0.7474735557686144  1.0000
  Zn  Zn2       1.0  0.13640594412172646  0.2167707224094713  0.2525253814914876  1.0000
  Mo  Mo1       1.0  0.39562332006008927  0.6876667485918304  0.6875196954440668  1.0000
  Mo  Mo2       1.0  0.6043780277524959  0.3123321569857396  0.31248217348478846  1.0000
  Mo  Mo3       1.0  0.49470616192192557  0.3742507019844226  0.5977785320871618  1.0000
  Mo  Mo4       1.0  0.5052954742197998  0.6257473033525898  0.4022224217773029  1.0000
  Mo  Mo5       1.0  0.1954497251489116  0.5409050329999303  0.5695484777633695  1.0000
  Mo  Mo6       1.0  0.8045513343345264  0.4590947728181831  0.4304525778305575  1.0000
  Mo  Mo7       1.0  0.7012134739422109  0.5142282047948399  0.7274556297735232  1.0000
  Mo  Mo8       1.0  0.29878845052865427  0.4857689003016219  0.27254440902654414  1.0000
  H   H1        1.0  0.6474227463629347  0.933242467865547  0.38993032012638207  1.0000
  H   H2        1.0  0.35257831312050303  0.0667573379525663  0.610068142868549  1.0000
  H   H3        1.0  0.7247713790980441  0.12184305718010079  0.47473893336365347  1.0000
  H   H4        1.0  0.2752309981229217  0.8781558483974693  0.5252601058336239  1.0000
  H   H5        1.0  0.8646193209396671  0.2014954407645533  0.5916514296613684  1.0000
  H   H6        1.0  0.13537836198947423  0.7985052652941107  0.4083486597957204  1.0000
  H   H7        1.0  0.991176000117072  0.2662362398861049  0.7256137208002258  1.0000
  H   H8        1.0  0.008821682812069288  0.7337644661725591  0.274385504457193  1.0000
  H   H9        1.0  0.0743598962107868  0.12352200580502878  0.8752521870990863  1.0000
  H   H10       1.0  0.9256401338642632  0.8764778000130916  0.12474564882876393  1.0000
  H   H11       1.0  0.027516001482233265  0.9193643595535406  0.8814436183134119  1.0000
  H   H12       1.0  0.9724850580012118  0.0806354462645729  0.11855398048185613  1.0000
  H   H13       1.0  0.5407868074626022  0.9482764850431876  0.7704797261697749  1.0000
  H   H14       1.0  0.4592126459541675  0.0517251212560268  0.2295199398868703  1.0000
  H   H15       1.0  0.2998999916674379  0.9618016990597624  0.9097943833001808  1.0000
  H   H16       1.0  0.7000979795908435  0.038198106758351  0.0902056552921735  1.0000
  H   H17       1.0  0.28593364339123883  0.8463881598846186  0.09787730641949823  1.0000
  H   H18       1.0  0.7140659339337107  0.1536098454523938  0.9021189365121387  1.0000
  H   H19       1.0  0.511443765995793  0.7328354179254148  0.14341115458624637  1.0000
  H   H20       1.0  0.4885549463417362  0.2671652881332491  0.8565886977382534  1.0000
  H   H21       1.0  0.7611379708209823  0.6487520503560305  0.1833505154946664  1.0000
  H   H22       1.0  0.23885971210815873  0.3512486557026335  0.8166487097627524  1.0000
  H   H23       1.0  0.05659674417740492  0.5838780156331396  0.10366537283496059  1.0000
  H   H24       1.0  0.943402420910225  0.4161244909066184  0.8963352082860823  1.0000
  H   H25       1.0  0.7446569091934094  0.7518575007376002  0.5010854125623537  1.0000
  H   H26       1.0  0.2553434092107878  0.24814140483996278  0.49891410090010174  1.0000
  H   H27       1.0  0.11436570035753141  0.664835748014454  0.8919820187095765  1.0000
  H   H28       1.0  0.8856331764009582  0.3351676587658545  0.10801861327620084  1.0000
  C   C1        1.0  0.7042336286805196  0.9366111680019954  0.45666583551904694  1.0000
  C   C2        1.0  0.2957674308029183  0.0633886378161179  0.54333522007488  1.0000
  C   C3        1.0  0.7441791789810068  0.0296233155237999  0.5006998913485816  1.0000
  C   C4        1.0  0.2558218805024381  0.9703764902943135  0.49930030004568243  1.0000
  C   C5        1.0  0.8133433114761883  0.9779520145188555  0.5875804789645969  1.0000
  C   C6        1.0  0.18665568919048073  0.0220477912992578  0.4124184582955052  1.0000
  C   C7        1.0  0.8804781420686325  0.0262834230849336  0.665793472031453  1.0000
  C   C8        1.0  0.11952159967727741  0.9737172829737303  0.3342061431604648  1.0000
  C   C9        1.0  0.9015047662998938  0.1415376196828078  0.6570952582528874  1.0000
  C   C10       1.0  0.09849423436677542  0.8584621861353056  0.3429036790072146  1.0000
  C   C11       1.0  0.9718004217565054  0.1775886527304564  0.7327079450393583  1.0000
  C   C12       1.0  0.028199319989404625  0.8224120533282075  0.2672908059528893  1.0000
  C   C13       1.0  0.018174898166151403  0.0982171441974629  0.8154455946534185  1.0000
  C   C14       1.0  0.9818248435797585  0.901783561861201  0.18455315633882927  1.0000
  C   C15       1.0  0.9921157732112604  0.9853114810115073  0.8196974944930772  1.0000
  C   C16       1.0  0.007886027351425198  0.014689225047156598  0.1803007822339993  1.0000
  C   C17       1.0  0.5298658545773236  0.9033112700738001  0.8547150279623139  1.0000
  C   C18       1.0  0.4701341754977264  0.09668853574431319  0.145284536364862  1.0000
  C   C19       1.0  0.395827877089495  0.9102368206215631  0.9327870380133803  1.0000
  C   C20       1.0  0.6041690647604058  0.0897629851965505  0.067213237711556  1.0000
  C   C21       1.0  0.3886353234702113  0.8468391803999467  0.03680619327484887  1.0000
  C   C22       1.0  0.6113629361172102  0.1531597251776162  0.9631929302531006  1.0000
  C   C23       1.0  0.5147667679797935  0.7825989150239536  0.062333078699324966  1.0000
  C   C24       1.0  0.4852309149493478  0.21740179103471038  0.9376652823584308  1.0000
  C   C25       1.0  0.6449424467269863  0.7815357309349196  0.9806783695056467  1.0000
  C   C26       1.0  0.355055524531295  0.2184640748831939  0.01932080488703749  1.0000
  C   C27       1.0  0.7842454976586524  0.72084601428638  0.9991802066299444  1.0000
  C   C28       1.0  0.21575189694134886  0.2791555920128275  0.0008190694922020822  1.0000
  C   C29       1.0  0.8274059677022549  0.6632513246472342  0.09699618111986302  1.0000
  C   C30       1.0  0.17259245630613407  0.3367502816519803  0.9030019936700385  1.0000
  C   C31       1.0  0.9759864840383443  0.6289125491248413  0.059345952490957574  1.0000
  C   C32       1.0  0.024013422128526002  0.3710908576554672  0.9406527139629048  1.0000
  N   N1        1.0  0.7487991696707041  0.8378538794747996  0.5156312204424721  1.0000
  N   N2        1.0  0.2512018898127337  0.1621459263433138  0.4843689709517919  1.0000
  N   N3        1.0  0.8152226500915134  0.8605489437291851  0.5950785152803775  1.0000
  N   N4        1.0  0.18477812106278438  0.1394517623294789  0.4049217269786213  1.0000
  N   N5        1.0  0.92470090324025  0.9499788399224016  0.7469105201329713  1.0000
  N   N6        1.0  0.075298097426419  0.0500209658957118  0.253089281326794  1.0000
  N   N7        1.0  0.6511708774713084  0.8392591549726589  0.8769551484891877  1.0000
  N   N8        1.0  0.3488291526037415  0.1607406508454545  0.12304355163833236  1.0000
  N   N9        1.0  0.9005380678874247  0.7206875719496608  0.9085279222014008  1.0000
  N   N10       1.0  0.09946167385849242  0.2793131341090032  0.09147169299051679  1.0000
  N   N11       1.0  0.014825292917670712  0.6643784258152792  0.9461788278828677  1.0000
  N   N12       1.0  0.9851749015783399  0.3356240807244859  0.05382151610559302  1.0000
  O   O1        1.0  0.7732758514991077  0.6366024038991753  0.7027660351914022  1.0000
  O   O2        1.0  0.22672578464261767  0.363395601437837  0.2972366470723884  1.0000
  O   O3        1.0  0.1373704348938958  0.4132995360621052  0.5923396889223653  1.0000
  O   O4        1.0  0.8626306245895422  0.5867002697560082  0.40766395927055743  1.0000
  O   O5        1.0  0.05969559623992635  0.6565796419344494  0.6558565201341935  1.0000
  O   O6        1.0  0.9403075220602874  0.343420163883664  0.3441440611945622  1.0000
  O   O7        1.0  0.42954982747709636  0.2511959210246175  0.6263965669907421  1.0000
  O   O8        1.0  0.5704504909271009  0.7488029845529455  0.37360467487103927  1.0000
  O   O9        1.0  0.3269428619354215  0.504837795622386  0.6753020816531502  1.0000
  O   O10       1.0  0.6730589386272641  0.495162910436278  0.3246996518725922  1.0000
  O   O11       1.0  0.5870403952473922  0.37731242009347443  0.7080015717169132  1.0000
  O   O12       1.0  0.4129610764733727  0.6226828845218932  0.2920003308855996  1.0000
  O   O13       1.0  0.6650496283526194  0.3170269114516913  0.4638214432973554  1.0000
  O   O14       1.0  0.33495040172243773  0.6829728943664222  0.5361807136288235  1.0000
  O   O15       1.0  0.4188961666103239  0.4422647757441709  0.4517511335191458  1.0000
  O   O16       1.0  0.581106498939789  0.5577332295928414  0.5482495832127299  1.0000
  O   O17       1.0  0.45843670251118607  0.8116793854963618  0.6559204992283724  1.0000
  O   O18       1.0  0.541568598513976  0.1883168193595495  0.3440787773092069  1.0000
  O   O19       1.0  0.5060229053079226  0.6037544267268586  0.7882446834098642  1.0000
  O   O20       1.0  0.49397976024218343  0.3962435786101537  0.2117568975216741  1.0000
  O   O21       1.0  0.7536828622460447  0.44784626715144066  0.8467999664058751  1.0000
  O   O22       1.0  0.24632021554138825  0.552147236982826  0.15319814053592748  1.0000
  O   O23       1.0  0.8247887917253821  0.4197083485344137  0.5853448302868784  1.0000
  O   O24       1.0  0.1752125560872031  0.5802905570431491  0.4146570386419768  1.0000
  O   O25       1.0  0.23254324116464178  0.7385816533532505  0.7927248864829224  1.0000
  O   O26       1.0  0.7674591765691048  0.2614235539081591  0.20727662710130806  1.0000
