data_image0
_chemical_formula_structural       Zn2H10C48Br8N10O24
_chemical_formula_sum              "Zn2 H10 C48 Br8 N10 O24"
_cell_length_a       15.207788203597099
_cell_length_b       15.207742936764522
_cell_length_c       17.15727780863491
_cell_angle_alpha    92.17323575865235
_cell_angle_beta     92.24166158825287
_cell_angle_gamma    90.5098960958163

_space_group_name_H-M_alt    "P 1"
_space_group_IT_number       1

loop_
  _space_group_symop_operation_xyz
  'x, y, z'

loop_
  _atom_site_type_symbol
  _atom_site_label
  _atom_site_symmetry_multiplicity
  _atom_site_fract_x
  _atom_site_fract_y
  _atom_site_fract_z
  _atom_site_occupancy
  Zn  Zn1       1.0  0.5042361217795204  0.5040777136140447  0.0907717918582946  1.0000
  Zn  Zn2       1.0  0.4958314258574532  0.4958425338755886  0.9092491800244815  1.0000
  H   H1        1.0  0.4296499977848923  0.4293086562871621  0.5092774070404076  1.0000
  H   H2        1.0  0.5703313272801864  0.5706024548950097  0.49077120018176856  1.0000
  H   H3        1.0  0.21958532079819548  0.4971269093887328  0.8756468057732077  1.0000
  H   H4        1.0  0.23082858649313207  0.5083406215115289  0.1244536794584903  1.0000
  H   H5        1.0  0.7807759538666516  0.502942455041307  0.1250466214522987  1.0000
  H   H6        1.0  0.7689612811941798  0.4905206130743808  0.8762558328290239  1.0000
  H   H7        1.0  0.49228068725201973  0.7694056782168914  0.8754173315922811  1.0000
  H   H8        1.0  0.5030795301194999  0.7801695227315618  0.1242336832506368  1.0000
  H   H9        1.0  0.5100651176525872  0.230833955775374  0.12387568265402392  1.0000
  H   H10       1.0  0.4981685813352711  0.21948346418898987  0.8750704603574134  1.0000
  C   C1        1.0  0.6689733478126171  0.49636441484191346  0.0013334396699918017  1.0000
  C   C2        1.0  0.4966473422740946  0.6688431076866904  0.9999520031238092  1.0000
  C   C3        1.0  0.3311467593116432  0.5033324422307358  0.999916957586464  1.0000
  C   C4        1.0  0.5040628993370078  0.33105024911566255  0.9988291597041081  1.0000
  C   C5        1.0  0.545772708432736  0.5446725722738962  0.7406459592366018  1.0000
  C   C6        1.0  0.5457729322667078  0.5448237622875352  0.6585353787934949  1.0000
  C   C7        1.0  0.48807180591168725  0.4878538021350991  0.6128145649332596  1.0000
  C   C8        1.0  0.432706145957141  0.4332838608595893  0.6562623080319696  1.0000
  C   C9        1.0  0.4367364120156195  0.43751982911248877  0.7381174438496672  1.0000
  C   C10       1.0  0.4788361594899087  0.4785562172509756  0.5278574388606714  1.0000
  C   C11       1.0  0.5212947178676329  0.5212124825336133  0.4721991359731631  1.0000
  C   C12       1.0  0.5665690136544156  0.5673725179225357  0.34378862147496386  1.0000
  C   C13       1.0  0.5120598106574618  0.5119385912041636  0.38724107353689863  1.0000
  C   C14       1.0  0.4552014105826031  0.45413414978277444  0.341501581810938  1.0000
  C   C15       1.0  0.45539390769950927  0.4541287432443539  0.2593912178505633  1.0000
  C   C16       1.0  0.5623715821898684  0.5633242417153781  0.2619229217412951  1.0000
  C   C17       1.0  0.1837083956934578  0.4988022215996749  0.9292923017031426  1.0000
  C   C18       1.0  0.0915042928968717  0.49841342990567467  0.9280821898846341  1.0000
  C   C19       1.0  0.0383511740272908  0.4946290585204237  0.8570704171662555  1.0000
  C   C20       1.0  0.190131679047596  0.5056732437079106  0.0708253926565732  1.0000
  C   C21       1.0  0.0980762311854164  0.5033324348487866  0.0721235511575884  1.0000
  C   C22       1.0  0.051475317509606086  0.5057651208199444  0.1432404865322638  1.0000
  C   C23       1.0  0.8165400243172982  0.5004174823037317  0.07134864524546461  1.0000
  C   C24       1.0  0.9086589645228926  0.5028664969244544  0.0723165198011912  1.0000
  C   C25       1.0  0.9617306808248998  0.5070924907239984  0.1433127781641659  1.0000
  C   C26       1.0  0.8097396601597068  0.4939255075504647  0.929815232559335  1.0000
  C   C27       1.0  0.9018482627800709  0.49435367695816973  0.9282717799152849  1.0000
  C   C28       1.0  0.9485472600065065  0.49193284736850973  0.857138779629551  1.0000
  C   C29       1.0  0.23216363884066027  0.5029946134831887  2.8791387599406322e-05  1.0000
  C   C30       1.0  0.04680396555777829  0.5003074299454796  0.00014411260896450578  1.0000
  C   C31       1.0  0.7679203930072234  0.49640145254829093  0.0007338455038024105  1.0000
  C   C32       1.0  0.9532340006506245  0.4991552228689997  0.0002041741630237092  1.0000
  C   C33       1.0  0.49497608532588083  0.8099876383191998  0.9290742502607685  1.0000
  C   C34       1.0  0.4976591253021708  0.902050191185566  0.9278410878912593  1.0000
  C   C35       1.0  0.49563340933519123  0.9487944243383525  0.8567473036623311  1.0000
  C   C36       1.0  0.5016180169075426  0.8161448972190684  0.0706051112081241  1.0000
  C   C37       1.0  0.5022313449933336  0.9083484019943597  0.07186853217074679  1.0000
  C   C38       1.0  0.5059499022768463  0.9613587242595258  0.1429077316880196  1.0000
  C   C39       1.0  0.5067856734479221  0.1901394247396837  0.0702999417743939  1.0000
  C   C40       1.0  0.5064676640466103  0.0980196592096192  0.0717911066572015  1.0000
  C   C41       1.0  0.5087252919849234  0.05116253713573119  0.1428925787140329  1.0000
  C   C42       1.0  0.500637991241362  0.1836151074715744  0.9287545782944092  1.0000
  C   C43       1.0  0.4983911016591803  0.09149321051963709  0.9277276136163762  1.0000
  C   C44       1.0  0.49442860982229314  0.0385404322285723  0.85670470461217  1.0000
  C   C45       1.0  0.4973648733385332  0.7678256078793025  0.9998442161245009  1.0000
  C   C46       1.0  0.5005945986030439  0.9531900928321945  0.9998457246019468  1.0000
  C   C47       1.0  0.5043282112868112  0.23209518237951693  0.9994004791571242  1.0000
  C   C48       1.0  0.5018701284543993  0.046775732422773296  0.9998220520656529  1.0000
  Br  Br1       1.0  0.3626275588099475  0.3642697690000176  0.7928488275151648  1.0000
  Br  Br2       1.0  0.3517391723168616  0.3531443305056142  0.6051025102502834  1.0000
  Br  Br3       1.0  0.622970032027979  0.6210234267209103  0.7994379111807817  1.0000
  Br  Br4       1.0  0.624782102314576  0.6230152786686814  0.6140616873900979  1.0000
  Br  Br5       1.0  0.3770585454335631  0.3750727911956204  0.38597487924327817  1.0000
  Br  Br6       1.0  0.379219082834787  0.37678803888908163  0.2005775031051371  1.0000
  Br  Br7       1.0  0.6466434691101312  0.6484119835621627  0.39495882350310296  1.0000
  Br  Br8       1.0  0.6355893793330694  0.6375130819317717  0.2072236819192455  1.0000
  N   N1        1.0  0.49245709078211053  0.4923427672392151  0.779987024361084  1.0000
  N   N2        1.0  0.5076556551359559  0.507514630137351  0.2200491444659107  1.0000
  N   N3        1.0  0.8971748958429585  0.4895918319716799  0.7819753231524514  1.0000
  N   N4        1.0  0.08308593557871549  0.49059225699560466  0.7819137849119215  1.0000
  N   N5        1.0  0.9170570532912733  0.5103486315919312  0.2184560690136479  1.0000
  N   N6        1.0  0.10280520552314698  0.5093409477110385  0.21838637799032767  1.0000
  N   N7        1.0  0.49141996378510555  0.08332803144183737  0.7815681894177615  1.0000
  N   N8        1.0  0.49227683254432714  0.8976091854326496  0.7815805568706721  1.0000
  N   N9        1.0  0.5109429577665665  0.10240307889786492  0.2180740431499473  1.0000
  N   N10       1.0  0.5098163992142303  0.9164934896236757  0.2180483073044996  1.0000
  O   O1        1.0  0.6357522992592236  0.5004843991122881  0.0680849226702165  1.0000
  O   O2        1.0  0.6287240929133232  0.4933378620794926  0.9350612069954706  1.0000
  O   O3        1.0  0.49244049526308226  0.6290265045971069  0.9335050728556948  1.0000
  O   O4        1.0  0.501348536491882  0.6351483206317355  0.0665037460752842  1.0000
  O   O5        1.0  0.36475780872348906  0.4985401237116562  0.9333663221981894  1.0000
  O   O6        1.0  0.3710383502253834  0.5073791835610847  0.06636353036515891  1.0000
  O   O7        1.0  0.5069863611631646  0.3711998270010709  0.0650942315413658  1.0000
  O   O8        1.0  0.49978484110604166  0.3643646539394111  0.9320708426931574  1.0000
  O   O9        1.0  0.8448382802114976  0.42760736749409745  0.7696143486015004  1.0000
  O   O10       1.0  0.9096860992443183  0.5510589334426469  0.7384254205584566  1.0000
  O   O11       1.0  0.13334226364306548  0.5521888422866325  0.7692234038729637  1.0000
  O   O12       1.0  0.0677411296730668  0.424796946254844  0.738811190634614  1.0000
  O   O13       1.0  0.867842727167492  0.5732323584214073  0.23046450308792288  1.0000
  O   O14       1.0  0.931546668938168  0.4491355455391782  0.2623851120594836  1.0000
  O   O15       1.0  0.15323274301487538  0.44763420183276276  0.23054397828869355  1.0000
  O   O16       1.0  0.09200022070883308  0.5743596631089927  0.2622523287852943  1.0000
  O   O17       1.0  0.4285103133524259  0.13246763979012138  0.7693049420060376  1.0000
  O   O18       1.0  0.5528371720464307  0.0690082215318313  0.7379008322537003  1.0000
  O   O19       1.0  0.5539561794577493  0.8471056023499414  0.7696849629506131  1.0000
  O   O20       1.0  0.427466785304631  0.9085873049542599  0.7374281928444971  1.0000
  O   O21       1.0  0.5729329842483608  0.15469980567686287  0.23060057093493913  1.0000
  O   O22       1.0  0.44939340072288997  0.08982437655940602  0.26147246294974014  1.0000
  O   O23       1.0  0.4481651431453598  0.8662268617221327  0.2305441533713761  1.0000
  O   O24       1.0  0.5755402370383322  0.931736981028173  0.26132335012097485  1.0000
