data_image0
_chemical_formula_structural       Cd2H28C46Br8N12O10
_chemical_formula_sum              "Cd2 H28 C46 Br8 N12 O10"
_cell_length_a       10.74587122077473
_cell_length_b       11.956121559436388
_cell_length_c       12.0615
_cell_angle_alpha    90.78544705814122
_cell_angle_beta     108.82205412683994
_cell_angle_gamma    110.61801030551862

_space_group_name_H-M_alt    "P 1"
_space_group_IT_number       1

loop_
  _space_group_symop_operation_xyz
  'x, y, z'

loop_
  _atom_site_type_symbol
  _atom_site_label
  _atom_site_symmetry_multiplicity
  _atom_site_fract_x
  _atom_site_fract_y
  _atom_site_fract_z
  _atom_site_occupancy
  Cd  Cd1       1.0  0.3386343085633285  0.3343100271240118  0.12817457023425044  1.0000
  Cd  Cd2       1.0  0.6613655882187145  0.6656907102687981  0.8718252443000906  1.0000
  H   H1        1.0  0.1240608751469452  0.3859880254554966  0.27644439032880536  1.0000
  H   H2        1.0  0.8759392050855439  0.6140109059299377  0.7235554523954446  1.0000
  H   H3        1.0  0.2672658019033847  0.1002650150227282  0.293506437979012  1.0000
  H   H4        1.0  0.7327356613507163  0.8997348193663939  0.706493814549482  1.0000
  H   H5        1.0  0.12643273092348287  0.0818040075284756  0.45498920117750424  1.0000
  H   H6        1.0  0.8735677491660636  0.9181958268606464  0.5450107687515241  1.0000
  H   H7        1.0  0.15415345089719068  0.22627737433638367  0.6158294658233672  1.0000
  H   H8        1.0  0.8458464458848522  0.7737233630564261  0.3841703487109668  1.0000
  H   H9        1.0  0.8355199997998138  0.3512314133221608  0.6486684341562209  1.0000
  H   H10       1.0  0.1644802968392796  0.6487702270743512  0.3513306784986198  1.0000
  H   H11       1.0  0.8938267815892259  0.3256141015629836  0.3098977648214215  1.0000
  H   H12       1.0  0.10617271533575937  0.6743857328261385  0.6901010934238626  1.0000
  H   H13       1.0  0.24923311417254007  0.3967978826612111  0.8407760630648724  1.0000
  H   H14       1.0  0.7507671824665536  0.6032037577352938  0.15922470775851139  1.0000
  H   H15       1.0  0.9933618914147999  0.1399141011632992  0.9927868482876787  1.0000
  H   H16       1.0  0.006637022202689013  0.8600866362295179  0.007213512731461004  1.0000
  H   H17       1.0  0.8363161172891153  0.1269587071836398  0.7552780986794118  1.0000
  H   H18       1.0  0.16368476265748189  0.8730420302091699  0.24472116937011623  1.0000
  H   H19       1.0  0.7317967252972792  0.4719169538523786  0.5754509674239897  1.0000
  H   H20       1.0  0.2682027716277062  0.5280828805367435  0.4245478908212944  1.0000
  H   H21       1.0  0.5038865097384715  0.5017801889747844  0.4048820683655946  1.0000
  H   H22       1.0  0.4961129871865211  0.4982196454143376  0.5951176189639681  1.0000
  H   H23       1.0  0.6683689523039932  0.3090051546425272  0.23540361826474046  1.0000
  H   H24       1.0  0.3316309444780501  0.6909955827502898  0.7645961962695934  1.0000
  H   H25       1.0  0.5112178613516106  0.2873592531240021  0.025683329847986155  1.0000
  H   H26       1.0  0.4887830185949865  0.7126414842688149  0.9743167672858203  1.0000
  H   H27       1.0  0.537663704141039  0.40221229280285087  0.9564075553000818  1.0000
  H   H28       1.0  0.4623361926410041  0.5977884445899662  0.04359308831853067  1.0000
  C   C1        1.0  0.1416816949931459  0.3046264897364566  0.30166724247477816  1.0000
  C   C2        1.0  0.8583187850963936  0.6953733446526654  0.6983327274542502  1.0000
  C   C3        1.0  0.21637902091585906  0.15657361629055086  0.3155739539147077  1.0000
  C   C4        1.0  0.7836214591736804  0.8434262180985712  0.6844260160143275  1.0000
  C   C5        1.0  0.1473417289231236  0.1465701413824405  0.3949921226610797  1.0000
  C   C6        1.0  0.8526591510234738  0.8534305960103765  0.6050088035570054  1.0000
  C   C7        1.0  0.029888442758497984  0.2725463805483912  0.4553721346232534  1.0000
  C   C8        1.0  0.970111454023545  0.7274543568444258  0.5446276799110874  1.0000
  C   C9        1.0  0.0688654350547466  0.2581642407342102  0.575010135127286  1.0000
  C   C10       1.0  0.9311354448918505  0.7418364966585996  0.42498996200652056  1.0000
  C   C11       1.0  0.996833789680643  0.2868318989674421  0.6416801246423983  1.0000
  C   C12       1.0  0.0031674901230118904  0.7131697414290699  0.35832009969618633  1.0000
  C   C13       1.0  0.8888613840247429  0.3298672489557646  0.5927781974127766  1.0000
  C   C14       1.0  0.111139895778912  0.6701343914407474  0.407222026925801  1.0000
  C   C15       1.0  0.8532242007491175  0.344868849303154  0.47309546354629356  1.0000
  C   C16       1.0  0.14677707905453016  0.6551327910933509  0.5269047607922913  1.0000
  C   C17       1.0  0.9232441441444762  0.3165488474916316  0.4036756939685515  1.0000
  C   C18       1.0  0.07675535278051626  0.6834509868974976  0.5963231642767325  1.0000
  C   C19       1.0  0.1599264969285059  0.3250759113621129  0.8515686022329163  1.0000
  C   C20       1.0  0.8400737997105948  0.6749257290343919  0.14843133950619597  1.0000
  C   C21       1.0  0.02278385398283687  0.19183139547335054  0.9260092747780105  1.0000
  C   C22       1.0  0.977215059634652  0.8081693419194663  0.07398942807257917  1.0000
  C   C23       1.0  0.9439191250416525  0.18371519828306046  0.809254428151064  1.0000
  C   C24       1.0  0.05608117159744095  0.8162864421134514  0.19074468450377674  1.0000
  C   C25       1.0  0.6870918750894432  0.44608743622541164  0.48031914646184487  1.0000
  C   C26       1.0  0.31290663867098795  0.5539123981637104  0.519680258268252  1.0000
  C   C27       1.0  0.5731493066229872  0.4575781582154548  0.39577917486629827  1.0000
  C   C28       1.0  0.4268507736095017  0.5424207731699795  0.6042214969422304  1.0000
  C   C29       1.0  0.6566621743044863  0.360910709904573  0.3031580813221097  1.0000
  C   C30       1.0  0.34333633945594494  0.6390891244845491  0.6968413234079802  1.0000
  C   C31       1.0  0.4103939610332076  0.0962574846343784  0.10209990155598796  1.0000
  C   C32       1.0  0.5896045527272233  0.9037423497547434  0.8978986740898233  1.0000
  C   C33       1.0  0.38576518007842947  0.9651005476723354  0.11867116060590623  1.0000
  C   C34       1.0  0.6142319506603968  0.0348983837130916  0.8813278343199398  1.0000
  C   C35       1.0  0.4569909444388286  0.9360355678143009  0.22658492421023615  1.0000
  C   C36       1.0  0.5430081526291061  0.0639633635711263  0.7734154649988266  1.0000
  C   C37       1.0  0.4315688098700078  0.8155035379118514  0.2430885200524527  1.0000
  C   C38       1.0  0.5684342198561438  0.1844953934735827  0.7569121704702083  1.0000
  C   C39       1.0  0.33119601635920043  0.7218169047906854  0.15314767428569095  1.0000
  C   C40       1.0  0.6688032641591872  0.2781802205873589  0.8468535721975667  1.0000
  C   C41       1.0  0.25922519557965257  0.7506913508695516  0.045305684958051956  1.0000
  C   C42       1.0  0.7407774342894483  0.2493066775121875  0.9546965365283878  1.0000
  C   C43       1.0  0.28786035477287436  0.8713100691265083  0.027686438057976687  1.0000
  C   C44       1.0  0.7121389257455064  0.1286870562515361  0.9723148084252811  1.0000
  C   C45       1.0  0.2977136824893449  0.5911531734557585  0.1748185552172785  1.0000
  C   C46       1.0  0.7022850147215394  0.4088448549259809  0.8251825358712849  1.0000
  Br  Br1       1.0  0.5861587536747235  0.0628454449995246  0.35254802433551896  1.0000
  Br  Br2       1.0  0.41384114310731934  0.9371552923932923  0.6474501320302648  1.0000
  Br  Br3       1.0  0.5324829517095891  0.7766265199285697  0.38867253109643923  1.0000
  Br  Br4       1.0  0.4675185445006703  0.2233778294790199  0.6113294504255575  1.0000
  Br  Br5       1.0  0.11768046760874279  0.6211825612576333  0.9278556727019307  1.0000
  Br  Br6       1.0  0.8823231454249125  0.378815467124106  0.07214848955253217  1.0000
  Br  Br7       1.0  0.195577618312427  0.9127741926894757  0.8807699718500145  1.0000
  Br  Br8       1.0  0.804418863206578  0.0872166116627255  0.11922623877842389  1.0000
  N   N1        1.0  0.2129088702269399  0.2559816808088726  0.25896257687625723  1.0000
  N   N2        1.0  0.7870906266980526  0.7440181535802495  0.7410362813690269  1.0000
  N   N3        1.0  0.1000391267369665  0.24163746714979334  0.3857068694641654  1.0000
  N   N4        1.0  0.8999589871664141  0.7583614642356337  0.6142924080611463  1.0000
  N   N5        1.0  0.0323316431897922  0.2684566768239947  0.7626664298249393  1.0000
  N   N6        1.0  0.9676696366138555  0.7315449635725102  0.2373329654293669  1.0000
  N   N7        1.0  0.15570576678651085  0.2805722773694086  0.9509569839035448  1.0000
  N   N8        1.0  0.8442941299955319  0.7194284600234083  0.04904200154651743  1.0000
  N   N9        1.0  0.7409006816710074  0.384992012382412  0.4206722203761188  1.0000
  N   N10       1.0  0.2590992151110356  0.6150087250104049  0.5793275941582151  1.0000
  N   N11       1.0  0.5547733568088375  0.4033482714483085  0.28660979712919493  1.0000
  N   N12       1.0  0.44522475709454296  0.5966506599371257  0.7133886513118453  1.0000
  O   O1        1.0  0.5141796377557596  0.1546709875099594  0.07236583993205402  1.0000
  O   O2        1.0  0.4858174929830668  0.8453279438754748  0.9276314968252349  1.0000
  O   O3        1.0  0.4975542122646814  0.36547900558611696  0.01637043575025385  1.0000
  O   O4        1.0  0.5024466676819159  0.6345217318067  0.9836313195521099  1.0000
  O   O5        1.0  0.321243806642066  0.1328219101605654  0.12230091090270886  1.0000
  O   O6        1.0  0.6787533240967604  0.8671770212248688  0.8776972549388588  1.0000
  O   O7        1.0  0.36359157576183065  0.5368402103488776  0.13848584680336976  1.0000
  O   O8        1.0  0.6364085044706583  0.46315872103654937  0.8615156540894374  1.0000
  O   O9        1.0  0.21100239087505193  0.5501640298351731  0.22712623421801933  1.0000
  O   O10       1.0  0.7889959064787744  0.44983309554287126  0.7728739005814871  1.0000
