data_image0
_chemical_formula_structural       Ag2H18C26S12N4O6
_chemical_formula_sum              "Ag2 H18 C26 S12 N4 O6"
_cell_length_a       7.157321490861131
_cell_length_b       8.495271479486629
_cell_length_c       14.48098120018504
_cell_angle_alpha    74.6320800574393
_cell_angle_beta     80.7440756591254
_cell_angle_gamma    82.17843719871485

_space_group_name_H-M_alt    "P 1"
_space_group_IT_number       1

loop_
  _space_group_symop_operation_xyz
  'x, y, z'

loop_
  _atom_site_type_symbol
  _atom_site_label
  _atom_site_symmetry_multiplicity
  _atom_site_fract_x
  _atom_site_fract_y
  _atom_site_fract_z
  _atom_site_occupancy
  Ag  Ag1       1.0  0.9031072451930625  0.0480588492170426  0.13844094243033567  1.0000
  Ag  Ag2       1.0  0.09688712676550891  0.9519342221889175  0.8615597661740821  1.0000
  H   H1        1.0  0.7479977365822137  0.5159122829849139  0.26981311139373787  1.0000
  H   H2        1.0  0.2520099354463596  0.48409034392194167  0.7301851384626161  1.0000
  H   H3        1.0  0.08986810060630995  0.5172010271937851  0.39769742063399594  1.0000
  H   H4        1.0  0.9101440982062171  0.48279556449141836  0.602305689053473  1.0000
  H   H5        1.0  0.5633662771098216  0.7088058626721504  0.18846394071470488  1.0000
  H   H6        1.0  0.43663251599866737  0.2912006231589928  0.8115349326007859  1.0000
  H   H7        1.0  0.32953687981495255  0.9148200340743173  0.10381058781470638  1.0000
  H   H8        1.0  0.6704590426240102  0.085183052567956  0.8961945677807748  1.0000
  H   H9        1.0  0.5702972043847864  0.82903362484803  0.9317829566258666  1.0000
  H   H10       1.0  0.42969339329066264  0.17097050367691216  0.06821546026390021  1.0000
  H   H11       1.0  0.4592993584574217  0.6448686422734298  0.98131043303853  1.0000
  H   H12       1.0  0.5406889142931631  0.3551317443623958  0.018685995228779027  1.0000
  H   H13       1.0  0.681669789494535  0.5076357634264568  0.8652246795964658  1.0000
  H   H14       1.0  0.3183241632760669  0.4923610434294685  0.13477681478723721  1.0000
  H   H15       1.0  0.8100213553717239  0.5694044588179636  0.9417208002992581  1.0000
  H   H16       1.0  0.18997189545911652  0.4305997332628309  0.05828019791741922  1.0000
  H   H17       1.0  0.8789281632782959  0.7334318817028559  0.30425651306224927  1.0000
  H   H18       1.0  0.12107156396069034  0.2665511620063086  0.6957420664171536  1.0000
  C   C1        1.0  0.6105396315053326  0.10710844000860929  0.5764832977653782  1.0000
  C   C2        1.0  0.38946485019644683  0.8928967754730338  0.4235168003208613  1.0000
  C   C3        1.0  0.6690623305419477  0.4487538204381422  0.3360714510411071  1.0000
  C   C4        1.0  0.3309423785534448  0.5512512522517312  0.6639252008357773  1.0000
  C   C5        1.0  0.47743973782502275  0.4719341165345766  0.3590566157554562  1.0000
  C   C6        1.0  0.5225643246887871  0.5280748343970316  0.6409442681100755  1.0000
  C   C7        1.0  0.7170574415659062  0.8628613143954523  0.7145026004374273  1.0000
  C   C8        1.0  0.28293836158341884  0.1371464767826893  0.2854969401923597  1.0000
  C   C9        1.0  0.5240291052671041  0.8820156699067495  0.7309860237214991  1.0000
  C   C10       1.0  0.47597007012389275  0.1179894184631891  0.2690089117109196  1.0000
  C   C11       1.0  0.34889294117373026  0.5938753006135187  0.3034615964721183  1.0000
  C   C12       1.0  0.6511218099572743  0.4061248901690249  0.6965400556284536  1.0000
  C   C13       1.0  0.5999349887164699  0.23271171713956557  0.49596236902580415  1.0000
  C   C14       1.0  0.40007535492021873  0.7672898043287616  0.5040400382093537  1.0000
  C   C15       1.0  0.15162345962742307  0.6029252980147817  0.3333385767095081  1.0000
  C   C16       1.0  0.8483864867649444  0.3970686636589846  0.6666595898198722  1.0000
  C   C17       1.0  0.41360084133837205  0.7092840645650751  0.21828614526593534  1.0000
  C   C18       1.0  0.5864068392634607  0.29072087177218  0.7817082632447665  1.0000
  C   C19       1.0  0.2833759223864972  0.8252053918794289  0.17005351023499318  1.0000
  C   C20       1.0  0.7166208015229358  0.17479256185166753  0.8299469216981237  1.0000
  C   C21       1.0  0.5398447879391598  0.7164318943503645  0.9163690441370562  1.0000
  C   C22       1.0  0.4601461834455307  0.2835685272829663  0.08362927621529792  1.0000
  C   C23       1.0  0.718183451865336  0.6150693132226763  0.8844821370928173  1.0000
  C   C24       1.0  0.2818117721247759  0.3849310323943129  0.11551591979866771  1.0000
  C   C25       1.0  0.03172786188172695  0.7237876091419935  0.2810818253461774  1.0000
  C   C26       1.0  0.968279523618904  0.2762004440040187  0.7189216401157453  1.0000
  S   S1        1.0  0.3814117400173913  0.3412001602330505  0.4676263492393673  1.0000
  S   S2        1.0  0.6186004269720159  0.6588112051214665  0.5323763695356262  1.0000
  S   S3        1.0  0.40527811927351115  0.04582450831703258  0.6546053419550047  1.0000
  S   S4        1.0  0.5947220089859401  0.95418431872244  0.3453909806782889  1.0000
  S   S5        1.0  0.7972775003096118  0.30040601082501434  0.4130745743187205  1.0000
  S   S6        1.0  0.20272851341982084  0.6996103888873222  0.586928394706689  1.0000
  S   S7        1.0  0.824585741986766  0.0012891305501980927  0.613598463492913  1.0000
  S   S8        1.0  0.17542533569802995  0.9987185818098397  0.386404935806823  1.0000
  S   S9        1.0  0.8757370778124809  0.7248190720800591  0.7833360377072225  1.0000
  S   S10       1.0  0.12425971860166381  0.2751799935287096  0.21666143969025603  1.0000
  S   S11       1.0  0.3783138796368847  0.7649820347288666  0.825619639714503  1.0000
  S   S12       1.0  0.6216759385117426  0.23501593146271196  0.174378474352558  1.0000
  N   N1        1.0  0.09439458497993064  0.8351919689835156  0.20082468128241257  1.0000
  N   N2        1.0  0.9056036658748143  0.1648047332977143  0.7991758603985629  1.0000
  N   N3        1.0  0.10525503693543213  0.2723905098506449  0.944354039961098  1.0000
  N   N4        1.0  0.894736846636121  0.7275977649052409  0.055649013040231024  1.0000
  O   O1        1.0  0.2160886542764332  0.14001793968854057  0.9583573261018827  1.0000
  O   O2        1.0  0.7839015303143808  0.8599682223258326  0.041653791516616065  1.0000
  O   O3        1.0  0.9432630448496372  0.27866444169835347  0.9958115012835832  1.0000
  O   O4        1.0  0.05672119411587321  0.7213335687316444  0.004185585580884822  1.0000
  O   O5        1.0  0.15331257590951716  0.39794103896033306  0.8801713371706015  1.0000
  O   O6        1.0  0.8466906613135238  0.6020334284103724  0.1198298281290207  1.0000
