data_image0
_chemical_formula_structural       Ag4H44C32N24O12
_chemical_formula_sum              "Ag4 H44 C32 N24 O12"
_cell_length_a       7.667103227717614
_cell_length_b       13.137669281053784
_cell_length_c       13.144416945444094
_cell_angle_alpha    85.12237234644027
_cell_angle_beta     73.05880849826922
_cell_angle_gamma    73.03427607783932

_space_group_name_H-M_alt    "P 1"
_space_group_IT_number       1

loop_
  _space_group_symop_operation_xyz
  'x, y, z'

loop_
  _atom_site_type_symbol
  _atom_site_label
  _atom_site_symmetry_multiplicity
  _atom_site_fract_x
  _atom_site_fract_y
  _atom_site_fract_z
  _atom_site_occupancy
  Ag  Ag1       1.0  0.7122321483366818  0.6625353191059702  0.9121085753174115  1.0000
  Ag  Ag2       1.0  0.28665105588737566  0.3375505306172286  0.08790434557742091  1.0000
  Ag  Ag3       1.0  0.12444249521090711  0.8375079065694706  0.412160367569399  1.0000
  Ag  Ag4       1.0  0.37403660659487786  0.1624410648987507  0.5879267670811288  1.0000
  H   H1        1.0  0.4596003993690589  0.7784528975846144  0.25458393911043237  1.0000
  H   H2        1.0  0.4924495177266127  0.2216838835823012  0.7454964497623778  1.0000
  H   H3        1.0  0.9881141426267136  0.7215640665651648  0.7545913822633139  1.0000
  H   H4        1.0  0.46425170205753113  0.278284633623251  0.2456336293977017  1.0000
  H   H5        1.0  0.6241691316785138  0.7513406576495002  0.1305088604004396  1.0000
  H   H6        1.0  0.5059788378876249  0.2486679991043275  0.8696379756898978  1.0000
  H   H7        1.0  0.12547502313743297  0.7487351959820714  0.6304893415195424  1.0000
  H   H8        1.0  0.5047845576707104  0.251341104095431  0.36978055666729404  1.0000
  H   H9        1.0  0.5179526334564959  0.4851466712813561  0.989042594998125  1.0000
  H   H10       1.0  0.9918876684288237  0.5149789686322492  0.0108481038144035  1.0000
  H   H11       1.0  0.7527573106303652  0.014858452899368  0.4890992388012593  1.0000
  H   H12       1.0  0.2567300462329597  0.9850292416756403  0.5110491424267138  1.0000
  H   H13       1.0  0.899514655851668  0.6514457930413401  0.43757000455099165  1.0000
  H   H14       1.0  0.9885191933565027  0.3482930862215667  0.562334294663998  1.0000
  H   H15       1.0  0.300888673125073  0.8483801781945104  0.9375988322177803  1.0000
  H   H16       1.0  0.08730796945688722  0.1516388240088204  0.062362184529519006  1.0000
  H   H17       1.0  0.888645799034926  0.4680886166566438  0.3999049588430524  1.0000
  H   H18       1.0  0.7562716892625192  0.5319701757370865  0.5999989074754525  1.0000
  H   H19       1.0  0.10648599516336786  0.0318647802765568  0.8999388210654047  1.0000
  H   H20       1.0  0.03859814608296119  0.9680531548431547  0.10002521085279881  1.0000
  H   H21       1.0  0.057002327085228996  0.3958622588454048  0.2893625489179996  1.0000
  H   H22       1.0  0.7424321966202645  0.6040023574191693  0.7105813424743772  1.0000
  H   H23       1.0  0.20268514003910817  0.1040362276250448  0.7893889643449371  1.0000
  H   H24       1.0  0.0967020110935622  0.8960265437877268  0.21063126116360556  1.0000
  H   H25       1.0  0.8755435651867602  0.5090979784910488  0.16846345884768968  1.0000
  H   H26       1.0  0.5535197891764838  0.49087645869902735  0.8314687237534528  1.0000
  H   H27       1.0  0.1345566790607078  0.9908250808093799  0.6684848662499264  1.0000
  H   H28       1.0  0.7945840269068327  0.0092448528376607  0.3314516194994185  1.0000
  H   H29       1.0  0.7083853141936277  0.5808516288403354  0.2797645820427875  1.0000
  H   H30       1.0  0.5690038024263587  0.4191299705840166  0.7202225656173198  1.0000
  H   H31       1.0  0.03897923103981071  0.9190961003781483  0.7797640763346864  1.0000
  H   H32       1.0  0.738429889159832  0.0809141479832931  0.2201354177454178  1.0000
  H   H33       1.0  0.595246337913949  0.43716527228496466  0.22272702885375392  1.0000
  H   H34       1.0  0.2554298959488152  0.5628696459945246  0.777242207378933  1.0000
  H   H35       1.0  0.782393632737957  0.0629257987070204  0.7226404042456309  1.0000
  H   H36       1.0  0.5684536574852855  0.9372340607703293  0.2773531772357316  1.0000
  H   H37       1.0  0.6167543843452564  0.4154485821681604  0.35441617660425356  1.0000
  H   H38       1.0  0.38672141975121815  0.5846452255931212  0.645564290792656  1.0000
  H   H39       1.0  0.7821017493754359  0.0846552216847485  0.8543476966502723  1.0000
  H   H40       1.0  0.721450239302527  0.9153430896195687  0.14565629641998606  1.0000
  H   H41       1.0  0.7923633520376402  0.3388484866280947  0.24760946726327404  1.0000
  H   H42       1.0  0.379181892591454  0.6611760862018912  0.7523892657462455  1.0000
  H   H43       1.0  0.8814202428575373  0.16114788371073982  0.7475302157091692  1.0000
  H   H44       1.0  0.7904646445825988  0.8389021548411009  0.25251174236046836  1.0000
  C   C1        1.0  0.44174310421799856  0.5325678243968994  0.06092539843229618  1.0000
  C   C2        1.0  0.035065366732318935  0.4675697525738229  0.9389442628160651  1.0000
  C   C3        1.0  0.7240322864400714  0.9674300404614797  0.5609822015698143  1.0000
  C   C4        1.0  0.2525962458767027  0.0324218429421634  0.4391231155632909  1.0000
  C   C5        1.0  0.21243485626567365  0.5608896861201913  0.21544628830997684  1.0000
  C   C6        1.0  0.988893916444894  0.4391818391344629  0.7843324821435331  1.0000
  C   C7        1.0  0.5232107871657802  0.9391065871305742  0.7155477579078992  1.0000
  C   C8        1.0  0.17823242761286198  0.0608320388881438  0.2844624246928902  1.0000
  C   C9        1.0  0.2637207423629702  0.6488490852158009  0.23784686085133444  1.0000
  C   C10       1.0  0.15046047489549622  0.3511961785131916  0.7621266470181284  1.0000
  C   C11       1.0  0.6625182259344911  0.8511766327758608  0.7379072809055245  1.0000
  C   C12       1.0  0.25217252157692377  0.1486792296468238  0.262145181110526  1.0000
  C   C13       1.0  0.42098519200526147  0.6741548505067314  0.1641156567405275  1.0000
  C   C14       1.0  0.25919094699421663  0.325921449570771  0.8359507863203534  1.0000
  C   C15       1.0  0.8450711094263  0.8258883751687023  0.664172488460629  1.0000
  C   C16       1.0  0.33542155537580964  0.1739770368996787  0.3360512011001546  1.0000
  C   C17       1.0  0.021582625239048376  0.6349575339431723  0.3671316955525655  1.0000
  C   C18       1.0  0.023748629698332177  0.3648784333843196  0.6327513608581299  1.0000
  C   C19       1.0  0.4064579010707095  0.864937672223981  0.8671816051261629  1.0000
  C   C20       1.0  0.13912531579033077  0.1350518852384539  0.1327737493414887  1.0000
  C   C21       1.0  0.9542435789492032  0.47365287688225527  0.3142149062095356  1.0000
  C   C22       1.0  0.7421746612526479  0.5262706288641112  0.6856435129923356  1.0000
  C   C23       1.0  0.17772025634248953  0.0262503844110427  0.8142602756358528  1.0000
  C   C24       1.0  0.018742642158144845  0.9737503143047023  0.18567673282015562  1.0000
  C   C25       1.0  0.8048943766760459  0.501950864491306  0.25339220947739693  1.0000
  C   C26       1.0  0.5604043773332068  0.4980132272492668  0.7465701734933319  1.0000
  C   C27       1.0  0.05673148209164931  0.9979658283786605  0.7534061186150326  1.0000
  C   C28       1.0  0.808681253303199  0.0020539696284771  0.24654383290187806  1.0000
  C   C29       1.0  0.6964186564866783  0.4186668127677606  0.270430489133993  1.0000
  C   C30       1.0  0.3857652936847632  0.5813768593536182  0.7295493130738748  1.0000
  C   C31       1.0  0.8650864474135744  0.0813669603500529  0.7703712072098626  1.0000
  C   C32       1.0  0.7172854578182996  0.9186886488284431  0.22962481622233352  1.0000
  N   N1        1.0  0.5030410347811768  0.6147433214158866  0.07364768860912108  1.0000
  N   N2        1.0  0.19120250796072458  0.38535605697205  0.9263935541044291  1.0000
  N   N3        1.0  0.8675763619029911  0.8852855797910025  0.5736827642324087  1.0000
  N   N4        1.0  0.32670989453014704  0.11457028263168213  0.4265222126317241  1.0000
  N   N5        1.0  0.30048678183861455  0.499000819775013  0.1281341528785802  1.0000
  N   N6        1.0  0.9276858790029577  0.5011407362147509  0.8716022804284976  1.0000
  N   N7        1.0  0.5492924021592033  0.0010146498552146  0.6282573577890532  1.0000
  N   N8        1.0  0.17869782965290434  0.9989287509863517  0.37178498492922074  1.0000
  N   N9        1.0  0.49145991480313717  0.752438866904555  0.17851287962770354  1.0000
  N   N10       1.0  0.4223731241649419  0.24768916042047107  0.8215684753962833  1.0000
  N   N11       1.0  0.993887945190217  0.7476529028031749  0.6785490375313756  1.0000
  N   N12       1.0  0.4201968740147352  0.2522785609812672  0.3217144197736204  1.0000
  N   N13       1.0  0.14187724210070496  0.69395524505385  0.3331989743139516  1.0000
  N   N14       1.0  0.1690629582745233  0.305971443907751  0.6668249666746178  1.0000
  N   N15       1.0  0.5858097156546126  0.8060195414941022  0.8332316749983876  1.0000
  N   N16       1.0  0.22566952158585002  0.1938960062141817  0.1668112199282845  1.0000
  N   N17       1.0  0.06035286155285763  0.5524732650466717  0.2995136926643553  1.0000
  N   N18       1.0  0.9124676054991812  0.44745421971873617  0.7002573124109119  1.0000
  N   N19       1.0  0.3626886110026535  0.9474513858613776  0.7995956068932274  1.0000
  N   N20       1.0  0.11014203684305103  0.0525676163419533  0.20034977151252062  1.0000
  N   N21       1.0  0.0036299732915238245  0.7485919512966319  0.993416926776149  1.0000
  N   N22       1.0  0.7453538037584766  0.2514891236037258  0.0066613746893153716  1.0000
  N   N23       1.0  0.5021786565107577  0.7514854939425535  0.4932537375803463  1.0000
  N   N24       1.0  0.7468908949697807  0.2485008803046469  0.5066594640918396  1.0000
  O   O1        1.0  0.8814258942856271  0.6996882156867557  0.044402253705726494  1.0000
  O   O2        1.0  0.6252985055271696  0.3003673934917401  0.9556066124968583  1.0000
  O   O3        1.0  0.3310352610537068  0.8002706547850309  0.5442791804875783  1.0000
  O   O4        1.0  0.675895123722782  0.19956212932721942  0.4555599699371484  1.0000
  O   O5        1.0  0.09794879993673085  0.7790895406310199  0.04248333550300028  1.0000
  O   O6        1.0  0.9191992100323816  0.2209406028256211  0.9576432261595046  1.0000
  O   O7        1.0  0.6270727660809498  0.7211502485849977  0.5422707874813284  1.0000
  O   O8        1.0  0.8903475911380527  0.2789531088219803  0.45773241899987466  1.0000
  O   O9        1.0  0.02774381981583218  0.7651597907756056  0.8946245327097416  1.0000
  O   O10       1.0  0.6871704716046949  0.23501041415124754  0.10545843201679614  1.0000
  O   O11       1.0  0.5428102761418004  0.7348643356084423  0.3944767753295793  1.0000
  O   O12       1.0  0.671914492730302  0.2651419337339576  0.6054141834666353  1.0000
