data_image0
_chemical_formula_structural       Zn4H28C40N4O12
_chemical_formula_sum              "Zn4 H28 C40 N4 O12"
_cell_length_a       5.114499559000382
_cell_length_b       10.774992388001053
_cell_length_c       17.639591103001017
_cell_angle_alpha    90.0000326625179
_cell_angle_beta     89.99997856448668
_cell_angle_gamma    90.00003865943317

_space_group_name_H-M_alt    "P 1"
_space_group_IT_number       1

loop_
  _space_group_symop_operation_xyz
  'x, y, z'

loop_
  _atom_site_type_symbol
  _atom_site_label
  _atom_site_symmetry_multiplicity
  _atom_site_fract_x
  _atom_site_fract_y
  _atom_site_fract_z
  _atom_site_occupancy
  Zn  Zn1       1.0  0.4212120172020023  0.1011994506807383  0.5160261285718735  1.0000
  Zn  Zn2       1.0  0.9212126475760627  0.8988000793444614  0.48397391044510835  1.0000
  Zn  Zn3       1.0  0.4212120725482792  0.6012000213554598  0.983974137899473  1.0000
  Zn  Zn4       1.0  0.9212125922304468  0.39880043674464366  0.016025901117672  1.0000
  H   H1        1.0  0.3878173949333714  0.9106431332608195  0.4313355332630877  1.0000
  H   H2        1.0  0.8878167664821178  0.0893582422153045  0.56866450940052  1.0000
  H   H3        1.0  0.3878153168869361  0.410642611506823  0.0686649075867578  1.0000
  H   H4        1.0  0.8878168893017249  0.5893569078191874  0.9313351350766297  1.0000
  H   H5        1.0  0.9504542480648299  0.051841822135372716  0.718674779396487  1.0000
  H   H6        1.0  0.4504531668936453  0.9481595734077432  0.2813252564280688  1.0000
  H   H7        1.0  0.9504526079485204  0.5518403483235514  0.7813254120298652  1.0000
  H   H8        1.0  0.45045285178378697  0.4481601191443404  0.2186746237946338  1.0000
  H   H9        1.0  0.4138408517680858  0.3751125199519904  0.765495678412961  1.0000
  H   H10       1.0  0.9138394574531292  0.6248888638611874  0.2345043614092788  1.0000
  H   H11       1.0  0.4138392716688131  0.8751110026261271  0.7345046846415642  1.0000
  H   H12       1.0  0.9138390823259429  0.12488852503666692  0.2654947882738981  1.0000
  H   H13       1.0  0.2112422734893045  0.3962550208164685  0.8924306083232809  1.0000
  H   H14       1.0  0.7112429670650686  0.6037453700156092  0.107570020526218  1.0000
  H   H15       1.0  0.21124281132711087  0.8962543135958114  0.6075697842451007  1.0000
  H   H16       1.0  0.7112443844524777  0.10374514916141919  0.3924302776975567  1.0000
  H   H17       1.0  0.5711136659863458  0.1855399092757821  0.024840146217904605  1.0000
  H   H18       1.0  0.07111346065681091  0.8144585805128842  0.975159931024848  1.0000
  H   H19       1.0  0.5711137326304795  0.6855395436838593  0.47515962900046566  1.0000
  H   H20       1.0  0.07111143878753275  0.31445894610423153  0.5248398813358292  1.0000
  H   H21       1.0  0.44816516163361797  0.998391008678233  0.947717696506679  1.0000
  H   H22       1.0  0.9481670256344544  0.0016085299819295  0.05228177266076269  1.0000
  H   H23       1.0  0.4481650598131353  0.4983913997740075  0.552282139000333  1.0000
  H   H24       1.0  0.9481651722284073  0.5016072108112013  0.4477178970736162  1.0000
  H   H25       1.0  0.6549772417231525  0.9658350441104061  0.8224211243436912  1.0000
  H   H26       1.0  0.15497499470111362  0.03416532869496791  0.1775783768361947  1.0000
  H   H27       1.0  0.6549750240660759  0.4658346235780613  0.6775781102919254  1.0000
  H   H28       1.0  0.1549752571316603  0.5341648211523591  0.322421957794468  1.0000
  C   C1        1.0  0.006788147962240002  0.1267605351336414  0.7568299234624548  1.0000
  C   C2        1.0  0.5067870954608866  0.8732397901966422  0.24317016080412662  1.0000
  C   C3        1.0  0.006786556755493201  0.6267599539363857  0.7431703971960388  1.0000
  C   C4        1.0  0.5067867314411034  0.3732394433189441  0.2568302539770499  1.0000
  C   C5        1.0  0.19021183947479162  0.21319124135550277  0.7338702126777861  1.0000
  C   C6        1.0  0.690208679494802  0.786810070813047  0.2661298515617503  1.0000
  C   C7        1.0  0.19020826361174412  0.7131906814960942  0.766130118175532  1.0000
  C   C8        1.0  0.6902083449055213  0.2868087745220221  0.23386994606388362  1.0000
  C   C9        1.0  0.26522996800936494  0.3095449410970303  0.784157672275505  1.0000
  C   C10       1.0  0.7652286907907568  0.6904563951060112  0.2158435175861158  1.0000
  C   C11       1.0  0.26522841183151513  0.8095434064274517  0.7158432509849604  1.0000
  C   C12       1.0  0.7652263365163351  0.1904551455497341  0.2841568050632546  1.0000
  C   C13       1.0  0.15281424057665302  0.3212999525531757  0.8546570470766142  1.0000
  C   C14       1.0  0.6528149922477127  0.6786994914850766  0.1453430212456794  1.0000
  C   C15       1.0  0.15281472999461704  0.8212992804382748  0.6453433256619193  1.0000
  C   C16       1.0  0.6528145028293937  0.1787001636002472  0.3546573095669387  1.0000
  C   C17       1.0  0.6618081383607691  0.1681139005062846  0.9698405014746924  1.0000
  C   C18       1.0  0.16180916914138527  0.8318874025631972  0.0301595658659011  1.0000
  C   C19       1.0  0.6618087754271756  0.6681140494174614  0.5301591952180474  1.0000
  C   C20       1.0  0.16180853207468004  0.33188632557686054  0.4698403052158183  1.0000
  C   C21       1.0  0.5906808991624717  0.06436251937018511  0.9260577262978699  1.0000
  C   C22       1.0  0.09068006602952751  0.9356359766871661  0.0739423488084512  1.0000
  C   C23       1.0  0.5906795248802865  0.5643627089718705  0.5739425087891306  1.0000
  C   C24       1.0  0.09067948508686642  0.43563671516006514  0.42605756631746067  1.0000
  C   C25       1.0  0.7050596689955031  0.047390799426686704  0.8560317174592953  1.0000
  C   C26       1.0  0.2050568149940233  0.9526095894235665  0.1439677782523177  1.0000
  C   C27       1.0  0.7050582049505324  0.5473901260335551  0.6439679322979401  1.0000
  C   C28       1.0  0.2050602342638399  0.4526093347421138  0.35603156341340286  1.0000
  C   C29       1.0  0.8898578870554915  0.13479319860523017  0.8294449385666737  1.0000
  C   C30       1.0  0.3898568299945283  0.8652063213747426  0.1705551038738378  1.0000
  C   C31       1.0  0.8898583441558827  0.634792549921471  0.6705547215748666  1.0000
  C   C32       1.0  0.3898583281196367  0.36520697005880715  0.3294453208655383  1.0000
  C   C33       1.0  0.9598628214004281  0.23559608800386667  0.8784024364144828  1.0000
  C   C34       1.0  0.45986168384936843  0.7644043824785741  0.12159759838262121  1.0000
  C   C35       1.0  0.9598613860312357  0.7355953938199846  0.6215972513311172  1.0000
  C   C36       1.0  0.4598631192182695  0.264404148587289  0.3784022165592589  1.0000
  C   C37       1.0  0.3141458082176457  0.2065183668388215  0.6567714788133543  1.0000
  C   C38       1.0  0.8141445141170466  0.7934829850349276  0.3432285718942013  1.0000
  C   C39       1.0  0.31414604397763674  0.7065188067084948  0.8432288361747595  1.0000
  C   C40       1.0  0.814144278355734  0.2934806890154534  0.1567712145324691  1.0000
  N   N1        1.0  0.8419333604443864  0.2497418190074541  0.9477918088803393  1.0000
  N   N2        1.0  0.34193424696235303  0.7502576856194452  0.0522088056993226  1.0000
  N   N3        1.0  0.8419339692467603  0.749741060335474  0.5522084635942833  1.0000
  N   N4        1.0  0.34193168293484183  0.2502584442908428  0.4477915840789208  1.0000
  O   O1        1.0  0.5012629043598339  0.2756534727348523  0.640156583078543  1.0000
  O   O2        1.0  0.0012594492674509  0.724350563124517  0.3598435017920991  1.0000
  O   O3        1.0  0.5012592083701295  0.775652071895287  0.8598431687466288  1.0000
  O   O4        1.0  0.0012572795776933004  0.2243473235883755  0.1401563492169586  1.0000
  O   O5        1.0  0.21327374046511954  0.12471966356828548  0.6106394482931563  1.0000
  O   O6        1.0  0.7132725034716999  0.8752825840638463  0.38936061342839423  1.0000
  O   O7        1.0  0.2132719618644714  0.6247192182369119  0.8893614160129317  1.0000
  O   O8        1.0  0.7132723268444965  0.37528024517046527  0.11063921261480661  1.0000
  O   O9        1.0  0.2767899184948918  0.9506440894783238  0.4693602372579733  1.0000
  O   O10       1.0  0.7767892819400545  0.04935539427823699  0.530640384434534  1.0000
  O   O11       1.0  0.27678788919124037  0.45064446045979883  0.030639662795181304  1.0000
  O   O12       1.0  0.7767893560195775  0.5493559513708205  0.9693598250844674  1.0000
