data_image0
_chemical_formula_structural       Zn4H24C24N6O18
_chemical_formula_sum              "Zn4 H24 C24 N6 O18"
_cell_length_a       7.0127930216730725
_cell_length_b       8.625218229227654
_cell_length_c       13.309419732971172
_cell_angle_alpha    97.33251706633004
_cell_angle_beta     98.54817342960875
_cell_angle_gamma    92.68413814609445

_space_group_name_H-M_alt    "P 1"
_space_group_IT_number       1

loop_
  _space_group_symop_operation_xyz
  'x, y, z'

loop_
  _atom_site_type_symbol
  _atom_site_label
  _atom_site_symmetry_multiplicity
  _atom_site_fract_x
  _atom_site_fract_y
  _atom_site_fract_z
  _atom_site_occupancy
  Zn  Zn1       1.0  0.5749910419258056  0.8646070373851698  0.9269313814000032  1.0000
  Zn  Zn2       1.0  0.4250168116222284  0.13539028301863706  0.07306718851808112  1.0000
  Zn  Zn3       1.0  0.738569387087921  0.26194275366675157  0.9348778574614801  1.0000
  Zn  Zn4       1.0  0.2614369824382834  0.7380545528312507  0.06512284188986679  1.0000
  H   H1        1.0  0.775194522327638  0.06859367839101078  0.07275369191334138  1.0000
  H   H2        1.0  0.22481181759300742  0.9314036027178147  0.927248505557941  1.0000
  H   H3        1.0  0.9076310653476652  0.8469685251049125  0.8370469126838673  1.0000
  H   H4        1.0  0.09238009470512049  0.15301935259150665  0.16295108989102403  1.0000
  H   H5        1.0  0.9018433626756065  0.7752750967917378  0.9423557673969827  1.0000
  H   H6        1.0  0.098163843359842  0.22471635455904249  0.05764297621663421  1.0000
  H   H7        1.0  0.36930382998496464  0.8194551097129971  0.6735179204159324  1.0000
  H   H8        1.0  0.6307072528103392  0.18054565076075585  0.32648272833401404  1.0000
  H   H9        1.0  0.6311215496449664  0.5231563256549233  0.843226389632925  1.0000
  H   H10       1.0  0.3688713571921056  0.4768365133580019  0.15677278970716202  1.0000
  H   H11       1.0  0.8545309243436209  0.5235620225951149  0.8685195848204049  1.0000
  H   H12       1.0  0.14546329232138797  0.4764425672184344  0.13147849806864545  1.0000
  H   H13       1.0  0.6308744401606888  0.27406467431889325  0.6789434467199061  1.0000
  H   H14       1.0  0.3691256022890671  0.7259409392761427  0.3210582184684371  1.0000
  H   H15       1.0  0.23522144788464772  0.5906911180960818  0.6522785089673279  1.0000
  H   H16       1.0  0.7647399632823523  0.4093174781527508  0.3477209562676011  1.0000
  H   H17       1.0  0.3788234930542203  0.14543052125238626  0.5085923625023981  1.0000
  H   H18       1.0  0.6211843801727142  0.8545808278112614  0.4914104667835631  1.0000
  H   H19       1.0  0.2877986930600044  0.952768768535811  0.5071730090811783  1.0000
  H   H20       1.0  0.712208830146615  0.0472390921019539  0.4928279768661883  1.0000
  H   H21       1.0  0.10171909548017061  0.38494823542559675  0.5041522281436956  1.0000
  H   H22       1.0  0.8982562352593251  0.6150554593460312  0.4958464561461043  1.0000
  H   H23       1.0  0.9992315102570403  0.8791462118402219  0.46172017245453406  1.0000
  H   H24       1.0  0.0007761723406857974  0.12084989920813168  0.5382805295705639  1.0000
  C   C1        1.0  0.28469462197912787  0.5652330426359028  0.8529039556783646  1.0000
  C   C2        1.0  0.7152989175677431  0.4347656527354572  0.1470957990261539  1.0000
  C   C3        1.0  0.44983138696348135  0.9311258063535346  0.6993662688925684  1.0000
  C   C4        1.0  0.5501810237061164  0.06887377136516189  0.3006336334711649  1.0000
  C   C5        1.0  0.8250681161146929  0.7447709442784213  0.10577916268469781  1.0000
  C   C6        1.0  0.1749283174619123  0.2552277154315945  0.894220078453124  1.0000
  C   C7        1.0  0.20436225878778205  0.43910523924768075  0.7659658499376436  1.0000
  C   C8        1.0  0.7956190686867687  0.5609006886608794  0.23403428454444256  1.0000
  C   C9        1.0  0.582375811054746  0.16460155522406686  0.7018208099663004  1.0000
  C   C10       1.0  0.4176305552278805  0.8354086975242152  0.2981787902602663  1.0000
  C   C11       1.0  0.8547679038606193  0.7114500239252664  0.21508413062448997  1.0000
  C   C12       1.0  0.14522183781643608  0.28855344176131564  0.7849149820717047  1.0000
  C   C13       1.0  0.18869365661579002  0.47355699484086233  0.6651817140742226  1.0000
  C   C14       1.0  0.811282875456044  0.526444345904018  0.3348161087564706  1.0000
  C   C15       1.0  0.41928904829753594  0.030769688903369292  0.5283532669790035  1.0000
  C   C16       1.0  0.5807185718454877  0.9692393176169102  0.4716493321611779  1.0000
  C   C17       1.0  0.9303077530535974  0.8269461176072636  0.29789619415987545  1.0000
  C   C18       1.0  0.0696844882245387  0.17305378590832984  0.7021028088109278  1.0000
  C   C19       1.0  0.11282423917442937  0.3600563957281862  0.5830042125356699  1.0000
  C   C20       1.0  0.8871555517502402  0.6399484104758242  0.416994191006964  1.0000
  C   C21       1.0  0.9462586740239729  0.7882500564194497  0.397784774527878  1.0000
  C   C22       1.0  0.0537336937961186  0.21175101836782764  0.6022143435158114  1.0000
  C   C23       1.0  0.9921881419445313  0.9940420196660535  0.28456597246189125  1.0000
  C   C24       1.0  0.007821330286986896  0.005957555630217793  0.7154366906484386  1.0000
  N   N1        1.0  0.5288806255280107  0.9818230663389464  0.7944030967844783  1.0000
  N   N2        1.0  0.47113319514950547  0.018176461812608093  0.20559842144582777  1.0000
  N   N3        1.0  0.6126683775478765  0.12871966291486098  0.7960307862262043  1.0000
  N   N4        1.0  0.3873426756418611  0.8712810721697223  0.20397136064367777  1.0000
  N   N5        1.0  0.4789664558253932  0.04306896477615398  0.6387216025212795  1.0000
  N   N6        1.0  0.521041859482132  0.9569330026306343  0.36127967486825713  1.0000
  O   O1        1.0  0.4358632607017867  0.6453850693876432  0.8414240774745423  1.0000
  O   O2        1.0  0.5641314424521512  0.3546101768528087  0.158570206338176  1.0000
  O   O3        1.0  0.6785203445322382  0.08313101142238107  0.013653359215759085  1.0000
  O   O4        1.0  0.3214872115235253  0.9168639283542815  0.9863472277364524  1.0000
  O   O5        1.0  0.8238870640963614  0.7813061144686201  0.8735916607316626  1.0000
  O   O6        1.0  0.1761214550106089  0.21868414143251155  0.1264070855557051  1.0000
  O   O7        1.0  0.6523820462547931  0.7501521924223127  0.0624206239807421  1.0000
  O   O8        1.0  0.34761828881110546  0.24984178583460448  0.9375740157456395  1.0000
  O   O9        1.0  0.1958613670962635  0.5813383720508083  0.9296481410623871  1.0000
  O   O10       1.0  0.8041422349421624  0.418660141380215  0.07035318692854281  1.0000
  O   O11       1.0  0.7386856639771082  0.45180216285359615  0.8478166843281659  1.0000
  O   O12       1.0  0.2613136340236721  0.5481964358059056  0.15218354136289491  1.0000
  O   O13       1.0  0.028412434205392894  0.24046003155897466  0.9395896311948707  1.0000
  O   O14       1.0  0.9715881472613433  0.7595373462617017  0.06041209528987675  1.0000
  O   O15       1.0  0.9335124282045372  0.0384565910430013  0.197670585875116  1.0000
  O   O16       1.0  0.0664946857706425  0.9615477303905351  0.8023315529735271  1.0000
  O   O17       1.0  0.09595605177881343  0.07584868858441497  0.35982294723018554  1.0000
  O   O18       1.0  0.9040600006130717  0.9241449221581984  0.640178980188921  1.0000
