data_image0
_chemical_formula_structural       Cd2H52C32S4N8O12
_chemical_formula_sum              "Cd2 H52 C32 S4 N8 O12"
_cell_length_a       8.113201515802416
_cell_length_b       9.415021930074076
_cell_length_c       13.801337398250404
_cell_angle_alpha    90.0004357419233
_cell_angle_beta     89.92762408552922
_cell_angle_gamma    89.99988660663077

_space_group_name_H-M_alt    "P 1"
_space_group_IT_number       1

loop_
  _space_group_symop_operation_xyz
  'x, y, z'

loop_
  _atom_site_type_symbol
  _atom_site_label
  _atom_site_symmetry_multiplicity
  _atom_site_fract_x
  _atom_site_fract_y
  _atom_site_fract_z
  _atom_site_occupancy
  Cd  Cd1       1.0  1.239245953900402e-06  6.358446925000001e-07  0.500000031224367  1.0000
  Cd  Cd2       1.0  0.5000014262594094  0.5000018063078074  0.9999988270485289  1.0000
  H   H1        1.0  0.7308275304126824  0.8922532570807393  0.3815700805390492  1.0000
  H   H2        1.0  0.23082834499109592  0.6077472801574189  0.8815711851059971  1.0000
  H   H3        1.0  0.2691740557612832  0.1077469595956444  0.6184304114474058  1.0000
  H   H4        1.0  0.7691756909744782  0.39225612292615614  0.1184314847509711  1.0000
  H   H5        1.0  0.9016133796199668  0.8096827470733671  0.3470196116464947  1.0000
  H   H6        1.0  0.4016140285484511  0.6903107455560473  0.8470175260368433  1.0000
  H   H7        1.0  0.09838818615402543  0.1903132210893617  0.6529837785890038  1.0000
  H   H8        1.0  0.598388774868866  0.3096915953961457  0.1529851417338221  1.0000
  H   H9        1.0  0.9033898792082127  0.8091671345410772  0.6454614643670238  1.0000
  H   H10       1.0  0.40339051353760896  0.6908358132335337  0.14545932320557844  1.0000
  H   H11       1.0  0.09661168656455033  0.1908298957540708  0.3545419258712527  1.0000
  H   H12       1.0  0.596606152642096  0.30916334130656514  0.8545397113139329  1.0000
  H   H13       1.0  0.34899504273805354  0.3122092064615175  0.3717043542591084  1.0000
  H   H14       1.0  0.8490044936870264  0.1877965366566912  0.8717138463184424  1.0000
  H   H15       1.0  0.6509893438504478  0.6877963208474114  0.6282881383565311  1.0000
  H   H16       1.0  0.15100070851336517  0.8122058043454814  0.1282982449648244  1.0000
  H   H17       1.0  0.3048024085463439  0.5699599301243197  0.3401896257023438  1.0000
  H   H18       1.0  0.8048212049733795  0.9300304653047747  0.8401938826833939  1.0000
  H   H19       1.0  0.695180735298834  0.430038162266733  0.6598043139403841  1.0000
  H   H20       1.0  0.1951975909970969  0.0699570058041274  0.15981315952431166  1.0000
  H   H21       1.0  0.5421268100652838  0.8790179129432047  0.5246159339484604  1.0000
  H   H22       1.0  0.042133682141773904  0.6209811284718398  0.024625754784061395  1.0000
  H   H23       1.0  0.457868705183266  0.12098230366628829  0.4753715054496154  1.0000
  H   H24       1.0  0.957869034563366  0.3790137776215019  0.9753892305728724  1.0000
  H   H25       1.0  0.9941095158818104  0.9925038277979182  0.25513602850142547  1.0000
  H   H26       1.0  0.4941019551283504  0.5074853067565356  0.7551336948836249  1.0000
  H   H27       1.0  0.005896980092565201  0.0074900160958293  0.744867370062579  1.0000
  H   H28       1.0  0.5058984035912032  0.49252022057896017  0.24486607046818415  1.0000
  H   H29       1.0  0.7795924286277796  0.9889170491468631  0.22980676174378087  1.0000
  H   H30       1.0  0.2795835964097364  0.5110753568733131  0.7298087922359072  1.0000
  H   H31       1.0  0.22041409285025546  0.0110789189917  0.7701930140005757  1.0000
  H   H32       1.0  0.7204155144554394  0.4889312326076479  0.27019314473029243  1.0000
  H   H33       1.0  0.1441469829600238  0.7660319145997436  0.739396316344141  1.0000
  H   H34       1.0  0.644146545028143  0.7339778216389234  0.23939293326431965  1.0000
  H   H35       1.0  0.8558595538216736  0.23396405352681177  0.2606012857050785  1.0000
  H   H36       1.0  0.3558488885934707  0.2660287678291269  0.7606060991911575  1.0000
  H   H37       1.0  0.2649253682005154  0.8260332459791685  0.6396783075114525  1.0000
  H   H38       1.0  0.7649262966386491  0.6739688112060662  0.13967533665483237  1.0000
  H   H39       1.0  0.7350762434832488  0.17396378427994108  0.36031856164143505  1.0000
  H   H40       1.0  0.2350716071880755  0.3260335297262458  0.8603229753915043  1.0000
  H   H41       1.0  0.03133617760070711  0.5784024961887936  0.624108049683457  1.0000
  H   H42       1.0  0.531330390391723  0.9215987240714156  0.12410346772482227  1.0000
  H   H43       1.0  0.9686629332730733  0.42159665836525306  0.37589388726326683  1.0000
  H   H44       1.0  0.46865764793913917  0.0784025547407694  0.8758955522156312  1.0000
  H   H45       1.0  0.9231294998120846  0.6397446189777724  0.519598264501596  1.0000
  H   H46       1.0  0.42312235170793855  0.8602558435282364  0.0195962740365516  1.0000
  H   H47       1.0  0.07686962126537371  0.3602534734358472  0.48040222331226085  1.0000
  H   H48       1.0  0.5768669089687324  0.1397464974233458  0.9804041971202933  1.0000
  H   H49       1.0  0.14197976356745565  0.6540235531113723  0.5239555953742823  1.0000
  H   H50       1.0  0.6419778388773596  0.8459795597217905  0.023952072549100492  1.0000
  H   H51       1.0  0.8580193575075442  0.34597666356707896  0.47604489244513803  1.0000
  H   H52       1.0  0.35801512454283824  0.1540280918847543  0.9760476803071683  1.0000
  C   C1        1.0  0.41967610311558456  0.33775909949000044  0.43652325788139723  1.0000
  C   C2        1.0  0.9196917810708245  0.1622419284241872  0.9365319019002313  1.0000
  C   C3        1.0  0.580292245027195  0.6622453657119891  0.5634713813408538  1.0000
  C   C4        1.0  0.0803282423429934  0.8377497912173553  0.0634758669671669  1.0000
  C   C5        1.0  0.4497033220038063  0.4826701721394358  0.4589811123108163  1.0000
  C   C6        1.0  0.9497230228988017  0.0173299905396433  0.9589904523782093  1.0000
  C   C7        1.0  0.5502724214358778  0.5173342930563436  0.541013539412539  1.0000
  C   C8        1.0  0.0502945048062529  0.9826638533928289  0.041021659717976895  1.0000
  C   C9        1.0  0.38421516330502214  0.594302152646719  0.4016525696313308  1.0000
  C   C10       1.0  0.8842339905716943  0.9056972834334402  0.9016603219087427  1.0000
  C   C11       1.0  0.6157618075829208  0.40570231255203026  0.5983428087405969  1.0000
  C   C12       1.0  0.11578232498508362  0.09429974688130467  0.09834888985210448  1.0000
  C   C13       1.0  0.4204444502494837  0.733521252558539  0.4241390075360556  1.0000
  C   C14       1.0  0.9204623723776709  0.7664826187126579  0.9241453036724888  1.0000
  C   C15       1.0  0.579541173990954  0.2664832126129327  0.575852762595268  1.0000
  C   C16       1.0  0.07954534083637552  0.23351653585415016  0.07586027068407467  1.0000
  C   C17       1.0  0.5174647656781135  0.7686367819842134  0.5060292170606786  1.0000
  C   C18       1.0  0.017482495559640703  0.7313578476003499  0.006036736770127499  1.0000
  C   C19       1.0  0.48252950681973783  0.23136237250190564  0.49395966938118346  1.0000
  C   C20       1.0  0.9825350678601268  0.268630685642009  0.9939703033568389  1.0000
  C   C21       1.0  0.8715668498737305  0.008394874808438101  0.2867944995011982  1.0000
  C   C22       1.0  0.3715594008727976  0.49159927113322505  0.7867947046969022  1.0000
  C   C23       1.0  0.12843842374992684  0.9916021554755902  0.7132074478575487  1.0000
  C   C24       1.0  0.6284446554964305  0.5084051940667534  0.21320506690268093  1.0000
  C   C25       1.0  0.8538598953741571  0.16059653987141329  0.32282554874804237  1.0000
  C   C26       1.0  0.3538515559936998  0.33939697184355566  0.8228264034563464  1.0000
  C   C27       1.0  0.14614538845194153  0.8394004904046072  0.677174949480623  1.0000
  C   C28       1.0  0.6461463529379332  0.6606021826874978  0.1771711840166006  1.0000
  C   C29       1.0  0.02870232828595931  0.6605793692700744  0.5671769581422337  1.0000
  C   C30       1.0  0.5286979587775917  0.839422289056266  0.06717267222887807  1.0000
  C   C31       1.0  0.9712968233926774  0.3394240337816044  0.4328191822952688  1.0000
  C   C32       1.0  0.47129380270906307  0.1605779276003787  0.9328227311341235  1.0000
  S   S1        1.0  0.3490617889409507  0.8751105884639048  0.34970281444112317  1.0000
  S   S2        1.0  0.8490738557249602  0.6248883338400333  0.8497112564831679  1.0000
  S   S3        1.0  0.6509324835458373  0.12489812521396712  0.6502860720257854  1.0000
  S   S4        1.0  0.15094001003775054  0.3751076343323518  0.15029577741272246  1.0000
  N   N1        1.0  0.8539755459553651  0.9056635569900278  0.3672027628475902  1.0000
  N   N2        1.0  0.35397393158841345  0.5943323637369032  0.8672030684007905  1.0000
  N   N3        1.0  0.1460260402210523  0.09433453542152387  0.6327977291333011  1.0000
  N   N4        1.0  0.6460276545818646  0.40567103933672405  0.13279742359401325  1.0000
  N   N5        1.0  0.9869550483053474  0.19600723884472157  0.3915641396125976  1.0000
  N   N6        1.0  0.4869529536495421  0.3039899918973248  0.8915648191971997  1.0000
  N   N7        1.0  0.013044067669653702  0.8039919157053177  0.6084370727690853  1.0000
  N   N8        1.0  0.5130437023240332  0.6960123490480328  0.10843566446074958  1.0000
  O   O1        1.0  0.49890051159567167  0.9441456791196713  0.3129841888753973  1.0000
  O   O2        1.0  0.9988894013959282  0.5558451480877977  0.8129806365268235  1.0000
  O   O3        1.0  0.5011023428277284  0.055861972454565  0.6870112332587439  1.0000
  O   O4        1.0  0.0011072954009491997  0.44414550936893676  0.1870140505801672  1.0000
  O   O5        1.0  0.25777560219650303  0.9704193623869416  0.4163921228761467  1.0000
  O   O6        1.0  0.7577805402526324  0.5295772649574034  0.9163935319104721  1.0000
  O   O7        1.0  0.7422149420431057  0.029581916391144592  0.5836011047109934  1.0000
  O   O8        1.0  0.2422235110252161  0.47041870318723494  0.08360696423189039  1.0000
  O   O9        1.0  0.244482064643485  0.811749816849911  0.2748331889188548  1.0000
  O   O10       1.0  0.744479204339008  0.6882548294518571  0.7748404888521917  1.0000
  O   O11       1.0  0.755524528234446  0.18826102108643997  0.7251564429538461  1.0000
  O   O12       1.0  0.2555260335637968  0.3117528221843742  0.22516653048968743  1.0000
