data_image0
_chemical_formula_structural       Li4H36C20I4N4O8
_chemical_formula_sum              "Li4 H36 C20 I4 N4 O8"
_cell_length_a       5.055952330057799
_cell_length_b       9.945766984110556
_cell_length_c       15.93920206804483
_cell_angle_alpha    89.99981315537197
_cell_angle_beta     90.0001992880155
_cell_angle_gamma    89.99949169312069

_space_group_name_H-M_alt    "P 1"
_space_group_IT_number       1

loop_
  _space_group_symop_operation_xyz
  'x, y, z'

loop_
  _atom_site_type_symbol
  _atom_site_label
  _atom_site_symmetry_multiplicity
  _atom_site_fract_x
  _atom_site_fract_y
  _atom_site_fract_z
  _atom_site_occupancy
  Li  Li1       1.0  0.5257946368591959  0.7559279890749552  0.9435605595524945  1.0000
  Li  Li2       1.0  0.9742242620426111  0.24407132827613515  0.4435613947244262  1.0000
  Li  Li3       1.0  0.025769389477396498  0.7440681009904963  0.0564368384451157  1.0000
  Li  Li4       1.0  0.4742279684902755  0.2559304746075385  0.5564362650091396  1.0000
  H   H1        1.0  0.7772623876715413  0.23241162310253563  0.7949358496834051  1.0000
  H   H2        1.0  0.722735119739596  0.7675864607497332  0.2949378496333778  1.0000
  H   H3        1.0  0.2772561445012157  0.26759207578484023  0.20506159048222364  1.0000
  H   H4        1.0  0.2227388705678166  0.732408738808708  0.7050635322217855  1.0000
  H   H5        1.0  0.12292439610265397  0.2598791046750648  0.7772802445269349  1.0000
  H   H6        1.0  0.37707140266952166  0.7401203267380368  0.2772805902163426  1.0000
  H   H7        1.0  0.6229242954652463  0.24012127019397417  0.22271890575133566  1.0000
  H   H8        1.0  0.8770664946390879  0.7598781968537976  0.722718454138892  1.0000
  H   H9        1.0  0.0954403709895004  0.30506483665880785  0.9255554852547758  1.0000
  H   H10       1.0  0.4045590147236808  0.6949328137543062  0.4255578356101565  1.0000
  H   H11       1.0  0.5954374700114046  0.1949356624807308  0.07444363438438728  1.0000
  H   H12       1.0  0.9045536888766746  0.805066591010956  0.5744412393853793  1.0000
  H   H13       1.0  0.865765342806995  0.17212307532528834  0.9432670994592341  1.0000
  H   H14       1.0  0.6342377300042087  0.8278732272370423  0.443268250792478  1.0000
  H   H15       1.0  0.3657603962550979  0.3278792179525141  0.056731694133922886  1.0000
  H   H16       1.0  0.1342369648896096  0.6721223724602156  0.5567317776405929  1.0000
  H   H17       1.0  0.3521831398193385  0.941245726084077  0.8233447208249058  1.0000
  H   H18       1.0  0.14782700385807598  0.05876050252476972  0.3233480784767195  1.0000
  H   H19       1.0  0.8521659177484081  0.5587579373344127  0.17665178623848726  1.0000
  H   H20       1.0  0.6478303060588643  0.44124076519342753  0.6766523543303293  1.0000
  H   H21       1.0  0.11524593713242128  0.0470610676377134  0.7303370778288922  1.0000
  H   H22       1.0  0.38474737435727485  0.9529396147583641  0.2303395089038388  1.0000
  H   H23       1.0  0.6152446191018156  0.45294135285990206  0.2696608091192161  1.0000
  H   H24       1.0  0.8847526140165485  0.5470578686455385  0.7696620535507035  1.0000
  H   H25       1.0  0.8359970428551975  0.006367617568443499  0.7828859481535273  1.0000
  H   H26       1.0  0.664004289530645  0.9936285184011171  0.2828855408834983  1.0000
  H   H27       1.0  0.33599490706646407  0.49363279938936705  0.21711281225930884  1.0000
  H   H28       1.0  0.16400419451576198  0.5063679521616181  0.7171151481148852  1.0000
  H   H29       1.0  0.29013604204592974  0.0646091979547663  0.9784198395947711  1.0000
  H   H30       1.0  0.2098658951972537  0.9353881759577977  0.4784202292489964  1.0000
  H   H31       1.0  0.7901264037860684  0.4353904209162708  0.021580124459752895  1.0000
  H   H32       1.0  0.7098681372155298  0.5646090926957329  0.5215811382574386  1.0000
  H   H33       1.0  0.4495647683361952  0.1467796971217297  0.892980812639962  1.0000
  H   H34       1.0  0.050436241684941804  0.8532231509396198  0.39297930948644927  1.0000
  H   H35       1.0  0.9495614433617586  0.3532212118086664  0.10702058390563708  1.0000
  H   H36       1.0  0.5504320469479821  0.6467778549250269  0.6070199981387103  1.0000
  C   C1        1.0  0.9771321289554108  0.20055536187717146  0.8125159199181766  1.0000
  C   C2        1.0  0.5228635913474234  0.7994436354858439  0.3125163775253199  1.0000
  C   C3        1.0  0.47712909621861843  0.2994474333239268  0.18748299782008354  1.0000
  C   C4        1.0  0.022863750200897898  0.7005544786768497  0.6874822719850116  1.0000
  C   C5        1.0  0.037685460578138895  0.20364297609394552  0.905979293904444  1.0000
  C   C6        1.0  0.4623137126937777  0.796354776712306  0.40598087504352515  1.0000
  C   C7        1.0  0.5376849622247377  0.29635979508109506  0.0940172518163678  1.0000
  C   C8        1.0  0.9623064090807745  0.7036423560289363  0.5940163821825164  1.0000
  C   C9        1.0  0.18114292145980926  0.9876828724280531  0.8544377282349911  1.0000
  C   C10       1.0  0.3188596482185914  0.012316155404164402  0.3544394888198426  1.0000
  C   C11       1.0  0.681138037589669  0.5123155315685112  0.14556047032789368  1.0000
  C   C12       1.0  0.8188598266703478  0.4876853444800702  0.6455611346414469  1.0000
  C   C13       1.0  0.020396945217676397  0.8791776605507237  0.8993471488632919  1.0000
  C   C14       1.0  0.4796239126106698  0.12081711055247266  0.3993425941965682  1.0000
  C   C15       1.0  0.5203659508809794  0.6208154375475631  0.1006602812608079  1.0000
  C   C16       1.0  0.9796274704188617  0.37918265699909176  0.6006600906299935  1.0000
  C   C17       1.0  0.2628131191708718  0.10178403658746049  0.9142760486599286  1.0000
  C   C18       1.0  0.2371881219792016  0.8982156837276422  0.4142765443540738  1.0000
  C   C19       1.0  0.762814713444932  0.39821570579231036  0.08572451232686257  1.0000
  C   C20       1.0  0.7371805236322757  0.6017834723229001  0.5857242262180478  1.0000
  I   I1        1.0  0.4975622991596822  0.5051663228760789  0.8564905681217283  1.0000
  I   I2        1.0  0.0024264476945247996  0.4948377215099456  0.3564941318244478  1.0000
  I   I3        1.0  0.997572727915106  0.9948356777224702  0.1435054736341499  1.0000
  I   I4        1.0  0.502423136188426  0.0051631981765468005  0.6435048841280986  1.0000
  N   N1        1.0  0.0165783175268572  0.05543354546759359  0.7881943647768208  1.0000
  N   N2        1.0  0.4834195775639642  0.9445648234005407  0.2881956681001867  1.0000
  N   N3        1.0  0.516576517433485  0.4445642938716787  0.21180466695530234  1.0000
  N   N4        1.0  0.9834220657049142  0.555435230240903  0.7118053769596739  1.0000
  O   O1        1.0  0.7741757908059482  0.8730899843208276  0.8863249659523402  1.0000
  O   O2        1.0  0.7258365534405868  0.1269005833438968  0.3863213707791003  1.0000
  O   O3        1.0  0.27417693852331837  0.6269019662934808  0.11368086493528298  1.0000
  O   O4        1.0  0.22582104067053166  0.3730942989866223  0.6136816585199012  1.0000
  O   O5        1.0  0.15332039626525068  0.8047244509420679  0.9487638250539445  1.0000
  O   O6        1.0  0.34670890916775216  0.19528514346371398  0.448760852974054  1.0000
  O   O7        1.0  0.653295480857878  0.6952921770330321  0.051239361536310896  1.0000
  O   O8        1.0  0.8467013598530428  0.3047091923490798  0.5512410563027358  1.0000
