data_image0
_chemical_formula_structural       Zr6H25C50Br5O33
_chemical_formula_sum              "Zr6 H25 C50 Br5 O33"
_cell_length_a       14.77756975725836
_cell_length_b       14.793289799484555
_cell_length_c       14.810936908807172
_cell_angle_alpha    60.14257956763224
_cell_angle_beta     59.95243539829725
_cell_angle_gamma    60.07716560891395

_space_group_name_H-M_alt    "P 1"
_space_group_IT_number       1

loop_
  _space_group_symop_operation_xyz
  'x, y, z'

loop_
  _atom_site_type_symbol
  _atom_site_label
  _atom_site_symmetry_multiplicity
  _atom_site_fract_x
  _atom_site_fract_y
  _atom_site_fract_z
  _atom_site_occupancy
  Zr  Zr1       1.0  0.8773752440563739  0.8831255128810865  0.6171717845404814  1.0000
  Zr  Zr2       1.0  0.12053762917539504  0.11646364058894683  0.3827325164595761  1.0000
  Zr  Zr3       1.0  0.11539840268306276  0.8789853980906415  0.6213149008139209  1.0000
  Zr  Zr4       1.0  0.8805447977679323  0.12123167887868634  0.37830675327244717  1.0000
  Zr  Zr5       1.0  0.11836917698590824  0.8821243305222736  0.37845597718924046  1.0000
  Zr  Zr6       1.0  0.8792139540996687  0.12199531572539264  0.6171310425667043  1.0000
  H   H1        1.0  0.08938395503290773  0.7190746460550557  0.5934981910161311  1.0000
  H   H2        1.0  0.09643235448781703  0.09420868840619082  0.21708775886068563  1.0000
  H   H3        1.0  0.09305267779648575  0.09176636973602108  0.5958564907226884  1.0000
  H   H4        1.0  0.7157952087743383  0.09785848876122581  0.5909236897208386  1.0000
  H   H5        1.0  0.8441122468083511  0.5920422476394125  0.6315005043287414  1.0000
  H   H6        1.0  0.15106465389428778  0.5860516388932382  0.35993761041991945  1.0000
  H   H7        1.0  0.8553299367909304  0.4194439667806121  0.6262725015597823  1.0000
  H   H8        1.0  0.5851671095226153  0.8519147228282762  0.9232780475201492  1.0000
  H   H9        1.0  0.6051952247458631  0.131950343617433  0.922809455243012  1.0000
  H   H10       1.0  0.4182183529187141  0.8565475939169573  0.0958325795420904  1.0000
  H   H11       1.0  0.13826617342896694  0.8512432905320821  0.08343179792715454  1.0000
  H   H12       1.0  0.8486735342571379  0.1413852769612449  0.09493381027170499  1.0000
  H   H13       1.0  0.12825807896361135  0.8578075204273433  0.9157915598781299  1.0000
  H   H14       1.0  0.5897882520789325  0.4321791058171911  0.6320061671431602  1.0000
  H   H15       1.0  0.5950617868538473  0.4157169504393324  0.34796212123312387  1.0000
  H   H16       1.0  0.41837159627722537  0.5997195468612944  0.6262928987585069  1.0000
  H   H17       1.0  0.133145950846519  0.5953062011708851  0.9186913265378107  1.0000
  H   H18       1.0  0.7341309613039684  0.6260400015003641  0.9656065113605122  1.0000
  H   H19       1.0  0.8226005929952221  0.5414537379868563  0.8794663586087592  1.0000
  H   H20       1.0  0.8285026695993096  0.37135214088575463  0.04818508997382783  1.0000
  H   H21       1.0  0.7399429170906087  0.45580799264381267  0.13432868782262358  1.0000
  H   H22       1.0  0.583052024428433  0.13787070032249463  0.34673734759464026  1.0000
  H   H23       1.0  0.5973439816564792  0.8514563196216898  0.6383819098889703  1.0000
  H   H24       1.0  0.4138387008386601  0.12544758941557885  0.35869081246449497  1.0000
  H   H25       1.0  0.14640029585949316  0.3578734108920898  0.15447503781142297  1.0000
  C   C1        1.0  0.9931026939764819  0.7028177715133169  0.49420445459811185  1.0000
  C   C2        1.0  0.3107656053365912  0.9972368094297084  0.20265045167126777  1.0000
  C   C3        1.0  0.003569367081602985  0.3051433582578653  0.49377665931454817  1.0000
  C   C4        1.0  0.6989611413909671  0.9976330924248842  0.8056909468209524  1.0000
  C   C5        1.0  0.9901898569810612  0.7024210113033011  0.8062672531963672  1.0000
  C   C6        1.0  0.6990000343274265  0.999928506934282  0.4916587281835447  1.0000
  C   C7        1.0  0.9960296073090263  0.3085596447702343  0.198529467758128  1.0000
  C   C8        1.0  0.3064363503898378  0.9871411358495124  0.5038132708518361  1.0000
  C   C9        1.0  0.30485047084128064  0.699980312887611  0.49266051511882125  1.0000
  C   C10       1.0  0.9885590293915598  0.9995369146118378  0.8082801035438508  1.0000
  C   C11       1.0  0.7018218398558246  0.3114537174052218  0.49271773888045794  1.0000
  C   C12       1.0  0.9975420636643763  0.9972565345973977  0.19749257036644963  1.0000
  C   C13       1.0  0.007744976077113082  0.40588138964268694  0.4905873972103194  1.0000
  C   C14       1.0  0.9963571814346538  0.6000743336708824  0.49435945662352765  1.0000
  C   C15       1.0  0.0926139322007202  0.45302848674248963  0.4159117027719503  1.0000
  C   C16       1.0  0.9128270160602766  0.5530301926118072  0.5710278603138121  1.0000
  C   C17       1.0  0.0858950519060146  0.5495553737238906  0.4177345957879267  1.0000
  C   C18       1.0  0.9192056574831259  0.4577132347292263  0.5680582875550256  1.0000
  C   C19       1.0  0.41561154969542685  0.9975250792161533  0.10517834244387109  1.0000
  C   C20       1.0  0.6034182202740439  0.9934593185581876  0.9118228552516071  1.0000
  C   C21       1.0  0.47065594858869997  0.07455797063605735  0.05640647124681659  1.0000
  C   C22       1.0  0.5524649306301441  0.9138719886589899  0.9611037020336111  1.0000
  C   C23       1.0  0.5633799255283521  0.0720931998971468  0.9607342448620668  1.0000
  C   C24       1.0  0.4602023223594287  0.9166839147529515  0.05625801279516206  1.0000
  C   C25       1.0  0.9841444992459786  0.002409847855972243  0.9102957072832678  1.0000
  C   C26       1.0  0.9939047086928311  0.9965541841443368  0.09871811126575396  1.0000
  C   C27       1.0  0.9046477471826437  0.08289923861771349  0.9620829718948937  1.0000
  C   C28       1.0  0.07318158034109244  0.915607024563279  0.048995831534448135  1.0000
  C   C29       1.0  0.9099686492533154  0.0793170564119665  0.05521111781170871  1.0000
  C   C30       1.0  0.06738602497541268  0.9193229729159925  0.9564696975918989  1.0000
  C   C31       1.0  0.40912615196778296  0.6018544010919342  0.485645269462978  1.0000
  C   C32       1.0  0.6023007226044824  0.41401265301546897  0.4900597598139597  1.0000
  C   C33       1.0  0.46070209050763117  0.5493593544827461  0.40596718021449607  1.0000
  C   C34       1.0  0.5532872708028619  0.46569139123493397  0.5689395707958269  1.0000
  C   C35       1.0  0.5561414835064723  0.4566925850775831  0.4086820504206373  1.0000
  C   C36       1.0  0.4583761854154672  0.5580772779200772  0.5658128605324321  1.0000
  C   C37       1.0  0.9885581757697965  0.6039060956128209  0.9077603535134668  1.0000
  C   C38       1.0  0.9932757936749964  0.4092948288916388  0.10132937555400189  1.0000
  C   C39       1.0  0.9095257317172949  0.5519835297873075  0.9585175588255053  1.0000
  C   C40       1.0  0.07364241999451335  0.46272120700368896  0.04997147994257738  1.0000
  C   C41       1.0  0.9127325351015896  0.45798164419219495  0.05187543857551451  1.0000
  C   C42       1.0  0.06996750195675355  0.557651795689665  0.9555701572472299  1.0000
  C   C43       1.0  0.8087047370256711  0.5537225454592232  0.9533724879380968  1.0000
  C   C44       1.0  0.8123055028533983  0.4466942050831194  0.05953369141739977  1.0000
  C   C45       1.0  0.40946352248563056  0.9831687580153242  0.5044163383474611  1.0000
  C   C46       1.0  0.5998253857447226  0.9951172451542833  0.49260738428760936  1.0000
  C   C47       1.0  0.46257167561129364  0.9049246489927113  0.5835900657745158  1.0000
  C   C48       1.0  0.5490235340412184  0.0729139887951434  0.4126501113565978  1.0000
  C   C49       1.0  0.5566571889307497  0.9113323587608662  0.5771410206297887  1.0000
  C   C50       1.0  0.4554370277593591  0.06605876381107124  0.41938121248904986  1.0000
  Br  Br1       1.0  0.22349386418500938  0.3944859423491778  0.308637165189836  1.0000
  Br  Br2       1.0  0.428866503124098  0.18867157122810602  0.10937943814222  1.0000
  Br  Br3       1.0  0.7841667507484477  0.2027406002265196  0.9158330571911718  1.0000
  Br  Br4       1.0  0.4101020743880353  0.5926011619747983  0.2897110961271565  1.0000
  Br  Br5       1.0  0.41577106969613437  0.7856175501037301  0.7053746904733346  1.0000
  O   O1        1.0  0.9159255761340792  0.7410549146368054  0.5716811319711184  1.0000
  O   O2        1.0  0.26630505239463537  0.07411357183595162  0.2433060252987075  1.0000
  O   O3        1.0  0.07936847033396079  0.2616734592449744  0.4196380144558771  1.0000
  O   O4        1.0  0.7344905967075873  0.9233508760838519  0.764331051039612  1.0000
  O   O5        1.0  0.06853128564414138  0.7407958474834259  0.7655029301621423  1.0000
  O   O6        1.0  0.7360905025400725  0.07845468837992098  0.41609021356595827  1.0000
  O   O7        1.0  0.9216540990847124  0.26596443254745594  0.2375825399663755  1.0000
  O   O8        1.0  0.2622457042501763  0.913911066376983  0.5803845007012994  1.0000
  O   O9        1.0  0.2620655164875176  0.7417368360659893  0.41824672335911106  1.0000
  O   O10       1.0  0.9160194293947016  0.07683658572381102  0.7637820950995361  1.0000
  O   O11       1.0  0.7394600720111341  0.2718122390259055  0.5707597939133178  1.0000
  O   O12       1.0  0.07688914877404328  0.9223420468869464  0.23366545044286374  1.0000
  O   O13       1.0  0.06589146863585404  0.9211903651064758  0.7715161396794911  1.0000
  O   O14       1.0  0.7402611464727186  0.2699554890179526  0.41781174277671335  1.0000
  O   O15       1.0  0.9215018957304792  0.07404864940343013  0.23731156986098506  1.0000
  O   O16       1.0  0.26507642808299897  0.734331798614626  0.5731520052209547  1.0000
  O   O17       1.0  0.914626818272147  0.7410650554880718  0.7654809778737429  1.0000
  O   O18       1.0  0.2686414076570571  0.06541428756784745  0.4269563907380771  1.0000
  O   O19       1.0  0.07446885005363414  0.2678829197024868  0.2379404372919964  1.0000
  O   O20       1.0  0.7380150968393625  0.9248954350891622  0.5689797551267121  1.0000
  O   O21       1.0  0.7362586286896474  0.07664732779890933  0.7633413436862283  1.0000
  O   O22       1.0  0.06922073055680035  0.7433435765099503  0.41739229668866057  1.0000
  O   O23       1.0  0.27100465445133165  0.9220739839129236  0.23703047148843132  1.0000
  O   O24       1.0  0.9245356221754265  0.2690342213611957  0.5706522990391035  1.0000
  O   O25       1.0  0.7961380015818664  0.07089180619244212  0.5642228655292171  1.0000
  O   O26       1.0  0.06601837772859658  0.0657340626581942  0.5686590604450498  1.0000
  O   O27       1.0  0.06838456748327106  0.0675616649805377  0.2971746237372344  1.0000
  O   O28       1.0  0.0634105548766824  0.7991743048707319  0.5661796841021385  1.0000
  O   O29       1.0  0.14736205095999097  0.9488705897919092  0.4516384873996486  1.0000
  O   O30       1.0  0.9490726433690925  0.952601755555733  0.44807547357748945  1.0000
  O   O31       1.0  0.9507941903723777  0.14938479885298514  0.44904784669176206  1.0000
  O   O32       1.0  0.9468951192749203  0.952461615429378  0.6472818573248773  1.0000
  O   O33       1.0  0.15604143770500647  0.4248996623390227  0.08859337285276334  1.0000
