data_image0
_chemical_formula_structural       Cu4H24C8N4O8F8
_chemical_formula_sum              "Cu4 H24 C8 N4 O8 F8"
_cell_length_a       6.70820651384533
_cell_length_b       7.576855214042097
_cell_length_c       11.19265194081708
_cell_angle_alpha    109.75733116561092
_cell_angle_beta     97.24846666074336
_cell_angle_gamma    90.01246491477117

_space_group_name_H-M_alt    "P 1"
_space_group_IT_number       1

loop_
  _space_group_symop_operation_xyz
  'x, y, z'

loop_
  _atom_site_type_symbol
  _atom_site_label
  _atom_site_symmetry_multiplicity
  _atom_site_fract_x
  _atom_site_fract_y
  _atom_site_fract_z
  _atom_site_occupancy
  Cu  Cu1       1.0  0.7830578265843187  0.16915750040028849  0.8393617984953039  1.0000
  Cu  Cu2       1.0  0.717774393716873  0.3296828905646618  0.1603503990401336  1.0000
  Cu  Cu3       1.0  0.21792269344354048  0.8307254521513907  0.16031396460413558  1.0000
  Cu  Cu4       1.0  0.28304372664765515  0.6703009533051085  0.8394830459999412  1.0000
  H   H1        1.0  0.45417715873077213  0.09165210868023617  0.9000609460028032  1.0000
  H   H2        1.0  0.047730374941984614  0.19273985808008115  0.10199902378294469  1.0000
  H   H3        1.0  0.5478631671854404  0.909513426416069  0.10233163788585387  1.0000
  H   H4        1.0  0.953631659107096  0.8079251256505414  0.8990954715318722  1.0000
  H   H5        1.0  0.45650904456240954  0.30641365754760125  0.9067681651727639  1.0000
  H   H6        1.0  0.0452863152207001  0.40053867870992815  0.09493115673484451  1.0000
  H   H7        1.0  0.5454568904619991  0.6946018356795064  0.09523415657079677  1.0000
  H   H8        1.0  0.9559309874971408  0.5999093855280434  0.9058391297238729  1.0000
  H   H9        1.0  0.12193936518495013  0.25445689955495954  0.7990110883058534  1.0000
  H   H10       1.0  0.3783949364690855  0.4548094422850681  0.1992638789630874  1.0000
  H   H11       1.0  0.878541094514347  0.7445492000750348  0.19907342551204016  1.0000
  H   H12       1.0  0.6215428483082305  0.5443939012323397  0.7986516336724705  1.0000
  H   H13       1.0  0.12074485637334223  0.04118447571776328  0.792217550903004  1.0000
  H   H14       1.0  0.3797419931838347  0.24833496781856465  0.2063528124533107  1.0000
  H   H15       1.0  0.8799302307357098  0.9581618091453163  0.20624069098954578  1.0000
  H   H16       1.0  0.620240830127493  0.7510157856995717  0.7919282864098776  1.0000
  H   H17       1.0  0.3742976498325491  0.26864372257107044  0.658858143030649  1.0000
  H   H18       1.0  0.12433757110485293  0.6096734092964977  0.3413561649676353  1.0000
  H   H19       1.0  0.6243903153970436  0.7319294010765631  0.3420698494953598  1.0000
  H   H20       1.0  0.8740650254361386  0.3895147741034322  0.6582621220618776  1.0000
  H   H21       1.0  0.7964894243014842  0.8604586105258745  0.5720096584581071  1.0000
  H   H22       1.0  0.7013922432156151  0.2889630392330602  0.4283731366272363  1.0000
  H   H23       1.0  0.2018380790327043  0.13972657805376085  0.4289228309410831  1.0000
  H   H24       1.0  0.2962882259331963  0.7111314770355646  0.5713833229872876  1.0000
  C   C1        1.0  0.43032675896945  0.14860789474840166  0.5876590993032167  1.0000
  C   C2        1.0  0.0680926935468165  0.5609493061293519  0.4125938489919321  1.0000
  C   C3        1.0  0.5681617419074031  0.8518907068501915  0.41323227581025174  1.0000
  C   C4        1.0  0.9300413670515727  0.4385762950524209  0.587096003699415  1.0000
  C   C5        1.0  0.6626701129824539  0.9223580328144292  0.5395328507963413  1.0000
  C   C6        1.0  0.8354036189583385  0.38309987602841733  0.4608169550434553  1.0000
  C   C7        1.0  0.3356996558506894  0.07795603901480766  0.46138451468618774  1.0000
  C   C8        1.0  0.1624820515743225  0.6167419391439352  0.5389333950458807  1.0000
  N   N1        1.0  0.5940233992318654  0.0704254319688644  0.626805451216896  1.0000
  N   N2        1.0  0.9042501461339187  0.4438071793190587  0.3734956620756051  1.0000
  N   N3        1.0  0.4044205280647902  0.9299485056580746  0.37409018408663286  1.0000
  N   N4        1.0  0.0937884681084213  0.5558749441618075  0.6262382703596145  1.0000
  O   O1        1.0  0.5426977280628338  0.21037407800524469  0.9292056215654229  1.0000
  O   O2        1.0  0.9593875207038638  0.2818783923469467  0.0722901735158885  1.0000
  O   O3        1.0  0.4595657978849277  0.7906308399720883  0.0725733847724968  1.0000
  O   O4        1.0  0.042020027223586005  0.7183646629522896  0.9282833392930527  1.0000
  O   O5        1.0  0.036065523560729715  0.13470015419592576  0.7654073345706109  1.0000
  O   O6        1.0  0.4642514147064106  0.36882992036130696  0.2331711665257998  1.0000
  O   O7        1.0  0.9644429608473077  0.8644113004606239  0.2329834056704101  1.0000
  O   O8        1.0  0.5356102240013385  0.6306634994222974  0.765171788037506  1.0000
  F   F1        1.0  0.7898882573385537  0.9107102906121297  0.8379650028126804  1.0000
  F   F2        1.0  0.7108090995460687  0.07262972744246808  0.1622063808865661  1.0000
  F   F3        1.0  0.21092153931827085  0.08940990713025337  0.1620015234546699  1.0000
  F   F4        1.0  0.29058757149561404  0.9275459826150435  0.8383392033546001  1.0000
  F   F5        1.0  0.7900781732229377  0.4330034176127952  0.8505111906037968  1.0000
  F   F6        1.0  0.7105900056178314  0.5821820470915569  0.1485672780195628  1.0000
  F   F7        1.0  0.21049664941303806  0.5665588852854667  0.14863251157254354  1.0000
  F   F8        1.0  0.2906554454763041  0.4177651085567787  0.8510735442236096  1.0000
