data_image0
_chemical_formula_structural       Cu8H24C28I8N8
_chemical_formula_sum              "Cu8 H24 C28 I8 N8"
_cell_length_a       4.051588353913502
_cell_length_b       15.691350467060435
_cell_length_c       16.676194475148126
_cell_angle_alpha    110.32604925034546
_cell_angle_beta     89.99867696370237
_cell_angle_gamma    90.00212202374559

_space_group_name_H-M_alt    "P 1"
_space_group_IT_number       1

loop_
  _space_group_symop_operation_xyz
  'x, y, z'

loop_
  _atom_site_type_symbol
  _atom_site_label
  _atom_site_symmetry_multiplicity
  _atom_site_fract_x
  _atom_site_fract_y
  _atom_site_fract_z
  _atom_site_occupancy
  Cu  Cu1       1.0  0.4270584375063962  0.6732315530640632  0.7093061761893791  1.0000
  Cu  Cu2       1.0  0.9270538356305875  0.3267831487534991  0.7906900246176176  1.0000
  Cu  Cu3       1.0  0.5729312551679013  0.3267708106329152  0.2906864256741669  1.0000
  Cu  Cu4       1.0  0.07297041022226841  0.6732129007212748  0.20931965241934583  1.0000
  Cu  Cu5       1.0  0.9238191989829901  0.5762430635034193  0.7355951658605021  1.0000
  Cu  Cu6       1.0  0.4238437516332921  0.42377160740885966  0.7644010439112346  1.0000
  Cu  Cu7       1.0  0.0761803659986242  0.423761233737622  0.2644082780872736  1.0000
  Cu  Cu8       1.0  0.5761829626350236  0.5762278585738018  0.23560797821551915  1.0000
  H   H1        1.0  0.9230362192537099  0.710490431623967  0.4449059820797458  1.0000
  H   H2        1.0  0.42301308184715225  0.2895090221574321  0.05508827908216317  1.0000
  H   H3        1.0  0.0769806236823811  0.2895221073928837  0.555091826329132  1.0000
  H   H4        1.0  0.576956863997367  0.7104788906202373  0.9449168741986608  1.0000
  H   H5        1.0  0.6398538241539456  0.8771711210834  0.7282963491346093  1.0000
  H   H6        1.0  0.1398170707275455  0.12284504171906722  0.7716888682752765  1.0000
  H   H7        1.0  0.3601531460953992  0.12284275848011109  0.2717037072814746  1.0000
  H   H8        1.0  0.860192366084334  0.8771409191764832  0.22830723567855662  1.0000
  H   H9        1.0  0.6312903344475985  0.0226397543142127  0.6987902232753738  1.0000
  H   H10       1.0  0.13130083883045524  0.977379625498763  0.8012057175327597  1.0000
  H   H11       1.0  0.36866233608464677  0.9773774795697963  0.30121515439558516  1.0000
  H   H12       1.0  0.8686691072844539  0.02260498842203869  0.19878873609109596  1.0000
  H   H13       1.0  0.3529194968338558  0.0331176452776987  0.5711806765409262  1.0000
  H   H14       1.0  0.852954616258117  0.9668915024080676  0.9288225037552137  1.0000
  H   H15       1.0  0.6470158960438112  0.9668914149374076  0.4288237629741331  1.0000
  H   H16       1.0  0.14700545732998194  0.0330971765881003  0.0711745106024892  1.0000
  H   H17       1.0  0.06823928247705881  0.8986783957514886  0.46690235937140995  1.0000
  H   H18       1.0  0.5682315154601199  0.10132718427860254  0.0330948790806431  1.0000
  H   H19       1.0  0.9317380691032041  0.10132592614925073  0.5330986941727643  1.0000
  H   H20       1.0  0.431740899132933  0.8986648926981572  0.9669032731789782  1.0000
  H   H21       1.0  0.05067649431708791  0.6051679260972234  0.5286180000818843  1.0000
  H   H22       1.0  0.5506322516390582  0.3948356804604103  0.9713779389383672  1.0000
  H   H23       1.0  0.9493625619281333  0.39483717474808333  0.4713737192224485  1.0000
  H   H24       1.0  0.4493599083261017  0.6051597635747469  0.02862433925596967  1.0000
  C   C1        1.0  0.3521648157950708  0.8071754895553056  0.6147927439084667  1.0000
  C   C2        1.0  0.8521148612496816  0.1928350777653804  0.8852043200768234  1.0000
  C   C3        1.0  0.6478767076769287  0.1928246932318416  0.3852129201298097  1.0000
  C   C4        1.0  0.1479019807076725  0.8071651420527103  0.11479775834405352  1.0000
  C   C5        1.0  0.513854227451766  0.8823092106463123  0.6724551212071005  1.0000
  C   C6        1.0  0.013834009876291  0.1177084258381385  0.8275349424526934  1.0000
  C   C7        1.0  0.486172487843902  0.11770191352543691  0.32754761049798725  1.0000
  C   C8        1.0  0.9861927043152577  0.8822822860387093  0.17246335217243564  1.0000
  C   C9        1.0  0.5078230127064387  0.9628759096807258  0.6551409466554076  1.0000
  C   C10       1.0  0.007818097294091298  0.037142299125648  0.8448541422029974  1.0000
  C   C11       1.0  0.4921543395135757  0.0371393103348296  0.3448613577953309  1.0000
  C   C12       1.0  0.9921641895958473  0.9628443164579393  0.15514457980685845  1.0000
  C   C13       1.0  0.3485557934913857  0.9687041988132991  0.5822295293413899  1.0000
  C   C14       1.0  0.848568665156236  0.0313077057710913  0.9177668045402425  1.0000
  C   C15       1.0  0.6514042814602731  0.03130965575934401  0.4177729175743535  1.0000
  C   C16       1.0  0.1513963449429028  0.9686823571834609  0.08222827454375194  1.0000
  C   C17       1.0  0.19026267572601088  0.8943158604880566  0.5235136515626521  1.0000
  C   C18       1.0  0.6902624910638978  0.10568495085070849  0.9764859123136346  1.0000
  C   C19       1.0  0.8097418258388772  0.1056918532727096  0.47648913747147487  1.0000
  C   C20       1.0  0.30974694572662287  0.8943016772460625  0.023511614441247337  1.0000
  C   C21       1.0  0.1929643093911437  0.8138925167450565  0.5415360938540913  1.0000
  C   C22       1.0  0.6929192501648627  0.18611312070202501  0.9584608724002588  1.0000
  C   C23       1.0  0.807074746817264  0.1861145918954392  0.4584592962447757  1.0000
  C   C24       1.0  0.3070630370899253  0.813880970308773  0.04154035303155722  1.0000
  C   C25       1.0  0.13241107384310166  0.6751445232256899  0.5463826001633264  1.0000
  C   C26       1.0  0.6323545544207079  0.32485988519522374  0.9536113188214371  1.0000
  C   C27       1.0  0.8676378551942747  0.32486194921858674  0.4536083790776785  1.0000
  C   C28       1.0  0.3676548827442118  0.6751322043420276  0.046385638169489644  1.0000
  I   I1        1.0  0.8986241171050721  0.7488344039252581  0.8166134946550583  1.0000
  I   I2        1.0  0.39863390995756026  0.2511792901374932  0.6833879360746804  1.0000
  I   I3        1.0  0.1013606387641914  0.2511671810991913  0.18338844136942353  1.0000
  I   I4        1.0  0.6013261641671406  0.7488209356000937  0.31661354481648357  1.0000
  I   I5        1.0  0.41704430570007395  0.49303428035324254  0.6352709740989224  1.0000
  I   I6        1.0  0.9170708717978541  0.5069810114136644  0.8647248844797983  1.0000
  I   I7        1.0  0.5829503224351669  0.5069645244659853  0.36473602766276497  1.0000
  I   I8        1.0  0.0829410337634258  0.4930185226049346  0.13527756397274254  1.0000
  N   N1        1.0  0.3101089822906289  0.7190504608349002  0.6154671572244438  1.0000
  N   N2        1.0  0.8100752807573955  0.2809570285024492  0.8845249300602374  1.0000
  N   N3        1.0  0.6899226691357684  0.2809559124619909  0.38453338377846064  1.0000
  N   N4        1.0  0.1899415612735922  0.7190391757252499  0.11546980677157132  1.0000
  N   N5        1.0  0.0585048277655815  0.7287470737768516  0.5000249014573226  1.0000
  N   N6        1.0  0.5584619748909176  0.2712572873987966  0.9999712433816084  1.0000
  N   N7        1.0  0.9415342283455814  0.27126135688300934  0.4999745294608856  1.0000
  N   N8        1.0  0.441540058066792  0.7287375575893549  2.303830315500335e-05  1.0000
