data_image0
_chemical_formula_structural       Zn2H16C60N4Cl8O44
_chemical_formula_sum              "Zn2 H16 C60 N4 Cl8 O44"
_cell_length_a       10.125305025695413
_cell_length_b       10.843435163314238
_cell_length_c       23.620021241151363
_cell_angle_alpha    87.75919051319462
_cell_angle_beta     87.97806243724511
_cell_angle_gamma    85.853936570789

_space_group_name_H-M_alt    "P 1"
_space_group_IT_number       1

loop_
  _space_group_symop_operation_xyz
  'x, y, z'

loop_
  _atom_site_type_symbol
  _atom_site_label
  _atom_site_symmetry_multiplicity
  _atom_site_fract_x
  _atom_site_fract_y
  _atom_site_fract_z
  _atom_site_occupancy
  Zn  Zn1       1.0  0.6526551118352658  0.47919899951862277  0.4987694025953572  1.0000
  Zn  Zn2       1.0  0.348039993325024  0.49061682268414586  0.5077805845196792  1.0000
  H   H1        1.0  0.005962929264825293  0.5202263545848423  0.06346149901839479  1.0000
  H   H2        1.0  0.6076703888325312  0.9261064265844038  0.9530179236085843  1.0000
  H   H3        1.0  0.8150570857404701  0.35596153858509894  0.35375325027205656  1.0000
  H   H4        1.0  0.18911839569398134  0.7705463185562704  0.5811101202846415  1.0000
  H   H5        1.0  0.7967638801411853  0.21473137306145418  0.6118994588219167  1.0000
  H   H6        1.0  0.2323034023048081  0.7146450882351232  0.3932158194727434  1.0000
  H   H7        1.0  0.9544000795507729  0.6495264735316867  0.9438931654373873  1.0000
  H   H8        1.0  0.8332912302565775  0.8707174391744343  0.08720965500369719  1.0000
  H   H9        1.0  0.8407799695512355  0.5148911209556388  0.8481340640215362  1.0000
  H   H10       1.0  0.7905703528405468  0.27373544447457476  0.17656476840864596  1.0000
  H   H11       1.0  0.18893770325757941  0.5819175918297717  0.6905839700476548  1.0000
  H   H12       1.0  0.5319763308953611  0.7989018737839402  0.2594920237933707  1.0000
  H   H13       1.0  0.7079009406658727  0.7565150098611892  0.36111125143533224  1.0000
  H   H14       1.0  0.38740643329587254  0.21345517672892808  0.6501111306011892  1.0000
  H   H15       1.0  0.8226801344968068  0.01934640609145789  0.4328652136367452  1.0000
  H   H16       1.0  0.07057509514834955  0.993762873335569  0.4609371456051718  1.0000
  C   C1        1.0  0.522892687287964  0.24907513745780815  0.4988727553271913  1.0000
  C   C2        1.0  0.49405193187337904  0.7204746632738832  0.5018309024302923  1.0000
  C   C3        1.0  0.6051096404504933  0.5751184563142999  0.7623041058314755  1.0000
  C   C4        1.0  0.5367978885796632  0.4158100453322505  0.23522871944268076  1.0000
  C   C5        1.0  0.6099363412709025  0.5578929457929007  0.7031878545657122  1.0000
  C   C6        1.0  0.5389622083117729  0.41480228464587293  0.29449166185854375  1.0000
  C   C7        1.0  0.5036194112296428  0.5097231808533991  0.6758549952533739  1.0000
  C   C8        1.0  0.4853645859457103  0.5154835517745652  0.3257579014500465  1.0000
  C   C9        1.0  0.39604632047687  0.4738502340617714  0.7099763865316149  1.0000
  C   C10       1.0  0.43143165789304316  0.6206432068645993  0.2950453004324558  1.0000
  C   C11       1.0  0.3917329976139143  0.48694307836645123  0.7687908636723363  1.0000
  C   C12       1.0  0.41356871589994887  0.6147025700213148  0.2365038007987721  1.0000
  C   C13       1.0  0.4871897500815905  0.5535498875627312  0.7944924429107586  1.0000
  C   C14       1.0  0.467981917850267  0.5136733596279157  0.20662599285216027  1.0000
  C   C15       1.0  0.6404713790397025  0.008044688391706203  0.5042992636808421  1.0000
  C   C16       1.0  0.3753081598841206  0.9618046716046963  0.4976094542136664  1.0000
  C   C17       1.0  0.57842685617193  0.9349801072587522  0.45615293753074576  1.0000
  C   C18       1.0  0.4381389127361146  0.03409540149794311  0.5459089003154672  1.0000
  C   C19       1.0  0.4947495195743343  0.8594013816362961  0.5007849738945112  1.0000
  C   C20       1.0  0.5208619718889834  0.1100112096179586  0.5012819092295189  1.0000
  C   C21       1.0  0.5562211425780604  0.9321012465081752  0.5488665189668253  1.0000
  C   C22       1.0  0.4589694663001397  0.03753155453460269  0.4530372482361145  1.0000
  C   C23       1.0  0.500989332605421  0.48888774987612754  0.6127831060699548  1.0000
  C   C24       1.0  0.4893899493121552  0.5071102152732578  0.3908543829576629  1.0000
  C   C25       1.0  0.054161337959740805  0.3643741746541878  0.5161578166773921  1.0000
  C   C26       1.0  0.9492961774598853  0.5907227894833156  0.4958438597446386  1.0000
  C   C27       1.0  0.9729875178816131  0.4056905879130568  0.4635176150333109  1.0000
  C   C28       1.0  0.03106376783705399  0.5491392135945786  0.5487950867438157  1.0000
  C   C29       1.0  0.9487781027870458  0.4346151319961675  0.5549472277944076  1.0000
  C   C30       1.0  0.052911984287575806  0.5211348661765244  0.457155046196945  1.0000
  C   C31       1.0  0.5652707156731863  0.5930078105281423  0.12022352591111478  1.0000
  C   C32       1.0  0.33593404335272237  0.5964115455121045  0.8793270472771579  1.0000
  C   C33       1.0  0.3582879088611222  0.47683103179218017  0.1192441654851351  1.0000
  C   C34       1.0  0.5482788109528228  0.6694035121975473  0.8778791091666419  1.0000
  C   C35       1.0  0.3548213180976206  0.4994279232389401  0.0571568474093382  1.0000
  C   C36       1.0  0.5507223517715474  0.6520044754976622  0.9404510287101855  1.0000
  C   C37       1.0  0.4582424008903345  0.5617408418495201  0.02867277341442789  1.0000
  C   C38       1.0  0.4542966542201938  0.5827340229948702  0.9692442676145844  1.0000
  C   C39       1.0  0.562659618731672  0.6085149109735254  0.057985127332486286  1.0000
  C   C40       1.0  0.34076517349931373  0.5554773655825542  0.9399977569249385  1.0000
  C   C41       1.0  0.2455316266862084  0.46890179805758686  0.027468999738488292  1.0000
  C   C42       1.0  0.6462752778708278  0.7058017765067887  0.97040591101436  1.0000
  C   C43       1.0  0.23423727962563848  0.5069456592877727  0.9692637869432232  1.0000
  C   C44       1.0  0.655974126349193  0.6790729343570374  0.029490947261727702  1.0000
  C   C45       1.0  0.1444101082193825  0.3841297359882746  0.0530556482707425  1.0000
  C   C46       1.0  0.7392478808661167  0.7921990736884367  0.9405762692818128  1.0000
  C   C47       1.0  0.9366121188269574  0.3330828935327119  0.4143133687101965  1.0000
  C   C48       1.0  0.05843096464484891  0.6490053444573646  0.5881045579824614  1.0000
  C   C49       1.0  0.8957265823195896  0.36092183684650087  0.6051129531055324  1.0000
  C   C50       1.0  0.11530962373092987  0.5791566126538114  0.40490272552728596  1.0000
  C   C51       1.0  0.099025538631615  0.5157368884170097  0.942778012651459  1.0000
  C   C52       1.0  0.7715141795942415  0.7242945345897952  0.059792086147780296  1.0000
  C   C53       1.0  0.7338839868906034  0.5938453349466924  0.7902600766569279  1.0000
  C   C54       1.0  0.6124852598453571  0.31809849237254184  0.20085147490738814  1.0000
  C   C55       1.0  0.2772806007153505  0.4196863908301082  0.6862143365250687  1.0000
  C   C56       1.0  0.4150020106102232  0.7460108741683624  0.32057879459863153  1.0000
  C   C57       1.0  0.6591390437777492  0.8933008193589556  0.4061571790918065  1.0000
  C   C58       1.0  0.372924271960521  0.08252850856036528  0.5993161168725436  1.0000
  C   C59       1.0  0.7825209575391058  0.029924179022046415  0.5142789170981388  1.0000
  C   C60       1.0  0.23007380344275674  0.942282056389885  0.49828623315968895  1.0000
  N   N1        1.0  0.4689713686180994  0.520135436999915  0.14590086808826896  1.0000
  N   N2        1.0  0.46786650340909125  0.5871082584739328  0.8515278726100418  1.0000
  N   N3        1.0  0.8654748561045197  0.4761879867296626  0.5020346873315161  1.0000
  N   N4        1.0  0.13743574827434196  0.48033371808610065  0.5093255459503538  1.0000
  Cl  Cl1       1.0  0.12377785754748061  0.22311043782982404  0.5351298075873173  1.0000
  Cl  Cl2       1.0  0.8846925833128269  0.7375029814692553  0.48281943741567085  1.0000
  Cl  Cl3       1.0  0.744979265290901  0.6030468570147107  0.6649122036026682  1.0000
  Cl  Cl4       1.0  0.6137422448745227  0.2854612042503462  0.3282632427161758  1.0000
  Cl  Cl5       1.0  0.2769750401478959  0.4062050706315646  0.8079174646906822  1.0000
  Cl  Cl6       1.0  0.32832009051256256  0.7343759589034204  0.19981880648857944  1.0000
  Cl  Cl7       1.0  0.6125003208831998  0.8641824054893873  0.6110389335262737  1.0000
  Cl  Cl8       1.0  0.4015088282852872  0.10424236539471819  0.39046638627167596  1.0000
  O   O1        1.0  0.633380899330426  0.2953151384072683  0.4881036058154392  1.0000
  O   O2        1.0  0.38445053187749784  0.6737981991445777  0.49641963241366927  1.0000
  O   O3        1.0  0.41046169136543403  0.30618093574310024  0.5062418717216914  1.0000
  O   O4        1.0  0.6071116288516263  0.664513181884999  0.5084307116941673  1.0000
  O   O5        1.0  0.6089533059525891  0.4665522740536117  0.5855406519778086  1.0000
  O   O6        1.0  0.38075318745991643  0.48622913525926487  0.41590707471721083  1.0000
  O   O7        1.0  0.3854003045567467  0.4927685838679565  0.5927795577129159  1.0000
  O   O8        1.0  0.600816466266977  0.5177570467640463  0.41178096275741877  1.0000
  O   O9        1.0  0.6440609229574293  0.6427330140880514  0.14891506443112948  1.0000
  O   O10       1.0  0.2376551069836594  0.6391326647596642  0.8556216233404041  1.0000
  O   O11       1.0  0.27145331366614306  0.4291148742974542  0.14786039576024726  1.0000
  O   O12       1.0  0.6093427416097724  0.748682188718263  0.8522153608925931  1.0000
  O   O13       1.0  0.1744539275093615  0.27336660811842967  0.0541126240482299  1.0000
  O   O14       1.0  0.0227849909736761  0.42986898528864964  0.06875205724498559  1.0000
  O   O15       1.0  0.8504442091226068  0.7589635302203207  0.9229156889984154  1.0000
  O   O16       1.0  0.6989918366730733  0.9128022844763705  0.9385251252864888  1.0000
  O   O17       1.0  0.9817330275945723  0.22907511441380282  0.4042931163655083  1.0000
  O   O18       1.0  0.8497387159045289  0.4042976411011949  0.38363250492579226  1.0000
  O   O19       1.0  0.9664734403784507  0.7027089481220585  0.6138014788586332  1.0000
  O   O20       1.0  0.18382017803104836  0.6778734890192479  0.5841167281454389  1.0000
  O   O21       1.0  0.935741731464148  0.3632087590031716  0.6527416006907458  1.0000
  O   O22       1.0  0.8144184558516229  0.2828028119728785  0.5846793202392105  1.0000
  O   O23       1.0  0.11599676962121207  0.5373885154677609  0.35769480961386785  1.0000
  O   O24       1.0  0.16311617437023082  0.6825405921092979  0.4209216856625344  1.0000
  O   O25       1.0  0.0561668211636217  0.4456333771575771  0.9100700604439992  1.0000
  O   O26       1.0  0.036978784916897205  0.6174845914737331  0.9639626654012331  1.0000
  O   O27       1.0  0.8743964333000632  0.6617090754353611  0.0681495102812946  1.0000
  O   O28       1.0  0.7524678582348086  0.8456210654719029  0.07041463382819298  1.0000
  O   O29       1.0  0.81663768706143  0.6648187915083597  0.7756623020443524  1.0000
  O   O30       1.0  0.7512213095843591  0.5077360612765248  0.8342487516229439  1.0000
  O   O31       1.0  0.5632479333492526  0.23871424242742725  0.17531651999543385  1.0000
  O   O32       1.0  0.743681494881436  0.3358940141843759  0.20049900522072758  1.0000
  O   O33       1.0  0.2716576106742962  0.3106572969430843  0.6760271614705715  1.0000
  O   O34       1.0  0.16849796694974367  0.4976769291997485  0.6824557011027037  1.0000
  O   O35       1.0  0.35086583782954506  0.7757221467176265  0.3632156137647157  1.0000
  O   O36       1.0  0.48689682638258347  0.8321951153051682  0.2935562529890134  1.0000
  O   O37       1.0  0.7386308623215854  0.9596861173017573  0.3812123145525065  1.0000
  O   O38       1.0  0.6425699803311957  0.7779888973585826  0.39144040239938954  1.0000
  O   O39       1.0  0.2721143738026512  0.04400438582781871  0.6210684172426113  1.0000
  O   O40       1.0  0.4439395590605599  0.1690476876573186  0.6201497101018845  1.0000
  O   O41       1.0  0.819306309898174  0.04497690352462771  0.5617848254966091  1.0000
  O   O42       1.0  0.8690677447952028  0.0278486721598981  0.4691625592234701  1.0000
  O   O43       1.0  0.1716318403261924  0.8911810601802514  0.5379459744726203  1.0000
  O   O44       1.0  0.1676423900077495  0.9943178318951382  0.45350718912887084  1.0000
