data_image0
_chemical_formula_structural       Cd2H36C36N8O12
_chemical_formula_sum              "Cd2 H36 C36 N8 O12"
_cell_length_a       8.361645767927559
_cell_length_b       10.414026880143721
_cell_length_c       11.51415728261658
_cell_angle_alpha    83.1849160604973
_cell_angle_beta     72.94993852497268
_cell_angle_gamma    79.04154467428273

_space_group_name_H-M_alt    "P 1"
_space_group_IT_number       1

loop_
  _space_group_symop_operation_xyz
  'x, y, z'

loop_
  _atom_site_type_symbol
  _atom_site_label
  _atom_site_symmetry_multiplicity
  _atom_site_fract_x
  _atom_site_fract_y
  _atom_site_fract_z
  _atom_site_occupancy
  Cd  Cd1       1.0  0.4729923828949725  0.806165984154603  0.6132894269234511  1.0000
  Cd  Cd2       1.0  0.5270058889241584  0.19383274576610887  0.3867101154095066  1.0000
  H   H1        1.0  0.7129545124756335  0.5402154907323363  0.45139715238816785  1.0000
  H   H2        1.0  0.28704461627158656  0.45978519853647976  0.5486028533074715  1.0000
  H   H3        1.0  0.847779029394182  0.9093118928011988  0.4582653744775341  1.0000
  H   H4        1.0  0.15222136415428625  0.090688795258238  0.5417352209638153  1.0000
  H   H5        1.0  0.12736379091582248  0.7475475314234359  0.3160584678185216  1.0000
  H   H6        1.0  0.872635377972408  0.25245316251132266  0.6839441341575206  1.0000
  H   H7        1.0  0.025017955607907507  0.408390116695294  0.3489703292179982  1.0000
  H   H8        1.0  0.9749795406059151  0.5916125390063341  0.6510315566292988  1.0000
  H   H9        1.0  0.185212606726438  0.5058694528736536  0.2832028834861616  1.0000
  H   H10       1.0  0.8147880308996278  0.4941302595729835  0.7168003714271123  1.0000
  H   H11       1.0  0.10680016137330739  0.4251995077041712  0.12226219905953428  1.0000
  H   H12       1.0  0.8932017142933336  0.5748002004224588  0.8777399147458453  1.0000
  H   H13       1.0  0.8875469637732182  0.4847118361989756  0.18508397625763  1.0000
  H   H14       1.0  0.11245612317332389  0.5152878644970259  0.8149152655862648  1.0000
  H   H15       1.0  0.8037876367017205  0.7239964769233963  0.1991460245684351  1.0000
  H   H16       1.0  0.19621172274275273  0.2760032351773063  0.800855775172323  1.0000
  H   H17       1.0  0.8142768434139642  0.6665684917796781  0.0573236257694133  1.0000
  H   H18       1.0  0.18572519604824578  0.33343023140226785  0.9426759549470842  1.0000
  H   H19       1.0  0.79566948518638  0.9110017349084245  0.06315947157153802  1.0000
  H   H20       1.0  0.20433403639400183  0.0889960083407146  0.936841627508997  1.0000
  H   H21       1.0  0.9983739161406292  0.8822977241219121  0.08987156113766288  1.0000
  H   H22       1.0  0.0016264907881761966  0.117702965492839  0.9101298997304851  1.0000
  H   H23       1.0  0.7830633305185728  0.8691910447641858  0.8422461671960375  1.0000
  H   H24       1.0  0.21693476412465176  0.13080866854588885  0.1577550427990104  1.0000
  H   H25       1.0  0.040669822392949605  0.8627769943234539  0.6232893780787733  1.0000
  H   H26       1.0  0.9593296740864262  0.1372217297219365  0.3767081577194915  1.0000
  H   H27       1.0  0.2613368088681867  0.8244202598927189  0.9134718502607271  1.0000
  H   H28       1.0  0.7386635177785976  0.1755804203901477  0.08652441804662206  1.0000
  H   H29       1.0  0.4565594416725602  0.9604056140374411  0.109598978184664  1.0000
  H   H30       1.0  0.5434384088930743  0.03959507488544739  0.8903995723384597  1.0000
  H   H31       1.0  0.5332198774909358  0.551267212564305  0.043053375839278395  1.0000
  H   H32       1.0  0.46678070661378274  0.448732493661076  0.9569464173667867  1.0000
  H   H33       1.0  0.43692478282034847  0.6655753185919339  0.40728885108732266  1.0000
  H   H34       1.0  0.563074141990292  0.3344263509556313  0.5927110914167953  1.0000
  H   H35       1.0  0.5283167256683329  0.723215198728596  0.8906690120399146  1.0000
  H   H36       1.0  0.47168404899262845  0.2767835256627293  0.10932997893086584  1.0000
  C   C1        1.0  0.7873182313237095  0.6185573231493677  0.4378070302305871  1.0000
  C   C2        1.0  0.2126811281207708  0.3814423889513349  0.562194769510171  1.0000
  C   C3        1.0  0.8638864793883911  0.8081206562093752  0.4368015619007507  1.0000
  C   C4        1.0  0.13611289343642605  0.1918790574466414  0.5632011032668061  1.0000
  C   C5        1.0  0.000965742479394296  0.7302151768824386  0.36616021221835376  1.0000
  C   C6        1.0  0.9990334130284995  0.2697855154970127  0.6338415243308901  1.0000
  C   C7        1.0  0.05136211727602811  0.5011087279024052  0.29685348027358316  1.0000
  C   C8        1.0  0.9486382896527774  0.49889196171234557  0.7031479805945721  1.0000
  C   C9        1.0  0.016586066718829808  0.5041626453561676  0.17336852838351993  1.0000
  C   C10       1.0  0.9834160128843908  0.4958360824917206  0.8266336486133808  1.0000
  C   C11       1.0  0.8848264032759731  0.7102476325643676  0.10537456886729044  1.0000
  C   C12       1.0  0.1151696242000071  0.2897560046253814  0.8946266640427751  1.0000
  C   C13       1.0  0.9174617672655998  0.8443246128238828  0.04677074962528844  1.0000
  C   C14       1.0  0.08254131968094211  0.15567508787211176  0.9532284922186063  1.0000
  C   C15       1.0  0.9196346328580843  0.8592923624810779  0.8236704823096233  1.0000
  C   C16       1.0  0.0803644958891354  0.1407083267877383  0.17632952338600918  1.0000
  C   C17       1.0  0.04788238838411728  0.8553671963802074  0.7164421435551205  1.0000
  C   C18       1.0  0.9521142107606054  0.14463349530736738  0.2835566826490846  1.0000
  C   C19       1.0  0.1681580917047327  0.835034584900889  0.8629101663798833  1.0000
  C   C20       1.0  0.8318412142183931  0.1649651209785574  0.1370881716536729  1.0000
  C   C21       1.0  0.4105606883043509  0.9320809083535977  0.350789270792326  1.0000
  C   C22       1.0  0.5894401131172844  0.0679178191483558  0.6492114510320589  1.0000
  C   C23       1.0  0.43942341066391316  0.8241543821258477  0.26701304890207217  1.0000
  C   C24       1.0  0.5605771466801244  0.1758453209889055  0.7329850134503957  1.0000
  C   C25       1.0  0.4606617605909876  0.8576725897451422  0.14271842015710937  1.0000
  C   C26       1.0  0.5393362939112265  0.1423271188989972  0.8572801935575285  1.0000
  C   C27       1.0  0.49139387143969065  0.7598361951750546  0.0617514763264921  1.0000
  C   C28       1.0  0.5086052439271925  0.24016449253844743  0.9382476639423413  1.0000
  C   C29       1.0  0.5028845412206169  0.6281980373126217  0.10580264328692826  1.0000
  C   C30       1.0  0.4971180977117485  0.3718036192749281  0.8941938758935278  1.0000
  C   C31       1.0  0.4857135577191515  0.5944930397556047  0.2295083631027595  1.0000
  C   C32       1.0  0.5142840889099035  0.4055086294460253  0.7704901242288427  1.0000
  C   C33       1.0  0.4518832612036335  0.6924525314374392  0.3109547800605483  1.0000
  C   C34       1.0  0.5481237705618865  0.3075461791304264  0.6890428325047964  1.0000
  C   C35       1.0  0.5064103066282115  0.45284519343722  0.27478079499906005  1.0000
  C   C36       1.0  0.49359091708766556  0.5471574508597001  0.7252185329513665  1.0000
  N   N1        1.0  0.7320281275689667  0.7372092144562715  0.4808984385832246  1.0000
  N   N2        1.0  0.26796851171676656  0.2627914818972386  0.5191029839013835  1.0000
  N   N3        1.0  0.9507661038531698  0.6105669110537306  0.36807134773601274  1.0000
  N   N4        1.0  0.04923303827438731  0.38943377977039967  0.6319295233864252  1.0000
  N   N5        1.0  0.9985704285576702  0.8465530524919486  0.9158152365558647  1.0000
  N   N6        1.0  0.0014293119992956071  0.15344469594063528  0.08418495871432437  1.0000
  N   N7        1.0  0.20174744436080516  0.8405124851177206  0.7423539675376885  1.0000
  N   N8        1.0  0.7982495626570768  0.15948624601236358  0.2576449850495591  1.0000
  O   O1        1.0  0.35034253689850203  0.9089046526977  0.46480522985371653  1.0000
  O   O2        1.0  0.6496572314598839  0.09109897464265519  0.5351943105862842  1.0000
  O   O3        1.0  0.4482237277204463  0.04167139155774889  0.2992273239068908  1.0000
  O   O4        1.0  0.5517728714242766  0.9583293001298255  0.7007715022973142  1.0000
  O   O5        1.0  0.46756616037318127  0.3692259806970029  0.21886394137499818  1.0000
  O   O6        1.0  0.5324340292387006  0.6307756876411829  0.7811365908748368  1.0000
  O   O7        1.0  0.5583494874742242  0.4223686164925268  0.36930820969323  1.0000
  O   O8        1.0  0.4416494373364089  0.5776330530550381  0.6306917328108881  1.0000
  O   O9        1.0  0.5149352507233476  0.7980701287114799  0.9416363028039781  1.0000
  O   O10       1.0  0.48506196023112125  0.20192762213985568  0.05836271297478387  1.0000
  O   O11       1.0  0.04164883981321308  0.6260119386295315  0.10409479453716128  1.0000
  O   O12       1.0  0.9583528051561674  0.3739887466652192  0.8959055252231066  1.0000
