data_image0
_chemical_formula_structural       Zn2H40C40S4N4O8
_chemical_formula_sum              "Zn2 H40 C40 S4 N4 O8"
_cell_length_a       9.234910513534368
_cell_length_b       9.234949516223415
_cell_length_c       15.415561753662194
_cell_angle_alpha    97.54139415635719
_cell_angle_beta     97.5409588099392
_cell_angle_gamma    106.29920315970502

_space_group_name_H-M_alt    "P 1"
_space_group_IT_number       1

loop_
  _space_group_symop_operation_xyz
  'x, y, z'

loop_
  _atom_site_type_symbol
  _atom_site_label
  _atom_site_symmetry_multiplicity
  _atom_site_fract_x
  _atom_site_fract_y
  _atom_site_fract_z
  _atom_site_occupancy
  Zn  Zn1       1.0  0.6728784230501077  0.3271184878964278  0.7500011526939829  1.0000
  Zn  Zn2       1.0  0.32712368434076916  0.6728840557081313  0.25000087564018264  1.0000
  H   H1        1.0  0.3297247912583785  0.5734105296400005  0.8198477911529166  1.0000
  H   H2        1.0  0.4265940123982759  0.6702742761578195  0.6801476484317915  1.0000
  H   H3        1.0  0.6702781173499158  0.4266022921339997  0.1801518581276937  1.0000
  H   H4        1.0  0.5734071884570112  0.32972140363515473  0.3198531249554292  1.0000
  H   H5        1.0  0.38220464941210963  0.6276914786278596  0.9373242953763493  1.0000
  H   H6        1.0  0.3723218314938777  0.6177769974572201  0.5626685274591381  1.0000
  H   H7        1.0  0.6177911496516372  0.37232695317624837  0.06267329083933502  1.0000
  H   H8        1.0  0.6276784580770495  0.3822118137653518  0.4373290441510704  1.0000
  H   H9        1.0  0.2854312482718058  0.4315915146381642  0.8872386487869264  1.0000
  H   H10       1.0  0.568419051140026  0.7145596279674751  0.612755083993548  1.0000
  H   H11       1.0  0.7145657432064709  0.5684235077646705  0.11275876445349553  1.0000
  H   H12       1.0  0.43158147620138004  0.28543375324721154  0.3872428627242783  1.0000
  H   H13       1.0  0.0540717454419735  0.6783856561467515  0.9361965645224473  1.0000
  H   H14       1.0  0.32161001399486383  0.9459252685609846  0.5638028526742715  1.0000
  H   H15       1.0  0.9459271600731822  0.32161341222813894  0.06380169938226743  1.0000
  H   H16       1.0  0.6784005151439982  0.0540762272719704  0.4361926153098352  1.0000
  H   H17       1.0  0.9618516001357378  0.7291396901637487  0.02568244257543035  1.0000
  H   H18       1.0  0.27086254220712647  0.038149209060165404  0.4743227512273265  1.0000
  H   H19       1.0  0.03815698941502894  0.2708663625755748  0.9743197165811138  1.0000
  H   H20       1.0  0.7291463253079655  0.9618465625349305  0.525674735290238  1.0000
  H   H21       1.0  0.9650290628825856  0.8272592924716876  0.9348562263939897  1.0000
  H   H22       1.0  0.1727373119550961  0.034969821449252016  0.5651460728120553  1.0000
  H   H23       1.0  0.03497995133112401  0.17274447774987325  0.0651438417208681  1.0000
  H   H24       1.0  0.8272659306406068  0.9650178839069384  0.4348503455165087  1.0000
  H   H25       1.0  0.67789994640129  0.7767164381115352  0.7959936713307911  1.0000
  H   H26       1.0  0.2232800036365249  0.32209719814828475  0.704005818882159  1.0000
  H   H27       1.0  0.32209324628849595  0.22327799583135297  0.2040070287613247  1.0000
  H   H28       1.0  0.776717474859481  0.6779007128083167  0.2959935407769265  1.0000
  H   H29       1.0  0.6826834567955586  0.9916954495343406  0.7122546151439765  1.0000
  H   H30       1.0  0.008305527157766324  0.31731561777701967  0.7877471947514962  1.0000
  H   H31       1.0  0.3173120757806558  0.008307011983532701  0.287748839914137  1.0000
  H   H32       1.0  0.9916895203799568  0.6826776942389542  0.2122516164312671  1.0000
  H   H33       1.0  0.6719953050330146  0.28386503939233176  0.937005001914251  1.0000
  H   H34       1.0  0.7161271182487211  0.32799128800086663  0.5629953745170297  1.0000
  H   H35       1.0  0.3280068997614052  0.7161340819229735  0.06299741570364863  1.0000
  H   H36       1.0  0.28387102584655827  0.672008913602646  0.43700356709468474  1.0000
  H   H37       1.0  0.6657889388005102  0.08327753373617951  0.031326699985342515  1.0000
  H   H38       1.0  0.9167178840487222  0.3342096970821872  0.468674335938573  1.0000
  H   H39       1.0  0.33421250140817454  0.916722717635189  0.9686750974528451  1.0000
  H   H40       1.0  0.08328378918167086  0.6657951195224782  0.5313258897771576  1.0000
  C   C1        1.0  0.371340978276578  0.5374498580283956  0.8812131792210991  1.0000
  C   C2        1.0  0.4625600698520102  0.6286520144224284  0.6187846102478574  1.0000
  C   C3        1.0  0.6286600723179276  0.46256408249996656  0.11878706108215202  1.0000
  C   C4        1.0  0.5374378412215605  0.3713436219477941  0.3812159030863072  1.0000
  C   C5        1.0  0.5200279163133175  0.5029323863040178  0.871666364004149  1.0000
  C   C6        1.0  0.4970707456785561  0.479962094782465  0.6283341034109071  1.0000
  C   C7        1.0  0.47997146790864065  0.4970758252276611  0.1283339480025063  1.0000
  C   C8        1.0  0.5029293538340553  0.5200335657774319  0.3716646364618938  1.0000
  C   C9        1.0  0.6646049940855504  0.6098588561294777  0.9153890149811873  1.0000
  C   C10       1.0  0.3901337517712165  0.33538437313124814  0.5846091909615793  1.0000
  C   C11       1.0  0.335396023043117  0.3901436793459325  0.0846155224420357  1.0000
  C   C12       1.0  0.6098648169869988  0.6646135459544953  0.41538765960844165  1.0000
  C   C13       1.0  0.8113738033663368  0.5942817661120404  0.9036744806537911  1.0000
  C   C14       1.0  0.405718583291744  0.18861662401944568  0.5963259580762353  1.0000
  C   C15       1.0  0.18862306040841054  0.4057252766996485  0.09632813830958038  1.0000
  C   C16       1.0  0.5942869017868446  0.8113825312009696  0.40367282593459924  1.0000
  C   C17       1.0  0.9566288058113345  0.7144750601537027  0.9533406085469878  1.0000
  C   C18       1.0  0.2855175224061596  0.04336460236672221  0.5466600437350095  1.0000
  C   C19       1.0  0.043370434877843395  0.2855251559240557  0.04665841974907179  1.0000
  C   C20       1.0  0.7144858605564793  0.9566310952708299  0.45333636041743836  1.0000
  C   C21       1.0  0.6715422153862888  0.91250161441738  0.9213222745135639  1.0000
  C   C22       1.0  0.0874985854170731  0.32845390864986973  0.5786803742863854  1.0000
  C   C23       1.0  0.3284552726072647  0.08749630605687743  0.07868097880563601  1.0000
  C   C24       1.0  0.9125075731754106  0.6715475451488259  0.4213212363938439  1.0000
  C   C25       1.0  0.6769783340937822  0.8876466129743295  0.8300269855498853  1.0000
  C   C26       1.0  0.1123550253501762  0.3230206301842174  0.6699739763571344  1.0000
  C   C27       1.0  0.32301772529769573  0.11235014849535935  0.1699767145803364  1.0000
  C   C28       1.0  0.887645311932907  0.6769796003677941  0.3300251386232773  1.0000
  C   C29       1.0  0.6802667164557689  0.0070443012040967996  0.7833810718469465  1.0000
  C   C30       1.0  0.9929545241596713  0.3197330472422735  0.7166207986498849  1.0000
  C   C31       1.0  0.3197290093446128  0.9929513141489964  0.21662251283527922  1.0000
  C   C32       1.0  0.007042954336334631  0.6802648637143207  0.2833785610092007  1.0000
  C   C33       1.0  0.6737725230727704  0.1700217749794746  0.9087733236742537  1.0000
  C   C34       1.0  0.8299704890988336  0.3262197264209874  0.5912291635994364  1.0000
  C   C35       1.0  0.3262250623243261  0.8299727232055291  0.09123031892868742  1.0000
  C   C36       1.0  0.170028326927401  0.6737827721745334  0.4087719557383167  1.0000
  C   C37       1.0  0.6700701964005374  0.05819569595154662  0.9607760033549155  1.0000
  C   C38       1.0  0.9418007808050178  0.32992219463704237  0.5392291520114298  1.0000
  C   C39       1.0  0.3299293889602026  0.9418056773467428  0.03922768299261043  1.0000
  C   C40       1.0  0.05820099299477018  0.6700792028509284  0.4607727608747467  1.0000
  S   S1        1.0  0.6653857814763172  0.7734638464922342  0.9886542793530211  1.0000
  S   S2        1.0  0.2265345028036734  0.3346101760424959  0.5113478846747057  1.0000
  S   S3        1.0  0.3346185317657627  0.22653873875103875  0.011353113896674906  1.0000
  S   S4        1.0  0.7734634019382086  0.6653854539826227  0.48865003288604203  1.0000
  N   N1        1.0  0.6790556277677168  0.14648437138754392  0.8212697087131531  1.0000
  N   N2        1.0  0.8535113562149518  0.3209348365479769  0.678731541096468  1.0000
  N   N3        1.0  0.3209425242421844  0.8535158381473453  0.178732477615327  1.0000
  N   N4        1.0  0.14648741209913402  0.6790562427181044  0.3212680348710819  1.0000
  O   O1        1.0  0.5053306909973259  0.37696390584102357  0.821931878397848  1.0000
  O   O2        1.0  0.6230372931267708  0.49466075793871783  0.678068276229034  1.0000
  O   O3        1.0  0.4946665942745128  0.6230408512803436  0.1780673516371252  1.0000
  O   O4        1.0  0.3769606084492594  0.505334868913849  0.321928343445002  1.0000
  O   O5        1.0  0.8310714849862888  0.4848452770711307  0.8523993796245293  1.0000
  O   O6        1.0  0.5151474153607792  0.16892626046787743  0.6475987684235988  1.0000
  O   O7        1.0  0.1689243732663996  0.5151583226319475  0.1476009461648076  1.0000
  O   O8        1.0  0.48485040147510017  0.8310728013641439  0.3524026535135363  1.0000
