data_image0
_chemical_formula_structural       Cd3H38C54O22
_chemical_formula_sum              "Cd3 H38 C54 O22"
_cell_length_a       8.284536632120952
_cell_length_b       8.22433983372815
_cell_length_c       18.69972980695641
_cell_angle_alpha    98.6622269340787
_cell_angle_beta     98.39164943535445
_cell_angle_gamma    106.01546942794192

_space_group_name_H-M_alt    "P 1"
_space_group_IT_number       1

loop_
  _space_group_symop_operation_xyz
  'x, y, z'

loop_
  _atom_site_type_symbol
  _atom_site_label
  _atom_site_symmetry_multiplicity
  _atom_site_fract_x
  _atom_site_fract_y
  _atom_site_fract_z
  _atom_site_occupancy
  Cd  Cd1       1.0  0.5000073479434306  0.49999888577904267  0.500003007837627  1.0000
  Cd  Cd2       1.0  0.7707165913189442  0.9474065935833593  0.5099722767568836  1.0000
  Cd  Cd3       1.0  0.2293059908380073  0.052595870447667885  0.49002922028350326  1.0000
  H   H1        1.0  0.1679133480252091  0.34175843293331093  0.5580934514141234  1.0000
  H   H2        1.0  0.8320951026850593  0.6582419193727843  0.4419069079145075  1.0000
  H   H3        1.0  0.11136624786451683  0.343785316462359  0.47129603685003474  1.0000
  H   H4        1.0  0.8886341297698551  0.6562126598336347  0.5287025373976846  1.0000
  H   H5        1.0  0.7735074205647052  0.29883082801764965  0.5406827264529213  1.0000
  H   H6        1.0  0.2265159374189452  0.7011703030576228  0.4593187522525852  1.0000
  H   H7        1.0  0.6958459147086912  0.22724738261720026  0.4586757772657108  1.0000
  H   H8        1.0  0.30417629577796396  0.7727577558320744  0.5413269119868218  1.0000
  H   H9        1.0  0.40952283007641205  0.5521655995861323  0.02319271981305351  1.0000
  H   H10       1.0  0.5904698857661829  0.4478272495767754  0.9768012708713415  1.0000
  H   H11       1.0  0.425021568708523  0.9296818584819417  0.8842835806153532  1.0000
  H   H12       1.0  0.5749668303072256  0.07032045771919829  0.11571437107269843  1.0000
  H   H13       1.0  0.031053443361848666  0.822827433053007  0.01344361554676961  1.0000
  H   H14       1.0  0.9689342326456227  0.17717611383090306  0.9865522127824704  1.0000
  H   H15       1.0  0.42399071942661953  0.8485738922748141  0.1434133026352598  1.0000
  H   H16       1.0  0.5759949276202931  0.15143519948480133  0.8565880379632632  1.0000
  H   H17       1.0  0.5427094832939191  0.8973825046600435  0.2776546599949157  1.0000
  H   H18       1.0  0.45728819519003855  0.10262214492145459  0.7223451614695904  1.0000
  H   H19       1.0  0.15013581068938467  0.44772096092486185  0.2956900445706766  1.0000
  H   H20       1.0  0.8498815224604215  0.552276290713607  0.7043070382974648  1.0000
  H   H21       1.0  0.02764638146181404  0.4003763706969822  0.1604883809369397  1.0000
  H   H22       1.0  0.9723630085564778  0.5996345684544124  0.8395163812079218  1.0000
  H   H23       1.0  0.8196871194687461  0.9301262288462623  0.8893843563347376  1.0000
  H   H24       1.0  0.1802889454548406  0.06987295799986977  0.1106200199301313  1.0000
  H   H25       1.0  0.8292392230376676  0.9851858025088943  0.7612167377228403  1.0000
  H   H26       1.0  0.17075904640849876  0.014817872072271096  0.238790561334703  1.0000
  H   H27       1.0  0.3593538248318566  0.5710750168801227  0.677721092641022  1.0000
  H   H28       1.0  0.6406665202433502  0.4289089223103204  0.3222722555556246  1.0000
  H   H29       1.0  0.3501802995241691  0.5188715815332261  0.8046828288715416  1.0000
  H   H30       1.0  0.6498281755614316  0.48110637490624697  0.1953120037258174  1.0000
  H   H31       1.0  0.16281312747921106  0.7949273009710394  0.7978711342440477  1.0000
  H   H32       1.0  0.8371642433966641  0.20506757168216436  0.2021256063927197  1.0000
  H   H33       1.0  0.12841208548589125  0.8644923677199756  0.6732400037737563  1.0000
  H   H34       1.0  0.8715806293058677  0.1355086410456678  0.3267613962065639  1.0000
  H   H35       1.0  0.09816155315543537  0.3630953410387006  0.7644620224188259  1.0000
  H   H36       1.0  0.9018409184116863  0.636905122143105  0.2355357717384194  1.0000
  H   H37       1.0  0.1329112206604961  0.29660777604394173  0.8911734907928305  1.0000
  H   H38       1.0  0.8670874936067392  0.7033890036922655  0.1088259665757718  1.0000
  C   C1        1.0  0.2186792101391646  0.6846203261308331  0.0244656088082209  1.0000
  C   C2        1.0  0.7813023678836969  0.31538356174298326  0.9755324731604418  1.0000
  C   C3        1.0  0.3603426485728605  0.6484612747127159  0.0016163209413094012  1.0000
  C   C4        1.0  0.6396350218733957  0.351526984346215  0.9983784676641746  1.0000
  C   C5        1.0  0.4309226448404645  0.735663589161817  0.9495488569320188  1.0000
  C   C6        1.0  0.5690642218033659  0.2643454343998214  0.05045203293862239  1.0000
  C   C7        1.0  0.3652094693163761  0.8590264510075512  0.9229203170719983  1.0000
  C   C8        1.0  0.6347772459998992  0.1409787867875281  0.0770830255200394  1.0000
  C   C9        1.0  0.22170804605196542  0.8884749887211781  0.9459924133484634  1.0000
  C   C10       1.0  0.7782679671040357  0.1115161407951959  0.054006695314164715  1.0000
  C   C11       1.0  0.14529752466148696  0.8014970439248827  0.9968560019487994  1.0000
  C   C12       1.0  0.8546838563431154  0.1984990678698608  0.0031427020752730207  1.0000
  C   C13       1.0  0.21812561232327005  0.6222408578008255  0.1449385241360943  1.0000
  C   C14       1.0  0.7818724763939713  0.377769200260424  0.8550659081419241  1.0000
  C   C15       1.0  0.3647184689151715  0.7610072324000041  0.1768380048352114  1.0000
  C   C16       1.0  0.6352801752860273  0.23900795289030435  0.823165148598676  1.0000
  C   C17       1.0  0.430507386254945  0.788110467503074  0.25189939560976876  1.0000
  C   C18       1.0  0.5694927507043488  0.21189808713146613  0.7481024259117959  1.0000
  C   C19       1.0  0.35394861505637465  0.6767848122565496  0.2953977590160051  1.0000
  C   C20       1.0  0.6460527414998367  0.3232236741800065  0.7046036117776708  1.0000
  C   C21       1.0  0.20834006516246717  0.535932312036344  0.2621102646551421  1.0000
  C   C22       1.0  0.791670439866735  0.46407060386028576  0.7378909208532817  1.0000
  C   C23       1.0  0.1402739982872419  0.5086356007845723  0.1874348922589917  1.0000
  C   C24       1.0  0.8597322031197195  0.4913767565820421  0.8125697188296783  1.0000
  C   C25       1.0  0.43004476448984275  0.7039188910134229  0.37514471787316245  1.0000
  C   C26       1.0  0.5699616451060976  0.29607887213389006  0.6248542798522436  1.0000
  C   C27       1.0  0.5821385191511297  0.7246608473624577  0.8534873719516582  1.0000
  C   C28       1.0  0.41785263078261176  0.2753428528829289  0.1465146001218471  1.0000
  C   C29       1.0  0.7206680065989206  0.8526037162316696  0.8424478704820757  1.0000
  C   C30       1.0  0.2793163680326459  0.14740554599890027  0.1575560625380277  1.0000
  C   C31       1.0  0.7258077963908107  0.8822381785489453  0.7711890192935512  1.0000
  C   C32       1.0  0.27419027912182514  0.117771905080545  0.2288159484078918  1.0000
  C   C33       1.0  0.5949226007375542  0.7845032521646046  0.7116012808632631  1.0000
  C   C34       1.0  0.40509031707627935  0.21549957847255286  0.28840007403623963  1.0000
  C   C35       1.0  0.45953921533249104  0.6517861860424148  0.7236945313581273  1.0000
  C   C36       1.0  0.5404753993854142  0.3482136974325556  0.27630089721396434  1.0000
  C   C37       1.0  0.4534564824908642  0.6218108843451731  0.7945159252530516  1.0000
  C   C38       1.0  0.5465498814143785  0.37818288848962567  0.2054812418063676  1.0000
  C   C39       1.0  0.5989586293383198  0.8182165071583183  0.6356029050892786  1.0000
  C   C40       1.0  0.40105607367626567  0.18177717181428218  0.3643991382262897  1.0000
  C   C41       1.0  0.15096919576539136  0.0430312379824116  0.8521751530231185  1.0000
  C   C42       1.0  0.8490223593755956  0.9569656441227462  0.14782058363172004  1.0000
  C   C43       1.0  0.14990369185805716  0.9201630565076896  0.7912340081827409  1.0000
  C   C44       1.0  0.8500813743465301  0.07983279955661968  0.20876227281083  1.0000
  C   C45       1.0  0.13088992068141178  0.9592523033396317  0.7212433945116317  1.0000
  C   C46       1.0  0.8690975186939839  0.040743544169942  0.2787546621432924  1.0000
  C   C47       1.0  0.11471396511124957  0.11989944276501766  0.7113120785842781  1.0000
  C   C48       1.0  0.8852803673569412  0.880098772247905  0.28868660760916504  1.0000
  C   C49       1.0  0.11613370884644074  0.24078223782782973  0.7728985779786157  1.0000
  C   C50       1.0  0.8838687627206809  0.7592182253539761  0.22709921617862958  1.0000
  C   C51       1.0  0.1342844500478577  0.20383898828777083  0.843208161941277  1.0000
  C   C52       1.0  0.8657212954351152  0.7961639702865922  0.1567900076678796  1.0000
  C   C53       1.0  0.09959384075879292  0.16284969424121695  0.6366089838575206  1.0000
  C   C54       1.0  0.9004186007987229  0.8371478557574149  0.3633904373455792  1.0000
  O   O1        1.0  0.13736839894166053  0.5912266500030583  0.07214520388636458  1.0000
  O   O2        1.0  0.8626162295695893  0.40877200832073146  0.9278549464364686  1.0000
  O   O3        1.0  0.5698008936888429  0.699473794992464  0.9252466507123671  1.0000
  O   O4        1.0  0.4301798526041694  0.3005173429826797  0.0747565446963705  1.0000
  O   O5        1.0  0.15345345259259352  0.011959721198017801  0.9229754680764444  1.0000
  O   O6        1.0  0.8465299898586736  0.9880348616017754  0.07702008976774977  1.0000
  O   O7        1.0  0.3558329773778723  0.5898581715067903  0.4103842719979128  1.0000
  O   O8        1.0  0.6441765487294903  0.41013423424927714  0.5896141169645546  1.0000
  O   O9        1.0  0.5595356091926575  0.8340760303659138  0.403569232412572  1.0000
  O   O10       1.0  0.4404676310734459  0.16592719244562198  0.5964325157694716  1.0000
  O   O11       1.0  0.47476834434654347  0.7226714172419333  0.5833132618235695  1.0000
  O   O12       1.0  0.5252452243756454  0.2773262435364287  0.4166894566156003  1.0000
  O   O13       1.0  0.7237737906049161  0.9367456883389875  0.6253644122607227  1.0000
  O   O14       1.0  0.27623522570918624  0.0632455805005279  0.3746370862118625  1.0000
  O   O15       1.0  0.0599553199374014  0.0360036745491499  0.5806377891747374  1.0000
  O   O16       1.0  0.9400672033242472  0.963994824737604  0.41936241262308727  1.0000
  O   O17       1.0  0.12818313248486393  0.319922047985571  0.631264165414521  1.0000
  O   O18       1.0  0.8718474770572797  0.6800788017430435  0.36873728604079054  1.0000
  O   O19       1.0  0.2087385699637352  0.3425579184529112  0.5072579026504016  1.0000
  O   O20       1.0  0.791272510881747  0.657446006519052  0.4927374962307951  1.0000
  O   O21       1.0  0.7930642264283634  0.22724417614070794  0.4972133409653523  1.0000
  O   O22       1.0  0.20695954891629506  0.7727582708288239  0.5027887761939951  1.0000
