data_image0
_chemical_formula_structural       Fe3H48C72N30
_chemical_formula_sum              "Fe3 H48 C72 N30"
_cell_length_a       8.909074414341868
_cell_length_b       16.231010065152784
_cell_length_c       16.23407890056205
_cell_angle_alpha    116.73160383190285
_cell_angle_beta     100.53541932647903
_cell_angle_gamma    100.54059039837358

_space_group_name_H-M_alt    "P 1"
_space_group_IT_number       1

loop_
  _space_group_symop_operation_xyz
  'x, y, z'

loop_
  _atom_site_type_symbol
  _atom_site_label
  _atom_site_symmetry_multiplicity
  _atom_site_fract_x
  _atom_site_fract_y
  _atom_site_fract_z
  _atom_site_occupancy
  Fe  Fe1       1.0  6.573781659745946e-07  0.5000000530474579  0.49999971420157147  1.0000
  Fe  Fe2       1.0  0.49999871435863946  0.9999993623219225  0.49999988563800457  1.0000
  Fe  Fe3       1.0  0.500000703061687  0.5000000328598729  1.4745216950673094e-07  1.0000
  H   H1        1.0  0.42014813163306997  0.3143496081704455  0.3390105713182336  1.0000
  H   H2        1.0  0.10595649631757449  0.0246823565820051  0.6858071341990881  1.0000
  H   H3        1.0  0.08108878473381506  0.6609864666771443  0.9752748494298232  1.0000
  H   H4        1.0  0.579853108510825  0.6856513792852325  0.6609905437330923  1.0000
  H   H5        1.0  0.8940395090902127  0.9753150128524551  0.3141924427051065  1.0000
  H   H6        1.0  0.9189120946477515  0.33901379720582975  0.024725287984558975  1.0000
  H   H7        1.0  0.41974156346434194  0.258170735728612  0.16579807355569187  1.0000
  H   H8        1.0  0.1616273489365057  0.9075513730640594  0.7418277383219803  1.0000
  H   H9        1.0  0.2537159703648299  0.8342094846959397  0.09234871596397894  1.0000
  H   H10       1.0  0.5802573943067841  0.7418302518529744  0.834202195511047  1.0000
  H   H11       1.0  0.8383724422658146  0.09244671982356319  0.2581731613931595  1.0000
  H   H12       1.0  0.7462849099987707  0.16579077923322663  0.9076508055818027  1.0000
  H   H13       1.0  0.6801384614134919  0.31063735875622456  0.1368539906779631  1.0000
  H   H14       1.0  0.3695916428175962  0.8261347094295529  0.6893904562184616  1.0000
  H   H15       1.0  0.5430853252396659  0.8632545898156253  0.17377346193270418  1.0000
  H   H16       1.0  0.31986049733968264  0.6893636288715612  0.8631456625201679  1.0000
  H   H17       1.0  0.6304070057252814  0.1738633834517245  0.3106109443072783  1.0000
  H   H18       1.0  0.45691555512394194  0.13674567411354843  0.8262260596130846  1.0000
  H   H19       1.0  0.927298133678782  0.411986801901584  0.27848887340523015  1.0000
  H   H20       1.0  0.5153461676349806  0.8664546584109731  0.5879642935945882  1.0000
  H   H21       1.0  0.6486831044679774  0.7215911062636663  0.1335683621381776  1.0000
  H   H22       1.0  0.07270082507439206  0.5880141857262087  0.7215107797929079  1.0000
  H   H23       1.0  0.4846528436343148  0.13354415813541456  0.41203685283090163  1.0000
  H   H24       1.0  0.35131777491358207  0.27840915761930757  0.8664317752762047  1.0000
  H   H25       1.0  0.4039703312363229  0.3676602391364909  0.6391875045964995  1.0000
  H   H26       1.0  0.036068507345447594  0.271528053204122  0.6323261395122517  1.0000
  H   H27       1.0  0.7647426849212237  0.3608087369104566  0.728550564425035  1.0000
  H   H28       1.0  0.5960316908046862  0.6323400247528281  0.36081213200728257  1.0000
  H   H29       1.0  0.96393159210308  0.7284729343376171  0.36767424461248044  1.0000
  H   H30       1.0  0.235257415509352  0.6391922506774818  0.2714492038310964  1.0000
  H   H31       1.0  0.3432126749185257  0.37831754592288286  0.7863088737459095  1.0000
  H   H32       1.0  0.9648512256880935  0.40805299719647786  0.6216639696086261  1.0000
  H   H33       1.0  0.5569854825767421  0.21368225118239786  0.5920302092559312  1.0000
  H   H34       1.0  0.6567885662074103  0.6216834415790018  0.21369162543681589  1.0000
  H   H35       1.0  0.03514851299811282  0.591947266772543  0.37833543687916193  1.0000
  H   H36       1.0  0.4430146168717854  0.7863187363593414  0.40797017486880083  1.0000
  H   H37       1.0  0.7315634585738734  0.6251505664370071  0.9661693956817246  1.0000
  H   H38       1.0  0.10626452081163505  0.34094552009946705  0.3747751806354103  1.0000
  H   H39       1.0  0.7653654739371659  0.03372434671702249  0.6589299706519542  1.0000
  H   H40       1.0  0.2684370600453647  0.37484897387324867  0.033829764095706524  1.0000
  H   H41       1.0  0.8937340752151286  0.6590547438632084  0.625224726662978  1.0000
  H   H42       1.0  0.23463426278495092  0.9662759171595994  0.3410706675730353  1.0000
  H   H43       1.0  0.8151551980807953  0.6186314236312712  0.8260262278066296  1.0000
  H   H44       1.0  0.19654302414997457  0.20738967354062512  0.3814358977303982  1.0000
  H   H45       1.0  0.9890788130715649  0.17388976365330683  0.7925974854142555  1.0000
  H   H46       1.0  0.18484453864132885  0.3813688402453507  0.17397441041835282  1.0000
  H   H47       1.0  0.8034567145362245  0.7926105904283958  0.61856350875739  1.0000
  H   H48       1.0  0.010922067292035728  0.8261105002758669  0.20740203613152625  1.0000
  C   C1        1.0  0.6861172271891077  0.4294597923506628  0.4970815961259873  1.0000
  C   C2        1.0  0.2568936667541735  0.06780084231024121  0.5707321773266048  1.0000
  C   C3        1.0  0.189111283310872  0.5029062685926603  0.9322606443702101  1.0000
  C   C4        1.0  0.3138825105150572  0.5705404715721584  0.5029184262303943  1.0000
  C   C5        1.0  0.7431038410933438  0.93219725065709  0.4292684922725412  1.0000
  C   C6        1.0  0.8108884543932929  0.49709399533016096  0.06773937798617155  1.0000
  C   C7        1.0  0.6698372896337615  0.47945795141076525  0.6373804839526187  1.0000
  C   C8        1.0  0.1905916880034226  0.15808972679100458  0.52071737663627  1.0000
  C   C9        1.0  0.032540160017994355  0.3625837871803696  0.8420369372099901  1.0000
  C   C10       1.0  0.3301624480703964  0.5205423125120561  0.3626195384037629  1.0000
  C   C11       1.0  0.8094088276696851  0.841909813380653  0.47928363074696284  1.0000
  C   C12       1.0  0.9674610811079345  0.6374172003215148  0.15796356197273534  1.0000
  C   C13       1.0  0.6710580582482139  0.3899800622570809  0.3959265331706946  1.0000
  C   C14       1.0  0.2812403444597749  0.006054166944977599  0.6101606994788115  1.0000
  C   C15       1.0  0.27512993296171834  0.6040606032436742  0.9939080611723484  1.0000
  C   C16       1.0  0.3289416804379854  0.61002020171194  0.6040728733170867  1.0000
  C   C17       1.0  0.7187568026254141  0.9939432024496356  0.38983899248339077  1.0000
  C   C18       1.0  0.7248709474018823  0.3959396606854994  0.006091460373433078  1.0000
  C   C19       1.0  0.5285759074454788  0.33237284133547723  0.3206915722388289  1.0000
  C   C20       1.0  0.1963889174546266  0.9883637485532828  0.6677617889246078  1.0000
  C   C21       1.0  0.20783654391573222  0.6793283723600891  0.011612880185289212  1.0000
  C   C22       1.0  0.4714230503256545  0.667628146246109  0.6793086968279098  1.0000
  C   C23       1.0  0.8036070889352088  0.011633620927383997  0.3322371721109932  1.0000
  C   C24       1.0  0.7921628340081385  0.3206711680362204  0.9883855486655478  1.0000
  C   C25       1.0  0.5295969282435209  0.3022548548307356  0.22589876366335912  1.0000
  C   C26       1.0  0.22749395756990506  0.9236245521128339  0.6978013629847554  1.0000
  C   C27       1.0  0.30356551909498103  0.7741335760344157  0.07634779148799699  1.0000
  C   C28       1.0  0.4704020314916945  0.6977461328432496  0.7741002736661713  1.0000
  C   C29       1.0  0.7725043311926854  0.07637281724193201  0.3021984440354332  1.0000
  C   C30       1.0  0.6964368637083496  0.22586741142761477  0.923652822752729  1.0000
  C   C31       1.0  0.6736170700232691  0.3311607491871342  0.2095954816465664  1.0000
  C   C32       1.0  0.3425933473996777  0.8783863940918406  0.6688885274639702  1.0000
  C   C33       1.0  0.46388752166008357  0.7904876579382998  0.12158979606769524  1.0000
  C   C34       1.0  0.3263818887299052  0.6688402384406513  0.7904041715515717  1.0000
  C   C35       1.0  0.6574068045649781  0.12161242236849289  0.3311133498881135  1.0000
  C   C36       1.0  0.5361133587035241  0.20951260599087362  0.8784097254780863  1.0000
  C   C37       1.0  0.8119790847164196  0.38844437053026576  0.28800133331144906  1.0000
  C   C38       1.0  0.42359851512673424  0.8995214059245668  0.6115810310969608  1.0000
  C   C39       1.0  0.523876634057487  0.71206138842296  0.10047055018697652  1.0000
  C   C40       1.0  0.1880206539697865  0.611555893438762  0.711998073176332  1.0000
  C   C41       1.0  0.5764001353802257  0.10047668704910959  0.388419137691578  1.0000
  C   C42       1.0  0.47612460805049034  0.28793959912513156  0.8995293331271557  1.0000
  C   C43       1.0  0.6174030123038249  0.49111777606468365  0.7202367857999762  1.0000
  C   C44       1.0  0.12621587600210657  0.22915755731911247  0.508937258641062  1.0000
  C   C45       1.0  0.8970952851549895  0.27969819597841905  0.770923690866809  1.0000
  C   C46       1.0  0.3825978670777345  0.5088824878182833  0.279763351614406  1.0000
  C   C47       1.0  0.8737846406530423  0.7708419828987444  0.4910631328735704  1.0000
  C   C48       1.0  0.10290445353121654  0.7203020679906017  0.22907571562097212  1.0000
  C   C49       1.0  0.47978173465872226  0.42545409918124477  0.7106389025824031  1.0000
  C   C50       1.0  0.05410936778804401  0.2851626823398945  0.5745241047357155  1.0000
  C   C51       1.0  0.7691162433927657  0.2893515108869735  0.7148962276286924  1.0000
  C   C52       1.0  0.5202183657718534  0.5745468884066937  0.28936086567373553  1.0000
  C   C53       1.0  0.9458915115935156  0.7148375815430795  0.4254760326786667  1.0000
  C   C54       1.0  0.2308834952934333  0.7106487530820474  0.2851031788590959  1.0000
  C   C55       1.0  0.4451733366163637  0.4316195077797431  0.7925977130273908  1.0000
  C   C56       1.0  0.013408836325247317  0.3609816942021452  0.5683399305655571  1.0000
  C   C57       1.0  0.6525777995870711  0.20737234030096363  0.639060880450309  1.0000
  C   C58       1.0  0.5548260393434248  0.5683800325241606  0.20740194756064761  1.0000
  C   C59       1.0  0.9865909013789107  0.6390185697206762  0.43166009179082476  1.0000
  C   C60       1.0  0.34742307979448833  0.7926279235820033  0.36093925696407325  1.0000
  C   C61       1.0  0.6629103502841572  0.5685702348137694  0.8926784431339174  1.0000
  C   C62       1.0  0.09421351446331978  0.324058707399189  0.43137705823141914  1.0000
  C   C63       1.0  0.7702062789622345  0.10723408554874679  0.6758778187148736  1.0000
  C   C64       1.0  0.3370890266576793  0.43142930553634057  0.1073206015855205  1.0000
  C   C65       1.0  0.9057858614964684  0.6759408329047217  0.5686226023566192  1.0000
  C   C66       1.0  0.22979496216370182  0.8927669019531381  0.32412268046785914  1.0000
  C   C67       1.0  0.707878892131248  0.5651939579257997  0.8144332962796953  1.0000
  C   C68       1.0  0.14263154088823876  0.249238334835205  0.4348291066069266  1.0000
  C   C69       1.0  0.8933863037681745  0.1855029598004236  0.7507891612959767  1.0000
  C   C70       1.0  0.2921219872503115  0.4348063059571743  0.18556684113468688  1.0000
  C   C71       1.0  0.8573689767489512  0.7507612054288516  0.5651706690391123  1.0000
  C   C72       1.0  0.10661379666239404  0.8144980277875148  0.2492106069601546  1.0000
  N   N1        1.0  0.832870902717964  0.4908504824016616  0.5585117483358388  1.0000
  N   N2        1.0  0.3421501967175544  0.0677705603216694  0.5092692323266945  1.0000
  N   N3        1.0  0.27437744025728245  0.4414322582895948  0.9322593678650719  1.0000
  N   N4        1.0  0.16712883498619394  0.5091497815211596  0.44148827402054286  1.0000
  N   N5        1.0  0.6578488145517412  0.9322282562247252  0.49073191409878797  1.0000
  N   N6        1.0  0.7256230783619486  0.5585672820206611  0.06773979191236627  1.0000
  N   N7        1.0  0.8232564580680233  0.5245250687225252  0.6490483745303524  1.0000
  N   N8        1.0  0.29884309186719793  0.12463264516659928  0.4755851969763897  1.0000
  N   N9        1.0  0.1742606979313379  0.35089687289890037  0.8754578795460405  1.0000
  N   N10       1.0  0.17674405956916667  0.4754744715415313  0.3509514011156867  1.0000
  N   N11       1.0  0.7011574228238686  0.8753668949588516  0.5244164262754438  1.0000
  N   N12       1.0  0.8257390407548683  0.6491033910701206  0.12454152694174778  1.0000
  N   N13       1.0  0.5800594056618137  0.41924480703065103  0.5434590733879289  1.0000
  N   N14       1.0  0.16111090640289658  0.1244309412833786  0.5809853545714392  1.0000
  N   N15       1.0  0.03665493785916846  0.4564682764118331  0.8756416630038049  1.0000
  N   N16       1.0  0.4199403330243924  0.5807554569383695  0.4565403330998592  1.0000
  N   N17       1.0  0.8388873259154082  0.8755685989679807  0.41901542269580017  1.0000
  N   N18       1.0  0.9633463032667675  0.5435327110900515  0.12435883617892064  1.0000
  N   N19       1.0  0.8131354963640902  0.417703509231039  0.38024487535282253  1.0000
  N   N20       1.0  0.395497615033662  0.9625569727316261  0.5823590261386187  1.0000
  N   N21       1.0  0.432897856811607  0.6198111570086765  0.037428331418886934  1.0000
  N   N22       1.0  0.18686460308444447  0.5822974783107  0.6197555087719095  1.0000
  N   N23       1.0  0.604500254558225  0.037441843854615804  0.41764200522887057  1.0000
  N   N24       1.0  0.5671030235519935  0.380189106920497  0.9625711901268944  1.0000
  N   N25       1.0  0.5361888101686888  0.501057282002961  0.883572689509599  1.0000
  N   N26       1.0  0.03501805436533094  0.3824846877926903  0.4988885147840352  1.0000
  N   N27       1.0  0.6526463217374499  0.11638869284568192  0.6175027837621914  1.0000
  N   N28       1.0  0.463812069212878  0.4989429818800063  0.11642744790478327  1.0000
  N   N29       1.0  0.9649824642539002  0.6175148525175727  0.5011106449934033  1.0000
  N   N30       1.0  0.3473534159667082  0.8836115710771395  0.38249723859419044  1.0000
