data_image0
_chemical_formula_structural       Cd2H20C28N12O12
_chemical_formula_sum              "Cd2 H20 C28 N12 O12"
_cell_length_a       8.326587064547267
_cell_length_b       8.32664336833753
_cell_length_c       12.21813871716134
_cell_angle_alpha    99.33317793821183
_cell_angle_beta     99.3328650370193
_cell_angle_gamma    91.36065981322679

_space_group_name_H-M_alt    "P 1"
_space_group_IT_number       1

loop_
  _space_group_symop_operation_xyz
  'x, y, z'

loop_
  _atom_site_type_symbol
  _atom_site_label
  _atom_site_symmetry_multiplicity
  _atom_site_fract_x
  _atom_site_fract_y
  _atom_site_fract_z
  _atom_site_occupancy
  Cd  Cd1       1.0  0.18830168326910976  0.8116971732111723  0.7499996677299164  1.0000
  Cd  Cd2       1.0  0.8116981815005461  0.18830194177716217  0.24999999190355027  1.0000
  H   H1        1.0  0.852440156116728  0.5875790577901869  0.6531036547395388  1.0000
  H   H2        1.0  0.5875775866245406  0.8524403193810388  0.1531023748158944  1.0000
  H   H3        1.0  0.1475586858369766  0.4124237151380755  0.3468971150010987  1.0000
  H   H4        1.0  0.41242214790770504  0.14755635764411323  0.8468986374858217  1.0000
  H   H5        1.0  0.34265413509753273  0.5685287602310326  0.3455200456245251  1.0000
  H   H6        1.0  0.5685257482396081  0.34265253850558264  0.8455223934383154  1.0000
  H   H7        1.0  0.6573424031560791  0.4314764550267681  0.6544791025537505  1.0000
  H   H8        1.0  0.4314765501667281  0.657346571819403  0.15447835347842437  1.0000
  H   H9        1.0  0.6143456594917893  0.7193225183520726  0.3689826574499051  1.0000
  H   H10       1.0  0.719319465906551  0.6143403116146473  0.8689823962819574  1.0000
  H   H11       1.0  0.38565318276274496  0.28068025487319676  0.6310172939015856  1.0000
  H   H12       1.0  0.28068033344356985  0.3856575840950853  0.13101875807478786  1.0000
  H   H13       1.0  0.7285826894126544  0.8851795825568588  0.5565031670404323  1.0000
  H   H14       1.0  0.8851786345991499  0.7285827441610311  0.0565018240157613  1.0000
  H   H15       1.0  0.2714150006910074  0.11482441153616922  0.4434967919190242  1.0000
  H   H16       1.0  0.1148235341714354  0.271413928794779  0.9434986387909277  1.0000
  H   H17       1.0  0.5700499698883021  0.8909644204553759  0.7139548962350516  1.0000
  H   H18       1.0  0.8909660758219643  0.5700490178736005  0.21395336831439948  1.0000
  H   H19       1.0  0.4299488072475269  0.10903713378829852  0.2860457314505567  1.0000
  H   H20       1.0  0.109037245400323  0.42994643451145015  0.7860462684951769  1.0000
  C   C1        1.0  0.15150987837608204  0.5712032297301094  0.5090467593097543  1.0000
  C   C2        1.0  0.5712000577903423  0.15150720339304513  0.009046744425035114  1.0000
  C   C3        1.0  0.848488964179289  0.42879954379216656  0.4909523736525897  1.0000
  C   C4        1.0  0.42880082949444187  0.8484882533583545  0.9909526234904217  1.0000
  C   C5        1.0  0.9170867654826863  0.5453246690292705  0.5840652077201085  1.0000
  C   C6        1.0  0.545324588365702  0.9170849371977425  0.0840640965151351  1.0000
  C   C7        1.0  0.08291201195397238  0.45467688551141094  0.4159346015763531  1.0000
  C   C8        1.0  0.45467508164949777  0.08291052143982822  0.9159359553424054  1.0000
  C   C9        1.0  0.3131774812649297  0.6535057523866215  0.5178975853477326  1.0000
  C   C10       1.0  0.6535055583552634  0.31317537234391324  0.0178981373444103  1.0000
  C   C11       1.0  0.6868202091395618  0.34649824200341345  0.4821015552225773  1.0000
  C   C12       1.0  0.3464964816820526  0.6868188641337415  0.9820995861847804  1.0000
  C   C13       1.0  0.39604975582165025  0.64131501556804  0.4260135949268004  1.0000
  C   C14       1.0  0.6413066486032476  0.3960482426624382  0.9260112243628666  1.0000
  C   C15       1.0  0.6039479990998872  0.358690197209576  0.5739865060876851  1.0000
  C   C16       1.0  0.358691999197653  0.6039508745090745  0.07398830082354381  1.0000
  C   C17       1.0  0.5466008239976503  0.7245936844761263  0.43862094214966146  1.0000
  C   C18       1.0  0.7245953846652425  0.5466010653830011  0.9386233018222182  1.0000
  C   C19       1.0  0.4533980179560543  0.27540908845213613  0.5613798275909758  1.0000
  C   C20       1.0  0.2754069782581396  0.45339926332955827  0.0613784055386972  1.0000
  C   C21       1.0  0.6113577271740384  0.8174624344949494  0.5427793380310105  1.0000
  C   C22       1.0  0.8174637698179196  0.6113519647186864  0.0427783133840194  1.0000
  C   C23       1.0  0.3886411801992082  0.18254155771191452  0.4572199369863624  1.0000
  C   C24       1.0  0.18253839895266566  0.38864470823712344  0.9572221494226695  1.0000
  C   C25       1.0  0.5221571786883318  0.8225525717368924  0.6305097189599209  1.0000
  C   C26       1.0  0.8225527691686665  0.5221547106796792  0.13051036241450475  1.0000
  C   C27       1.0  0.47784166356620267  0.17745020148837656  0.3694902323915698  1.0000
  C   C28       1.0  0.1774492702669974  0.4778395252039616  0.8694889978929794  1.0000
  N   N1        1.0  0.06584503933803629  0.6130808552164597  0.5926904291564624  1.0000
  N   N2        1.0  0.6130788800424013  0.0658425214771512  0.09269110190219007  1.0000
  N   N3        1.0  0.9341550847031355  0.38692313451021937  0.4073097986971134  1.0000
  N   N4        1.0  0.3869232890290134  0.9341541517756654  0.907308542515352  1.0000
  N   N5        1.0  0.376401589895174  0.743553205994445  0.6184541319374404  1.0000
  N   N6        1.0  0.7435489654445534  0.37639644098324965  0.11845056677588418  1.0000
  N   N7        1.0  0.6235972526601972  0.2564495675278237  0.38154500102490363  1.0000
  N   N8        1.0  0.2564530748935923  0.623597795791412  0.8815463383641599  1.0000
  N   N9        1.0  0.8994299246315691  0.9118260881843059  0.8520753286454905  1.0000
  N   N10       1.0  0.9118264772137294  0.8994319738690495  0.35207549011885664  1.0000
  N   N11       1.0  0.1005700046551325  0.0881742451916097  0.14792529143215208  1.0000
  N   N12       1.0  0.0881735165900253  0.10056957789444712  0.6479260904029616  1.0000
  O   O1        1.0  0.9240579288082882  0.7664989884876334  0.8035892860915649  1.0000
  O   O2        1.0  0.7665007330739684  0.9240583112931802  0.30358815020881735  1.0000
  O   O3        1.0  0.0759431523284633  0.23350012372351617  0.19641214476726523  1.0000
  O   O4        1.0  0.2335004128806659  0.07594201960255026  0.6964134227050421  1.0000
  O   O5        1.0  0.0165376294167245  0.017313557301506004  0.8729084324586579  1.0000
  O   O6        1.0  0.017314303282063303  0.016537178643240204  0.3729083823134616  1.0000
  O   O7        1.0  0.9834635171395689  0.9826867741882451  0.1270915036769011  1.0000
  O   O8        1.0  0.9826856260046452  0.9834631547326758  0.627092237764188  1.0000
  O   O9        1.0  0.7620133466046536  0.9428769624769872  0.8761262846260748  1.0000
  O   O10       1.0  0.9428775744621304  0.7620165770232962  0.37612623077941976  1.0000
  O   O11       1.0  0.2379865829828844  0.057123371195935115  0.1238735170624281  1.0000
  O   O12       1.0  0.05712363661120891  0.2379849728540294  0.6238746658003149  1.0000
