data_image0
_chemical_formula_structural       Cu2H10C16N6O8
_chemical_formula_sum              "Cu2 H10 C16 N6 O8"
_cell_length_a       6.209434778814236
_cell_length_b       7.630104798554301
_cell_length_c       9.830955068316237
_cell_angle_alpha    92.21782580764618
_cell_angle_beta     89.99956044384807
_cell_angle_gamma    89.99523836022152

_space_group_name_H-M_alt    "P 1"
_space_group_IT_number       1

loop_
  _space_group_symop_operation_xyz
  'x, y, z'

loop_
  _atom_site_type_symbol
  _atom_site_label
  _atom_site_symmetry_multiplicity
  _atom_site_fract_x
  _atom_site_fract_y
  _atom_site_fract_z
  _atom_site_occupancy
  Cu  Cu1       1.0  0.5000068677146032  0.9999879617006683  2.6787518053017153e-06  1.0000
  Cu  Cu2       1.0  0.9999964257393118  0.9999965303156984  4.148241885091639e-06  1.0000
  H   H1        1.0  0.7500163756629519  0.8217455436248431  0.5723397141410373  1.0000
  H   H2        1.0  0.24997378035301668  0.17823458838753942  0.4276780487221287  1.0000
  H   H3        1.0  0.7499914595658977  0.6242130308728021  0.3683574320839469  1.0000
  H   H4        1.0  0.24998902945289098  0.3758105761649447  0.6316436039945045  1.0000
  H   H5        1.0  0.7499748127487535  0.2983488261958413  0.39248019330428713  1.0000
  H   H6        1.0  0.25000729019414075  0.7016723310169726  0.6075044779491634  1.0000
  H   H7        1.0  0.7499927052395421  0.1775337361873497  0.6225670350905118  1.0000
  H   H8        1.0  0.24999584296377717  0.8224743709191886  0.3774110577473521  1.0000
  H   H9        1.0  0.7501169116886429  0.3770438806467525  0.05115657853088609  1.0000
  H   H10       1.0  0.24995860290989927  0.6229338705569064  0.9488387244467091  1.0000
  C   C1        1.0  0.7500222202499174  0.6130229505820138  0.7142157657548509  1.0000
  C   C2        1.0  0.2499840425995288  0.38698381338235066  0.2857653310624286  1.0000
  C   C3        1.0  0.7500076561861846  0.6804449952241853  0.5840428270013476  1.0000
  C   C4        1.0  0.2499760545337324  0.31957733290365553  0.41595511101358806  1.0000
  C   C5        1.0  0.7499935121608489  0.5684888618239653  0.46860549872221213  1.0000
  C   C6        1.0  0.2499869746132788  0.43153991559590565  0.5314028463487261  1.0000
  C   C7        1.0  0.7499864933176995  0.38742892083593733  0.4815891973461177  1.0000
  C   C8        1.0  0.24999560728124953  0.6125947512183318  0.5184057378340512  1.0000
  C   C9        1.0  0.7499934450784096  0.3188079935119958  0.6104987954843181  1.0000
  C   C10       1.0  0.24999027122665746  0.681188158014784  0.38949310263192416  1.0000
  C   C11       1.0  0.7499912795079098  0.4295174987313288  0.7281723479334374  1.0000
  C   C12       1.0  0.24999082809104323  0.5704827280236556  0.27180647456560075  1.0000
  C   C13       1.0  0.7499985635456027  0.7478205026984382  0.8301425169224643  1.0000
  C   C14       1.0  0.249983537321242  0.252172711810843  0.16987877373544788  1.0000
  C   C15       1.0  0.7500330818593  0.34252907535503146  0.8596882048452483  1.0000
  C   C16       1.0  0.2499844549769676  0.6574644872161172  0.1403005495962475  1.0000
  N   N1        1.0  0.7500141335542807  0.9303359720316563  0.11423891561422288  1.0000
  N   N2        1.0  0.2499905149970942  0.06965069671956309  0.8857811208803952  1.0000
  N   N3        1.0  0.7500183026297194  0.9608635772665152  0.23661923024891246  1.0000
  N   N4        1.0  0.2500008425917315  0.03912986632987981  0.7633807094970846  1.0000
  N   N5        1.0  0.7500199396856785  0.9835847240542323  0.3538029119808641  1.0000
  N   N6        1.0  0.25001369184604977  0.016426821996908807  0.6462221018512933  1.0000
  O   O1        1.0  0.5654515050680402  0.8026541752081472  0.868910633891616  1.0000
  O   O2        1.0  0.0654583542832086  0.19736835737796812  0.131079026910264  1.0000
  O   O3        1.0  0.43451771325137406  0.19733512571234257  0.1311084788214529  1.0000
  O   O4        1.0  0.9345479072506607  0.8026383308252889  0.8689091877552213  1.0000
  O   O5        1.0  0.7499980166690462  0.18067497306159916  0.8673588249414905  1.0000
  O   O6        1.0  0.2500001969604853  0.8193028176697152  0.13263240519995625  1.0000
  O   O7        1.0  0.7500422867493697  0.4502777047243783  0.9709134845356785  1.0000
  O   O8        1.0  0.24999296895826723  0.5496895847012483  0.0290783827853645  1.0000
