data_image0
_chemical_formula_structural       Zn4H4C42N6O20F20
_chemical_formula_sum              "Zn4 H4 C42 N6 O20 F20"
_cell_length_a       9.801291386115707
_cell_length_b       11.024890150581891
_cell_length_c       22.085323043924333
_cell_angle_alpha    90.3609976977613
_cell_angle_beta     89.75076812022537
_cell_angle_gamma    89.13197144385684

_space_group_name_H-M_alt    "P 1"
_space_group_IT_number       1

loop_
  _space_group_symop_operation_xyz
  'x, y, z'

loop_
  _atom_site_type_symbol
  _atom_site_label
  _atom_site_symmetry_multiplicity
  _atom_site_fract_x
  _atom_site_fract_y
  _atom_site_fract_z
  _atom_site_occupancy
  Zn  Zn1       1.0  0.6375524712375834  0.4978071169797075  0.5027078043385984  1.0000
  Zn  Zn2       1.0  0.3583071637357166  0.5040151366048278  0.4994809925895325  1.0000
  Zn  Zn3       1.0  0.3624802974268491  0.5051153264099781  0.0035967296680255007  1.0000
  Zn  Zn4       1.0  0.6418794909946755  0.5025823334983386  0.0001247672060599995  1.0000
  H   H1        1.0  0.8066480527850717  0.5825472082065486  0.8051149670148802  1.0000
  H   H2        1.0  0.8146294985961333  0.42106363952542836  0.803560035662997  1.0000
  H   H3        1.0  0.8073633770890608  0.4240754151157731  0.6896139071346497  1.0000
  H   H4        1.0  0.7997448615628359  0.5857072128224701  0.6911731743206461  1.0000
  C   C1        1.0  0.5091989474288282  0.7332119874322132  0.4990296995915955  1.0000
  C   C2        1.0  0.48503210987225737  0.5017548539701904  0.6179343102943093  1.0000
  C   C3        1.0  0.502301055260027  0.2678483538155305  0.5017480100506618  1.0000
  C   C4        1.0  0.5000957500299705  0.5001691214574747  0.3847822537491509  1.0000
  C   C5        1.0  0.4959201528472548  0.7365787521068724  0.0047549141773331  1.0000
  C   C6        1.0  0.5017576963410519  0.4998353852684899  0.8852728595010078  1.0000
  C   C7        1.0  0.49631438329075916  0.2710572611535937  0.9997187048396797  1.0000
  C   C8        1.0  0.5119045332531016  0.5017365551833775  0.1180783511079611  1.0000
  C   C9        1.0  0.9279823457808689  0.41967501446441696  0.46727262247141255  1.0000
  C   C10       1.0  0.06677745968880092  0.5874439870459582  0.528917846094366  1.0000
  C   C11       1.0  0.0703536720984488  0.42567125617828333  0.4636673291687217  1.0000
  C   C12       1.0  0.9245663057676693  0.5806408927404687  0.5329240967685466  1.0000
  C   C13       1.0  0.503810184436304  0.13140250155910138  0.4997659292122876  1.0000
  C   C14       1.0  0.5077146156738053  0.8696481074170136  0.49769684419602817  1.0000
  C   C15       1.0  0.3832526001148794  0.064092250799078  0.49912526588170175  1.0000
  C   C16       1.0  0.6282229310228473  0.9370435913940867  0.4977532156101674  1.0000
  C   C17       1.0  0.3851072153360064  0.9375252514416558  0.49775212472749786  1.0000
  C   C18       1.0  0.6263444680623422  0.06358774576954569  0.49854993797084296  1.0000
  C   C19       1.0  0.49405109154504595  0.4918421544997996  0.8176663497149478  1.0000
  C   C20       1.0  0.48484026795027557  0.5001092136123615  0.685791081629752  1.0000
  C   C21       1.0  0.6104870234959634  0.496428845607319  0.7816662046142538  1.0000
  C   C22       1.0  0.3657690798455421  0.49440562027222495  0.7219804390334303  1.0000
  C   C23       1.0  0.6062225392997649  0.49973045844204456  0.7183714305175215  1.0000
  C   C24       1.0  0.37025050810122206  0.48828754353838366  0.7851681131844686  1.0000
  C   C25       1.0  0.7647961951629443  0.5011604254221211  0.7836843441943486  1.0000
  C   C26       1.0  0.7602622580827046  0.5033548712709645  0.712189269521815  1.0000
  C   C27       1.0  0.5036698450907835  0.5008413619453194  0.3167160541941811  1.0000
  C   C28       1.0  0.5096931922393395  0.5022430667243255  0.18621403834807643  1.0000
  C   C29       1.0  0.6267757971118401  0.5018109669218518  0.2839479428304514  1.0000
  C   C30       1.0  0.3865107984116136  0.5020507113446442  0.21906186949251352  1.0000
  C   C31       1.0  0.6297001730154291  0.5019812846990559  0.22077350867437673  1.0000
  C   C32       1.0  0.383654164123179  0.5006933099581586  0.2821855684053745  1.0000
  C   C33       1.0  0.07430204462985299  0.4291501207284867  0.0374369111275001  1.0000
  C   C34       1.0  0.931464992503315  0.5797516489227449  0.966181041512499  1.0000
  C   C35       1.0  0.9315827846154007  0.42792176884381655  0.0361097503006604  1.0000
  C   C36       1.0  0.07394573049640478  0.5838707854014445  0.9690291105259234  1.0000
  C   C37       1.0  0.49622893906325055  0.134627543289632  0.0014867582597944005  1.0000
  C   C38       1.0  0.49586584351223456  0.8730421041094018  0.004713685020703898  1.0000
  C   C39       1.0  0.6177442471412959  0.0653025973634911  0.0033994645817685006  1.0000
  C   C40       1.0  0.3744751804289805  0.9421719995698155  0.0030118184595906  1.0000
  C   C41       1.0  0.6174868567454865  0.9388483782561391  0.0052512160530681995  1.0000
  C   C42       1.0  0.37453160244428574  0.06872802477614207  0.0015988837693469997  1.0000
  N   N1        1.0  0.857214334109017  0.49706555421713  0.5020298093230623  1.0000
  N   N2        1.0  0.13794037058260503  0.5085042152254715  0.49511248389396917  1.0000
  N   N3        1.0  0.1433152446764794  0.5075248736887444  0.004133735136676399  1.0000
  N   N4        1.0  0.8621916976959126  0.5026373222199964  0.00013630397011609978  1.0000
  N   N5        1.0  0.2286727286695083  0.49524050163736155  0.6935898306773396  1.0000
  N   N6        1.0  0.23893949807150963  0.4744599761808601  0.8179252942827517  1.0000
  O   O1        1.0  0.6196534812694096  0.678656877831102  0.4839594733225995  1.0000
  O   O2        1.0  0.3998630268351349  0.6830732533853306  0.5157905706567689  1.0000
  O   O3        1.0  0.3754398776664943  0.47391985694129346  0.5908557587730172  1.0000
  O   O4        1.0  0.5978114579840793  0.5295325223909941  0.5933153283221557  1.0000
  O   O5        1.0  0.39349404194777554  0.32170452239837727  0.4850850201988379  1.0000
  O   O6        1.0  0.610604328878715  0.3184052312761523  0.5198630227314638  1.0000
  O   O7        1.0  0.6069352304728781  0.4635096284374711  0.41178280197233624  1.0000
  O   O8        1.0  0.38961147661177625  0.5363904003511022  0.40982382068533957  1.0000
  O   O9        1.0  0.3876644711429477  0.6853807753600591  0.0224926182381893  1.0000
  O   O10       1.0  0.6044579546338581  0.6834056562729315  0.9864706691508829  1.0000
  O   O11       1.0  0.6164264122173791  0.47227459348527384  0.9085975892907643  1.0000
  O   O12       1.0  0.3952918320898462  0.5369138190339768  0.9131989050824174  1.0000
  O   O13       1.0  0.6070211976788401  0.32250990584453376  0.0138604348996196  1.0000
  O   O14       1.0  0.38591974450016414  0.32415001291874285  0.9845201707922158  1.0000
  O   O15       1.0  0.4033021538495305  0.4680007220276821  0.0921638563349276  1.0000
  O   O16       1.0  0.6209226867418637  0.5343975119704112  0.09188680535140038  1.0000
  O   O17       1.0  0.18660421189871096  0.5928064044173665  0.6735738664972004  1.0000
  O   O18       1.0  0.1660763225064414  0.3986431951327134  0.6940367414156016  1.0000
  O   O19       1.0  0.22308073959392521  0.3793717088402742  0.8459914998446365  1.0000
  O   O20       1.0  0.15401168455854736  0.5582750622169286  0.8133298089329913  1.0000
  F   F1        1.0  0.8618477275610772  0.33664203556367056  0.4360490654279658  1.0000
  F   F2        1.0  0.13206541639608824  0.6732020268190126  0.5582220624689427  1.0000
  F   F3        1.0  0.13947033405948872  0.34890956597774897  0.42852496992764344  1.0000
  F   F4        1.0  0.8551301560047122  0.6576997093868612  0.5678887245743169  1.0000
  F   F5        1.0  0.25936233502172  0.11882123753417767  0.5008166804495177  1.0000
  F   F6        1.0  0.7522540002591143  0.8824371785927737  0.49805324375422094  1.0000
  F   F7        1.0  0.26276667527687186  0.883574149647998  0.49587005887574515  1.0000
  F   F8        1.0  0.7487142999904252  0.1177361943399902  0.4974412671833619  1.0000
  F   F9        1.0  0.7484241598257527  0.5043089896202914  0.3122219354289726  1.0000
  F   F10       1.0  0.2643625360536532  0.5046289609965767  0.1912087636251982  1.0000
  F   F11       1.0  0.7539694873537215  0.5001910903995322  0.19432170605990964  1.0000
  F   F12       1.0  0.2593734156601429  0.4973444821021926  0.30849871570522686  1.0000
  F   F13       1.0  0.1424243470419313  0.3525119515165328  0.0722659656717966  1.0000
  F   F14       1.0  0.8635281617392251  0.6531307864375008  0.929500251251973  1.0000
  F   F15       1.0  0.8637618869862963  0.35219410580778987  0.070837053837181  1.0000
  F   F16       1.0  0.14148640084815162  0.6644047508612019  0.9371564311924843  1.0000
  F   F17       1.0  0.7411418204541392  0.11764221671129596  0.0028385997913034002  1.0000
  F   F18       1.0  0.25149366082430197  0.8891574064097796  0.001582379737669699  1.0000
  F   F19       1.0  0.7404270295344375  0.8826279211780487  0.0084330432594442  1.0000
  F   F20       1.0  0.2512922617514519  0.1244745835241616  0.0009629256139405  1.0000
