data_image0
_chemical_formula_structural       ZnH16C12N4O6
_chemical_formula_sum              "Zn1 H16 C12 N4 O6"
_cell_length_a       6.310963077477465
_cell_length_b       6.985483926362419
_cell_length_c       9.109387466032032
_cell_angle_alpha    107.48821351171175
_cell_angle_beta     99.30591899540669
_cell_angle_gamma    104.2636529771253

_space_group_name_H-M_alt    "P 1"
_space_group_IT_number       1

loop_
  _space_group_symop_operation_xyz
  'x, y, z'

loop_
  _atom_site_type_symbol
  _atom_site_label
  _atom_site_symmetry_multiplicity
  _atom_site_fract_x
  _atom_site_fract_y
  _atom_site_fract_z
  _atom_site_occupancy
  Zn  Zn1       1.0  0.5000403082667476  6.636660836530196e-05  0.500014807464936  1.0000
  H   H1        1.0  0.024806712250544597  0.17429913619949391  0.05155749255640529  1.0000
  H   H2        1.0  0.9751522281844487  0.8255278972617858  0.948392868554542  1.0000
  H   H3        1.0  0.9409342650362406  0.1763041898674373  0.8539801376915859  1.0000
  H   H4        1.0  0.0590316535626769  0.8235830310066986  0.14597560574213014  1.0000
  H   H5        1.0  0.10742879940072211  0.4135283831586705  0.015185120664817501  1.0000
  H   H6        1.0  0.8925170741305734  0.5863480815901597  0.9848162149641834  1.0000
  H   H7        1.0  0.14668562289182321  0.0900254192350758  0.6904900044502468  1.0000
  H   H8        1.0  0.8533838982283515  0.9099620623308056  0.30949307194942566  1.0000
  H   H9        1.0  0.44279383462358624  0.16599398382714267  0.13918258523260355  1.0000
  H   H10       1.0  0.5570963556720658  0.8338838399859156  0.8608049195446267  1.0000
  H   H11       1.0  0.4978762942402285  0.4319843470531666  0.1447957419603512  1.0000
  H   H12       1.0  0.5020602573705304  0.5679125983396531  0.8552072323528533  1.0000
  H   H13       1.0  0.6272697944863739  0.26211006189589636  0.030319130102526563  1.0000
  H   H14       1.0  0.3727006701783254  0.7377881474023837  0.9697122436432718  1.0000
  H   H15       1.0  0.8680479482068365  0.7722850028412865  0.6091322332666491  1.0000
  H   H16       1.0  0.13198765985671204  0.2278536465419735  0.39088100535012416  1.0000
  C   C1        1.0  0.0766068872729093  0.24234934803584454  0.9639900793708519  1.0000
  C   C2        1.0  0.9233543733500936  0.7575389396240341  0.03598623951692303  1.0000
  C   C3        1.0  0.30154264832237493  0.12542736030614068  0.7830261500168446  1.0000
  C   C4        1.0  0.6984670089025047  0.8745103457448951  0.21695887697595143  1.0000
  C   C5        1.0  0.47358356787533035  0.2689037788005067  0.06922216420960577  1.0000
  C   C6        1.0  0.5263540569550997  0.730981961995255  0.93078592980828  1.0000
  C   C7        1.0  0.8780409149115371  0.3781327851730013  0.6160722095330653  1.0000
  C   C8        1.0  0.12199676983889418  0.6220659165929874  0.38395020103249067  1.0000
  C   C9        1.0  0.7033947915300517  0.6511024566413968  0.5615035598350813  1.0000
  C   C10       1.0  0.29659277292636693  0.34900254321269825  0.43850479824209987  1.0000
  C   C11       1.0  0.679055149431477  0.4444355204435767  0.5554456766353297  1.0000
  C   C12       1.0  0.32100052773959226  0.5557051736604564  0.44455611239575876  1.0000
  N   N1        1.0  0.28290464443389146  0.20208298274574335  0.9318596295797118  1.0000
  N   N2        1.0  0.7170945587719685  0.7978229912171456  0.06812205230681899  1.0000
  N   N3        1.0  0.47496875514404024  0.2961668855682049  0.49335149148480173  1.0000
  N   N4        1.0  0.5250751567819166  0.7039529530282781  0.5066559993875046  1.0000
  O   O1        1.0  0.4807889856801992  0.09928322715696682  0.7491863197156119  1.0000
  O   O2        1.0  0.5192382699232568  0.9006889628676832  0.25082330625504307  1.0000
  O   O3        1.0  0.06062379943935535  0.5202719444532137  0.6915822084214722  1.0000
  O   O4        1.0  0.9394115009838301  0.479944033272453  0.30844626932280045  1.0000
  O   O5        1.0  0.83924749719084  0.1779075452540441  0.5828173328981734  1.0000
  O   O6        1.0  0.1608367329045209  0.8222720886682499  0.4172267692660014  1.0000
