data_image0
_chemical_formula_structural       Zn8H48C80N16O38
_chemical_formula_sum              "Zn8 H48 C80 N16 O38"
_cell_length_a       18.32437563300698
_cell_length_b       18.24501812206856
_cell_length_c       24.79842382049771
_cell_angle_alpha    111.60598777988541
_cell_angle_beta     111.672032646426
_cell_angle_gamma    90.01719566772799

_space_group_name_H-M_alt    "P 1"
_space_group_IT_number       1

loop_
  _space_group_symop_operation_xyz
  'x, y, z'

loop_
  _atom_site_type_symbol
  _atom_site_label
  _atom_site_symmetry_multiplicity
  _atom_site_fract_x
  _atom_site_fract_y
  _atom_site_fract_z
  _atom_site_occupancy
  Zn  Zn1       1.0  0.6153791955498917  0.027113733917943285  0.05203093559128287  1.0000
  Zn  Zn2       1.0  0.023081009160456703  0.6162447537753407  0.05190035503956383  1.0000
  Zn  Zn3       1.0  0.436498441965945  0.02493968918489032  0.052075414458570904  1.0000
  Zn  Zn4       1.0  0.02861829561104657  0.43535106786374206  0.051684260658738886  1.0000
  Zn  Zn5       1.0  0.4750710060299994  0.0640626844632525  0.9505460405206422  1.0000
  Zn  Zn6       1.0  0.8874041647795465  0.4748791057610548  0.9509135042683212  1.0000
  Zn  Zn7       1.0  0.4753637971126281  0.8863306039339636  0.9505326207431681  1.0000
  Zn  Zn8       1.0  0.06318005048763811  0.4758805661768266  0.9507748195618434  1.0000
  H   H1        1.0  0.5007871671987941  0.5747289126079809  0.9167369289114761  1.0000
  H   H2        1.0  0.3466529080124375  0.5057720918590008  0.9220479147193502  1.0000
  H   H3        1.0  0.4161796967616668  0.34243317821449176  0.9170940199246616  1.0000
  H   H4        1.0  0.5752819952948586  0.4162379402748544  0.9222138014287324  1.0000
  H   H5        1.0  0.49895912087200117  0.27886011433513175  0.8578368219746508  1.0000
  H   H6        1.0  0.28051784535623625  0.3615401594448717  0.8567224657685133  1.0000
  H   H7        1.0  0.35867759983341324  0.5787777231450093  0.8577315995158797  1.0000
  H   H8        1.0  0.5762471635607725  0.4950474606467027  0.8565735415407973  1.0000
  H   H9        1.0  0.7382092683632494  0.1437147168234817  0.24591620435362674  1.0000
  H   H10       1.0  0.10133155413727478  0.7381962470851633  0.24564994088893852  1.0000
  H   H11       1.0  0.5076303690430279  0.10226808585090913  0.2461586674803584  1.0000
  H   H12       1.0  0.14479175193407912  0.5068661535691203  0.245682130569584  1.0000
  H   H13       1.0  0.7976925520283655  0.20341065347879816  0.3642709524242633  1.0000
  H   H14       1.0  0.1602504257820883  0.7976683248788135  0.3639749119717948  1.0000
  H   H15       1.0  0.5667943109207058  0.16108784068425325  0.36452584040146263  1.0000
  H   H16       1.0  0.2046762818385731  0.56611301065616  0.3640366315943595  1.0000
  H   H17       1.0  0.9273867102765787  0.3671955775089161  0.6393264240737864  1.0000
  H   H18       1.0  0.2722587345038504  0.9273809907654639  0.638869559011397  1.0000
  H   H19       1.0  0.7119171174908555  0.27256488840905063  0.6389236452945468  1.0000
  H   H20       1.0  0.36688745274228296  0.7114962527751915  0.6387521692863629  1.0000
  H   H21       1.0  0.7636799711026754  0.9350757218216688  0.06593240208446365  1.0000
  H   H22       1.0  0.12763997499139632  0.7654487429595915  0.06455969354858844  1.0000
  H   H23       1.0  0.30242087677729756  0.1311191167893355  0.06601804283132398  1.0000
  H   H24       1.0  0.9367510505831618  0.29906707043239317  0.06451555575804244  1.0000
  H   H25       1.0  0.8662992191999949  0.15960766998448156  0.06949344675766164  1.0000
  H   H26       1.0  0.1635113636928764  0.20560159403687092  0.0696871572609439  1.0000
  H   H27       1.0  0.20305578232633786  0.9098598768215425  0.06957881119690508  1.0000
  H   H28       1.0  0.9061688039584367  0.8641583934649334  0.0697900910065457  1.0000
  H   H29       1.0  0.4875262008902865  0.6990639863478523  0.9835700836665424  1.0000
  H   H30       1.0  0.5687358728387083  0.767320491220289  0.03729930796824024  1.0000
  H   H31       1.0  0.27294733566915846  0.488712478751815  0.9829895627912961  1.0000
  H   H32       1.0  0.251910047372526  0.5685568368958797  0.032305004308561536  1.0000
  H   H33       1.0  0.4962648201779061  0.28497201275335027  0.9838984359329216  1.0000
  H   H34       1.0  0.4687771575376303  0.2702707499663789  0.03755608765669654  1.0000
  H   H35       1.0  0.7099477320569318  0.4943098053300616  0.9831940702621367  1.0000
  H   H36       1.0  0.7802280808496107  0.4638040904051834  0.03251057301055481  1.0000
  H   H37       1.0  0.4829321598296659  0.1444287107290168  0.8500496280314495  1.0000
  H   H38       1.0  0.5594661471864484  0.10096569970758679  0.8790365229028084  1.0000
  H   H39       1.0  0.10381661061602188  0.32615997453982015  0.8792503196884738  1.0000
  H   H40       1.0  0.14787811127044387  0.36908460023634876  0.8476720087705872  1.0000
  H   H41       1.0  0.36690515586214184  0.7053815783055557  0.849938529306769  1.0000
  H   H42       1.0  0.3195110330152246  0.777966793459207  0.8790593901383232  1.0000
  H   H43       1.0  0.775698397094544  0.5529672113612778  0.8793762757859795  1.0000
  H   H44       1.0  0.700008789951994  0.4783739696275834  0.8476619984041351  1.0000
  H   H45       1.0  0.020992317083589302  0.44180538166949673  0.7351028598884995  1.0000
  H   H46       1.0  0.2933688432265029  0.021387328599587623  0.734859085618595  1.0000
  H   H47       1.0  0.7135045112795452  0.29351608499653287  0.7344596345837289  1.0000
  H   H48       1.0  0.4412183002241362  0.7131541083624456  0.7346377045554959  1.0000
  C   C1        1.0  0.4178422721133187  0.9178220663811345  0.8358963304933908  1.0000
  C   C2        1.0  0.9177933350311561  0.4181270472575705  0.8360849620014577  1.0000
  C   C3        1.0  0.7342848173537959  0.1810596892179249  0.3380483472964357  1.0000
  C   C4        1.0  0.15668946748448317  0.7341051024682842  0.3376875716939908  1.0000
  C   C5        1.0  0.6038444644204047  0.1571473187949978  0.3381966083105113  1.0000
  C   C6        1.0  0.18180933090802398  0.6032874443248062  0.33772289528455707  1.0000
  C   C7        1.0  0.6858418889171672  0.18586471477220107  0.3715691047613419  1.0000
  C   C8        1.0  0.186044284522012  0.6854771768140893  0.3711563766999717  1.0000
  C   C9        1.0  0.6194395117172887  0.11954574423837273  0.23911115416394318  1.0000
  C   C10       1.0  0.11948137711149798  0.6190049115828842  0.23866954903773774  1.0000
  C   C11       1.0  0.7817637605427379  0.2818540088008207  0.5631352352952064  1.0000
  C   C12       1.0  0.28188342021957874  0.7815337248308936  0.5628420853262668  1.0000
  C   C13       1.0  0.7206115794695123  0.2206462195439372  0.44095711137750015  1.0000
  C   C14       1.0  0.22085652074230913  0.7203035293841398  0.4405822398942406  1.0000
  C   C15       1.0  0.8936169842701883  0.3596277302560367  0.6655699749451854  1.0000
  C   C16       1.0  0.306103473899661  0.8935569275110994  0.6651787687155776  1.0000
  C   C17       1.0  0.7719164964622108  0.3064176962016348  0.6653354679390873  1.0000
  C   C18       1.0  0.35930106636723724  0.7715992878667849  0.6651144656458428  1.0000
  C   C19       1.0  0.9263918773110049  0.392329131751815  0.7315052887140823  1.0000
  C   C20       1.0  0.33912245448037476  0.9263529693991828  0.7311325499525339  1.0000
  C   C21       1.0  0.8047304910639639  0.3395991159216437  0.7312602723251587  1.0000
  C   C22       1.0  0.39184805954137397  0.804537394186511  0.7310725857421403  1.0000
  C   C23       1.0  0.8826652976725454  0.3830946593488493  0.7657406590527884  1.0000
  C   C24       1.0  0.38257877951301805  0.8825769770027351  0.7654246079332695  1.0000
  C   C25       1.0  0.8164060320327806  0.3165743295231638  0.6325736917814879  1.0000
  C   C26       1.0  0.3163870499715884  0.8161918332640425  0.6322521637014233  1.0000
  C   C27       1.0  0.5839897882976856  0.08414652873615586  0.16836735810529294  1.0000
  C   C28       1.0  0.08400500352387044  0.5836188659904947  0.1679772711061674  1.0000
  C   C29       1.0  0.6392621174758091  0.12867972130533206  0.9934012806273032  1.0000
  C   C30       1.0  0.8609999330983341  0.6368701731377514  0.9927222089391423  1.0000
  C   C31       1.0  0.3538642157699527  0.864777599633264  0.9933699993816488  1.0000
  C   C32       1.0  0.13139716464549164  0.35550584766584625  0.9923468750641078  1.0000
  C   C33       1.0  0.6394880055309144  0.8602361354674741  0.002791953946470538  1.0000
  C   C34       1.0  0.8600153466203648  0.36369703338601767  0.00508986150835969  1.0000
  C   C35       1.0  0.36341615829670804  0.1427542934310608  0.0028245760630269956  1.0000
  C   C36       1.0  0.14485105870564752  0.6413086804881942  0.005038094738878835  1.0000
  C   C37       1.0  0.5870738687905117  0.6812849017837196  0.9637163670418546  1.0000
  C   C38       1.0  0.2878404644929232  0.5919644503318935  0.9697744558639484  1.0000
  C   C39       1.0  0.3768536964353898  0.2827715818886462  0.9639887752613064  1.0000
  C   C40       1.0  0.6818067337380781  0.3778262046163764  0.9699389973166818  1.0000
  C   C41       1.0  0.58720280857068  0.22271323229376383  0.9068661522080604  1.0000
  C   C42       1.0  0.22450382891865664  0.32156725481472426  0.9054152161909101  1.0000
  C   C43       1.0  0.31948849440828997  0.6840077334799304  0.906800092657619  1.0000
  C   C44       1.0  0.6810211509046057  0.5837370357545242  0.9054107440730449  1.0000
  C   C45       1.0  0.5589052472722714  0.6009237345642406  0.9239319415725049  1.0000
  C   C46       1.0  0.3260791035015842  0.5632812958040605  0.9283414730990388  1.0000
  C   C47       1.0  0.36524766191732977  0.32329790214216575  0.924202377318572  1.0000
  C   C48       1.0  0.6021387217864171  0.3650080925024784  0.9284814382520353  1.0000
  C   C49       1.0  0.5581602446840392  0.28852583415308464  0.8947424393101358  1.0000
  C   C50       1.0  0.2897462916599877  0.337406483219546  0.8926411889326786  1.0000
  C   C51       1.0  0.3363832687096319  0.6060360091597021  0.8946461264204402  1.0000
  C   C52       1.0  0.6029330162168307  0.5551385688367533  0.8924929680012497  1.0000
  C   C53       1.0  0.7164488326155406  0.6615967520261636  0.9541065395842026  1.0000
  C   C54       1.0  0.29164788684024495  0.7196413020718996  0.9559579063359183  1.0000
  C   C55       1.0  0.23769716008457917  0.29245298697859573  0.954081968073197  1.0000
  C   C56       1.0  0.6641776756402038  0.2363121193668507  0.9560488657394259  1.0000
  C   C57       1.0  0.7157314992469281  0.30997506286009746  0.9776462722856607  1.0000
  C   C58       1.0  0.30965795814463337  0.2595139925903783  0.9736325882333078  1.0000
  C   C59       1.0  0.261641609578902  0.6675616130137815  0.9775051333657603  1.0000
  C   C60       1.0  0.6639732560548666  0.7141795538731446  0.973487869267977  1.0000
  C   C61       1.0  0.6925669263689257  0.7988422444865576  0.004181532384386278  1.0000
  C   C62       1.0  0.20689977803092316  0.6957495657707397  0.007424486459427711  1.0000
  C   C63       1.0  0.31170998532248717  0.20551853919290147  0.004267701110599394  1.0000
  C   C64       1.0  0.8003855076777244  0.31170155683045664  0.0075433214255369516  1.0000
  C   C65       1.0  0.6938399116260355  0.18039670779052142  0.9855910725163071  1.0000
  C   C66       1.0  0.18266930518733202  0.29303560192255435  0.9842524949062793  1.0000
  C   C67       1.0  0.29151063041719977  0.8051444446953867  0.9855193426899262  1.0000
  C   C68       1.0  0.8016315912272133  0.6911846084690298  0.9844411102713407  1.0000
  C   C69       1.0  0.7730378099618489  0.8267452911801881  0.02663189809101848  1.0000
  C   C70       1.0  0.19931099446305467  0.7761251855006107  0.028106993112864135  1.0000
  C   C71       1.0  0.2536410564515208  0.1999677241923266  0.026637824014855496  1.0000
  C   C72       1.0  0.8286382213345719  0.2520199962780723  0.028225635275838174  1.0000
  C   C73       1.0  0.7752781896959959  0.18799745461554812  0.020043039967426145  1.0000
  C   C74       1.0  0.19042195720739838  0.24588341538861874  0.018914846552348787  1.0000
  C   C75       1.0  0.24451454518776228  0.8320192490316529  0.019981638041478803  1.0000
  C   C76       1.0  0.8285333181843982  0.7730471968813574  0.019043759644006304  1.0000
  C   C77       1.0  0.7012651524100375  0.14801224764151752  0.2723932784644632  1.0000
  C   C78       1.0  0.12389836669800762  0.7010440371306004  0.2720260394422027  1.0000
  C   C79       1.0  0.5710448238824809  0.12445465945543084  0.2725303787120836  1.0000
  C   C80       1.0  0.14862633701461184  0.5704520193221755  0.27205627893866347  1.0000
  N   N1        1.0  0.6737534944671849  0.21458430030262587  0.47103377977680333  1.0000
  N   N2        1.0  0.257425587455046  0.6734054499002867  0.4706660418897998  1.0000
  N   N3        1.0  0.7975356880602218  0.25679778013609694  0.4709668611088987  1.0000
  N   N4        1.0  0.21455086676144927  0.7973977624515811  0.4706307954468231  1.0000
  N   N5        1.0  0.7048367119210183  0.24601854248309266  0.5332160718899105  1.0000
  N   N6        1.0  0.2881957794719696  0.7044801045928183  0.532837900039354  1.0000
  N   N7        1.0  0.828722394458424  0.28768450145219054  0.5331726919275113  1.0000
  N   N8        1.0  0.2458545865494202  0.8286071061386195  0.5328141029442293  1.0000
  N   N9        1.0  0.5406722358942986  0.727443517971061  0.9919669959813008  1.0000
  N   N10       1.0  0.2831051777783387  0.5492872506663387  0.004974441598108162  1.0000
  N   N11       1.0  0.4515041475596249  0.265002783094147  0.9922881656884287  1.0000
  N   N12       1.0  0.7217263718018002  0.4557488563625255  0.0051774440790098184  1.0000
  N   N13       1.0  0.5429343605613256  0.14725015819620801  0.8666313850242418  1.0000
  N   N14       1.0  0.1495378033673019  0.32732857281855876  0.865946089356143  1.0000
  N   N15       1.0  0.32355972378564246  0.719238552439876  0.8666041610876221  1.0000
  N   N16       1.0  0.7167025721397169  0.5384263528313017  0.8661241705628342  1.0000
  O   O1        1.0  0.5012256807471189  0.0012863488148510934  0.002640060215242059  1.0000
  O   O2        1.0  0.0013103583601151388  0.5013369481635406  0.002771365472320059  1.0000
  O   O3        1.0  0.40869033320793574  0.8733918503649891  0.8631706653336836  1.0000
  O   O4        1.0  0.9897623093439094  0.410167343164389  0.8634072036464033  1.0000
  O   O5        1.0  0.4543597007021489  0.9895358103574311  0.8631814018418994  1.0000
  O   O6        1.0  0.873172524348206  0.45332675333414607  0.8635028253376973  1.0000
  O   O7        1.0  0.6313813369663779  0.0838541264245053  0.14127686518686033  1.0000
  O   O8        1.0  0.05731059628123348  0.6313504973696383  0.14093350517055822  1.0000
  O   O9        1.0  0.509494323700899  0.05739222387829565  0.1413660642318106  1.0000
  O   O10       1.0  0.08354275271847914  0.5088033397838815  0.14087155650076977  1.0000
  O   O11       1.0  0.5684974725727159  0.1450792890374405  0.9840174859002531  1.0000
  O   O12       1.0  0.8359698202390787  0.5656413300261963  0.9838063906696349  1.0000
  O   O13       1.0  0.4152882023144853  0.8390186941479956  0.9840404729376858  1.0000
  O   O14       1.0  0.14738129203769287  0.4177339601605967  0.9832978602497775  1.0000
  O   O15       1.0  0.5750621040969577  0.8445240888409772  0.9549069788079266  1.0000
  O   O16       1.0  0.8391738542505109  0.3869226790641421  0.9599594764999964  1.0000
  O   O17       1.0  0.3799217017610771  0.11061444485641678  0.9549068903000162  1.0000
  O   O18       1.0  0.1204099930498401  0.5729466094699164  0.9598682312705904  1.0000
  O   O19       1.0  0.34614754979767076  0.9387655304463678  0.012466639196382759  1.0000
  O   O20       1.0  0.0763230445840364  0.3472356868705475  0.0108864524498031  1.0000
  O   O21       1.0  0.6660483832956885  0.07381353093509803  0.012498562288378444  1.0000
  O   O22       1.0  0.9346175186863803  0.663703159051984  0.011277897827092436  1.0000
  O   O23       1.0  0.38374581307223105  0.12052817235228729  0.04996688385656972  1.0000
  O   O24       1.0  0.1155428294746272  0.6690003146595913  0.04784539771868882  1.0000
  O   O25       1.0  0.6663635858488206  0.929644662356047  0.049966859142543264  1.0000
  O   O26       1.0  0.9321642285006461  0.37872723061740743  0.04777222821329736  1.0000
  O   O27       1.0  0.8066543062471965  0.904903412695667  0.05759144074330896  1.0000
  O   O28       1.0  0.1508056268777267  0.8092358840718603  0.05750610710742881  1.0000
  O   O29       1.0  0.251037860281471  0.1528096480554098  0.057614887690398596  1.0000
  O   O30       1.0  0.9065422305463285  0.24823862428963378  0.05750671942985257  1.0000
  O   O31       1.0  0.8090111801097136  0.1389377583030793  0.04872851157938379  1.0000
  O   O32       1.0  0.14252496497846318  0.24192403760777384  0.04858914833450001  1.0000
  O   O33       1.0  0.23955265838700504  0.9097889307662469  0.04880505284535273  1.0000
  O   O34       1.0  0.9060803441377914  0.8067090884487058  0.048761313493926726  1.0000
  O   O35       1.0  0.0009267863273194738  0.43600989609577573  0.7648778765362039  1.0000
  O   O36       1.0  0.3286815687834377  0.0009993531423691019  0.7645385254995318  1.0000
  O   O37       1.0  0.7632431499186509  0.3291737343292953  0.764375012965111  1.0000
  O   O38       1.0  0.43533356124451217  0.7630712928520683  0.7643759437548284  1.0000
