data_image0
_chemical_formula_structural       Ag4H48C52N28
_chemical_formula_sum              "Ag4 H48 C52 N28"
_cell_length_a       7.329942668743612
_cell_length_b       10.418468616000425
_cell_length_c       17.99761486648008
_cell_angle_alpha    89.99996824692302
_cell_angle_beta     92.81637333421378
_cell_angle_gamma    89.99999745180997

_space_group_name_H-M_alt    "P 1"
_space_group_IT_number       1

loop_
  _space_group_symop_operation_xyz
  'x, y, z'

loop_
  _atom_site_type_symbol
  _atom_site_label
  _atom_site_symmetry_multiplicity
  _atom_site_fract_x
  _atom_site_fract_y
  _atom_site_fract_z
  _atom_site_occupancy
  Ag  Ag1       1.0  0.32795338286700815  0.9324038050496383  0.0355817334727462  1.0000
  Ag  Ag2       1.0  0.672043283544951  0.4324059322618935  0.4644201228158805  1.0000
  Ag  Ag3       1.0  0.672045909653704  0.06759200556177798  0.9644210415770829  1.0000
  Ag  Ag4       1.0  0.32795327728174317  0.5675956373533494  0.5355826088299906  1.0000
  H   H1        1.0  0.9474327578344484  0.10218579393798416  0.07791555310237903  1.0000
  H   H2        1.0  0.052572113034365486  0.6021861906092025  0.42208543034033863  1.0000
  H   H3        1.0  0.052569183322162885  0.8978100166749385  0.922083930084476  1.0000
  H   H4        1.0  0.9474312078117887  0.39781441917324384  0.5779146304248997  1.0000
  H   H5        1.0  0.8410906823842621  0.9432431122936935  0.22902665135190153  1.0000
  H   H6        1.0  0.15890454774969945  0.4432415955281003  0.2709724002794616  1.0000
  H   H7        1.0  0.15890304984822018  0.05675461798758619  0.7709721457479547  1.0000
  H   H8        1.0  0.8410946340271862  0.5567561347533284  0.7290259277487436  1.0000
  H   H9        1.0  0.6509721243107832  0.81722167616104  0.31155277835736683  1.0000
  H   H10       1.0  0.34902586550369097  0.3172202318225104  0.18844691403798214  1.0000
  H   H11       1.0  0.3490243949871256  0.18277797378706137  0.6884482856558308  1.0000
  H   H12       1.0  0.650978807346341  0.6827803779601636  0.8115526125510969  1.0000
  H   H13       1.0  0.4354193189207364  0.03248163850062719  0.20608374002554092  1.0000
  H   H14       1.0  0.5645869671473419  0.5324754230339862  0.2939189556977411  1.0000
  H   H15       1.0  0.5645826914502049  0.9675228106166427  0.7939185225482107  1.0000
  H   H16       1.0  0.4354123530592416  0.46752134741087287  0.7060849311072561  1.0000
  H   H17       1.0  0.1831079802691136  0.15631745804905245  0.295120821438779  1.0000
  H   H18       1.0  0.8168968845247729  0.6563093997976566  0.20488014418643982  1.0000
  H   H19       1.0  0.8168898633463753  0.8436889107375334  0.7048785966418265  1.0000
  H   H20       1.0  0.1830996070875912  0.34368353131323903  0.795119808072542  1.0000
  H   H21       1.0  0.5825776087027562  0.7369526290215872  0.4256094849603045  1.0000
  H   H22       1.0  0.4174190242737195  0.23695224980287574  0.0743902121560751  1.0000
  H   H23       1.0  0.4174175447482609  0.2630479807605042  0.5743915573512269  1.0000
  H   H24       1.0  0.5825829030396573  0.763048359980118  0.9256087151523362  1.0000
  H   H25       1.0  0.45092365203840484  0.1676117686707741  0.40591842360048963  1.0000
  H   H26       1.0  0.5490771139470138  0.6676095806196544  0.0940824732014249  1.0000
  H   H27       1.0  0.5490755851101737  0.8323888411114949  0.5940821279378953  1.0000
  H   H28       1.0  0.4509262068991332  0.3323910291627854  0.9059175875638132  1.0000
  H   H29       1.0  0.6390106699141495  0.2936620001833532  0.3226810043665722  1.0000
  H   H30       1.0  0.3609914477710205  0.7936597389826404  0.1773198726440555  1.0000
  H   H31       1.0  0.36098991923836365  0.7063376497651888  0.6773190129958097  1.0000
  H   H32       1.0  0.6390091552245137  0.2063389511316771  0.8226807005961521  1.0000
  H   H33       1.0  0.7677972167239699  0.22356059933743214  0.16461671568966102  1.0000
  H   H34       1.0  0.23220348761009993  0.7235610726377074  0.33538193918411013  1.0000
  H   H35       1.0  0.23220199273879413  0.7764380907774324  0.8353827240937124  1.0000
  H   H36       1.0  0.7677943283198939  0.2764376174777111  0.6646163671424361  1.0000
  H   H37       1.0  0.8870769021304594  0.3021613655300328  0.23976981306163486  1.0000
  H   H38       1.0  0.11292107553138206  0.802159033087413  0.26022932841370766  1.0000
  H   H39       1.0  0.11292092764244185  0.6978382844190846  0.7602290491424173  1.0000
  H   H40       1.0  0.8870753883948409  0.19783773735985483  0.7397695120893105  1.0000
  H   H41       1.0  0.20266250675330602  0.045801154833782186  0.42469696812324303  1.0000
  H   H42       1.0  0.7973355273667334  0.5457989777934811  0.0753033694952236  1.0000
  H   H43       1.0  0.7973353368624526  0.9542004147829954  0.5753024499581514  1.0000
  H   H44       1.0  0.20266775195063497  0.4541997123218237  0.9246950236373411  1.0000
  H   H45       1.0  0.07544823633354267  0.8402451284034808  0.5088908668319834  1.0000
  H   H46       1.0  0.9245508369435239  0.34024338447749597  0.9911093585589158  1.0000
  H   H47       1.0  0.9245482552782817  0.159757401047024  0.49110908542541404  1.0000
  H   H48       1.0  0.07545384974963548  0.6597543458030299  0.008890723908301403  1.0000
  C   C1        1.0  0.05027115138972958  0.10026515677802905  0.12343460660843422  1.0000
  C   C2        1.0  0.9497323261621414  0.6002607730876901  0.3765652440104645  1.0000
  C   C3        1.0  0.9497280442299566  0.8997354530050216  0.8765642772969642  1.0000
  C   C4        1.0  0.05026964268024159  0.39973791702659156  0.6234353509312456  1.0000
  C   C5        1.0  0.752605377294294  0.12751860423879435  0.269658599027899  1.0000
  C   C6        1.0  0.24739401350107923  0.6275172561100035  0.23034173339245007  1.0000
  C   C7        1.0  0.24739384601137704  0.8724810457097757  0.7303413966329799  1.0000
  C   C8        1.0  0.7526038301148429  0.3724814340048964  0.7696576846894203  1.0000
  C   C9        1.0  0.7576746602377465  0.9931755772438605  0.2683954211818006  1.0000
  C   C10       1.0  0.24232333751468352  0.4931740952228835  0.231605325048946  1.0000
  C   C11       1.0  0.24232046552744882  0.0068231128708333985  0.7316045093747192  1.0000
  C   C12       1.0  0.7576772377948656  0.5068255547259141  0.7683941364357808  1.0000
  C   C13       1.0  0.6509878205600613  0.9216410512399591  0.31519868093732845  1.0000
  C   C14       1.0  0.3490101713780476  0.4216386504915163  0.18480153296340524  1.0000
  C   C15       1.0  0.34900730520502776  0.07835955854265819  0.6848012496188787  1.0000
  C   C16       1.0  0.6509931217822283  0.5783609994574873  0.815197416046658  1.0000
  C   C17       1.0  0.29705709997540436  0.0647416659183335  0.19300723049079954  1.0000
  C   C18       1.0  0.7029464230922426  0.5647383139820121  0.3069942994544306  1.0000
  C   C19       1.0  0.7029435168628805  0.9352608635315673  0.8069938986264376  1.0000
  C   C20       1.0  0.2970542352750981  0.43526133596522243  0.693008497296276  1.0000
  C   C21       1.0  0.5389448046070979  0.9848969672922008  0.3641372242895997  1.0000
  C   C22       1.0  0.46105593961106445  0.4848965291796928  0.1358641239467744  1.0000
  C   C23       1.0  0.4610517146908178  0.015102682655900392  0.6358638397235981  1.0000
  C   C24       1.0  0.5389473535491048  0.5151050404372342  0.8641348250629762  1.0000
  C   C25       1.0  0.17572561105341572  0.1250125006177853  0.23738349218912455  1.0000
  C   C26       1.0  0.8242792572536781  0.625009187117989  0.26261748374017924  1.0000
  C   C27       1.0  0.824273584566164  0.8749900288331814  0.7626153917159614  1.0000
  C   C28       1.0  0.17571864173415008  0.37498854316189767  0.7373841578524962  1.0000
  C   C29       1.0  0.4604300036755402  0.7911995615150004  0.4365010710876548  1.0000
  C   C30       1.0  0.5395652435227374  0.29120014909953795  0.06349803059256941  1.0000
  C   C31       1.0  0.5395651359325697  0.20880008843339232  0.5634994153463782  1.0000
  C   C32       1.0  0.46043531794374787  0.7088014205174459  0.9365008750141756  1.0000
  C   C33       1.0  0.5354296060224468  0.11864585634253899  0.36689536490209224  1.0000
  C   C34       1.0  0.46456979961181566  0.618642674065775  0.13310552631692474  1.0000
  C   C35       1.0  0.46456827912220416  0.8813557132734573  0.6331057208122958  1.0000
  C   C36       1.0  0.5354307756977332  0.3813569758830296  0.8668939351677949  1.0000
  C   C37       1.0  0.6418622137305047  0.1890775333141335  0.3196968828838039  1.0000
  C   C38       1.0  0.35813856368875435  0.6890743095529074  0.18030456272991563  1.0000
  C   C39       1.0  0.35813702341808085  0.8109230764681357  0.680303668654581  1.0000
  C   C40       1.0  0.6418620393067797  0.3109243805614099  0.819696010510292  1.0000
  C   C41       1.0  0.8540924847335274  0.20772235413596712  0.21542803726591592  1.0000
  C   C42       1.0  0.14590686937435748  0.7077209577877211  0.2845711569978989  1.0000
  C   C43       1.0  0.1459053311964098  0.7922772958134131  0.784570269060467  1.0000
  C   C44       1.0  0.8540909742416217  0.29227677249320994  0.7154282610841278  1.0000
  C   C45       1.0  0.26001363414241746  0.9516050956376529  0.437475791119212  1.0000
  C   C46       1.0  0.7399857064366412  0.45160183945359467  0.0625238787420415  1.0000
  C   C47       1.0  0.7399842233162486  0.0483974338128306  0.5625241828396881  1.0000
  C   C48       1.0  0.26001622087684945  0.5483968506614759  0.9374750485666826  1.0000
  C   C49       1.0  0.19889305357819603  0.850269646998633  0.47832403774229704  1.0000
  C   C50       1.0  0.8011035943663101  0.3502673873778122  0.02167673382838591  1.0000
  C   C51       1.0  0.8011020860298  0.1497319226176757  0.5216764486914159  1.0000
  C   C52       1.0  0.19889971263698658  0.649731302736974  0.9783227710595028  1.0000
  N   N1        1.0  0.4265377983508855  0.9129007611947841  0.4110140729040381  1.0000
  N   N2        1.0  0.5734615604149695  0.41289940427157745  0.08898616557512902  1.0000
  N   N3        1.0  0.5734587071040662  0.0870988887535731  0.5889864352314974  1.0000
  N   N4        1.0  0.42654170505932837  0.5871012055119136  0.9110116716794536  1.0000
  N   N5        1.0  0.217082422012936  0.049634873515756815  0.12220820203756942  1.0000
  N   N6        1.0  0.7829252002906767  0.5496324127918367  0.37779339798483147  1.0000
  N   N7        1.0  0.7829222646800033  0.9503666961006229  0.8777918804290155  1.0000
  N   N8        1.0  0.217076823923449  0.45036819698933084  0.6222094204672146  1.0000
  N   N9        1.0  0.021133722034384995  0.14753022861207643  0.19222326481055774  1.0000
  N   N10       1.0  0.9788684120517741  0.6475268685772662  0.3077776603034296  1.0000
  N   N11       1.0  0.9788668532751142  0.8524703811706829  0.8077761966740057  1.0000
  N   N12       1.0  0.021130797411096594  0.35246990186968213  0.6922217794802634  1.0000
  N   N13       1.0  0.661939000686587  0.9374659440730965  0.0799460600917783  1.0000
  N   N14       1.0  0.33806856424572357  0.4374738808638837  0.4200548563862725  1.0000
  N   N15       1.0  0.3380656721638217  0.0625279468718531  0.920053466498409  1.0000
  N   N16       1.0  0.6619388679833234  0.5625372870917856  0.5799458253594025  1.0000
  N   N17       1.0  0.32487004670931435  0.7513376398455093  0.47712451806147277  1.0000
  N   N18       1.0  0.6751265708097589  0.2513363422944294  0.0228746184421809  1.0000
  N   N19       1.0  0.675126486431452  0.2486639297702524  0.5228771018290745  1.0000
  N   N20       1.0  0.32487535650367505  0.7486633076546026  0.9771243088663797  1.0000
  N   N21       1.0  0.7642782129427131  0.8482340157491988  0.08619351500617262  1.0000
  N   N22       1.0  0.23572661646799986  0.34823812180219693  0.4138068315649123  1.0000
  N   N23       1.0  0.23572919160138628  0.15175987519569387  0.9138060549870204  1.0000
  N   N24       1.0  0.7642780702246694  0.651768246983984  0.586193250900884  1.0000
  N   N25       1.0  0.8666475612095466  0.7607518640904727  0.09381558998940423  1.0000
  N   N26       1.0  0.13335864386625215  0.26075981936874365  0.4061848070796402  1.0000
  N   N27       1.0  0.13335984333449596  0.2392429866883745  0.9061839800036253  1.0000
  N   N28       1.0  0.8666501403667366  0.7392503887531985  0.5938153404900319  1.0000
