data_image0
_chemical_formula_structural       Zn2H54C38N2O18
_chemical_formula_sum              "Zn2 H54 C38 N2 O18"
_cell_length_a       10.426668826398727
_cell_length_b       10.875611374030441
_cell_length_c       10.8805
_cell_angle_alpha    85.23207284110934
_cell_angle_beta     74.9910708077568
_cell_angle_gamma    67.62831649624363

_space_group_name_H-M_alt    "P 1"
_space_group_IT_number       1

loop_
  _space_group_symop_operation_xyz
  'x, y, z'

loop_
  _atom_site_type_symbol
  _atom_site_label
  _atom_site_symmetry_multiplicity
  _atom_site_fract_x
  _atom_site_fract_y
  _atom_site_fract_z
  _atom_site_occupancy
  Zn  Zn1       1.0  0.15492492312058204  0.44741080322788207  0.9631204821953291  1.0000
  Zn  Zn2       1.0  0.8450772247311917  0.5525885806941986  0.03687802497941556  1.0000
  H   H1        1.0  0.943397174663275  0.8752692125641417  0.1968706994074764  1.0000
  H   H2        1.0  0.05660199432886509  0.124730171357939  0.8031303851752015  1.0000
  H   H3        1.0  0.20501332831258878  0.9339005378613336  0.666026075907098  1.0000
  H   H4        1.0  0.7949864343763835  0.0660998405368076  0.33397477871540093  1.0000
  H   H5        1.0  0.0402875457064908  0.0207199087905963  0.6216070555664146  1.0000
  H   H6        1.0  0.9597112240292703  0.979280469607552  0.37839404547512606  1.0000
  H   H7        1.0  0.05131496939277722  0.8038588698463016  0.5439020897727858  1.0000
  H   H8        1.0  0.9486857862493989  0.1961415085518396  0.4560985184306859  1.0000
  H   H9        1.0  0.20128645584351557  0.8430680776162447  0.4624484905035899  1.0000
  H   H10       1.0  0.7987142997986609  0.1569323007818966  0.5375511986244702  1.0000
  H   H11       1.0  0.19418458143684347  0.6519964080379808  0.6872011736699122  1.0000
  H   H12       1.0  0.8058151812521289  0.3480039703601605  0.31279876187718253  1.0000
  H   H13       1.0  0.2660778532388974  0.601800228714481  0.5238218159927683  1.0000
  H   H14       1.0  0.7339223087064539  0.3981991552075995  0.47617902217087504  1.0000
  H   H15       1.0  0.48735654759102687  0.4836594557556992  0.614214950166506  1.0000
  H   H16       1.0  0.5126436143543315  0.5163399281663814  0.38578404984631487  1.0000
  H   H17       1.0  0.39846433582466273  0.5741985455619485  0.7612697954720817  1.0000
  H   H18       1.0  0.6015364198175135  0.4258018328361928  0.23872989365597863  1.0000
  H   H19       1.0  0.557209017418785  0.593870276581228  0.663222493153974  1.0000
  H   H20       1.0  0.4427907452701802  0.4061301018169132  0.3367765233177096  1.0000
  H   H21       1.0  0.8347218285906803  0.6914870525340007  0.6438979190681523  1.0000
  H   H22       1.0  0.16527734040146672  0.30851233138808  0.35610224643912153  1.0000
  H   H23       1.0  0.3189394040672084  0.3321281544766421  0.6092519157501783  1.0000
  H   H24       1.0  0.6810603586217637  0.6678722239214991  0.3907480197969166  1.0000
  H   H25       1.0  0.3677300735621927  0.21376760230775463  0.4836659236033611  1.0000
  H   H26       1.0  0.6322696891267795  0.7862327760903867  0.5163340119437336  1.0000
  H   H27       1.0  0.3052258047149365  0.1578293181915029  0.7706959817543934  1.0000
  H   H28       1.0  0.6947735587176496  0.8421720546827061  0.22930397025155708  1.0000
  H   H29       1.0  0.3584250847058641  0.0376140681635064  0.6474795981412242  1.0000
  H   H30       1.0  0.6415736850298969  0.9623863102346348  0.35252058382490503  1.0000
  H   H31       1.0  0.5912456135995114  0.0714908952790125  0.5666658789218815  1.0000
  H   H32       1.0  0.4087541490894608  0.9285094831191287  0.43333405662521324  1.0000
  H   H33       1.0  0.5372915754412659  0.1913799571580626  0.6906039994354599  1.0000
  H   H34       1.0  0.4627081872477062  0.8086204212400787  0.3093950170362164  1.0000
  H   H35       1.0  0.789228375447891  0.9305193192441975  0.649716616715196  1.0000
  H   H36       1.0  0.21077039428787  0.0694810591539436  0.3502844843263446  1.0000
  H   H37       1.0  0.7518250367219963  0.8857798300831163  0.813991215248862  1.0000
  H   H38       1.0  0.24817333375738568  0.1142215427910926  0.1860099022515342  1.0000
  H   H39       1.0  0.7380852318191841  0.05211850155495059  0.7725863244097227  1.0000
  H   H40       1.0  0.2619135379165769  0.9478818768431906  0.2274138575564066  1.0000
  H   H41       1.0  0.3806626738934753  0.23909292975010032  0.05341601845973537  1.0000
  H   H42       1.0  0.6193370887954971  0.7609074486480409  0.9465820789365367  1.0000
  H   H43       1.0  0.7446143410354651  0.2576707370991329  0.8284481735109424  1.0000
  H   H44       1.0  0.25538641460671124  0.7423296412990155  0.17155151561711085  1.0000
  H   H45       1.0  0.7072814092276759  0.3698207862491927  0.9543205594819357  1.0000
  H   H46       1.0  0.29271934641450065  0.6301795921489486  0.045679129646124673  1.0000
  H   H47       1.0  0.5895113518302253  0.4087694412904028  0.8493513657087847  1.0000
  H   H48       1.0  0.41048940381195104  0.5912309371077384  0.15064924249468697  1.0000
  H   H49       1.0  0.5640125954878813  0.11902287322742211  0.12315651062235838  1.0000
  H   H50       1.0  0.43598716720108394  0.8809775051707192  0.8768425058493252  1.0000
  H   H51       1.0  0.6787280853111781  0.2053433955707646  0.12938180076762515  1.0000
  H   H52       1.0  0.3212720766341732  0.7946559883513089  0.8706181183206071  1.0000
  H   H53       1.0  0.7325995340923939  0.0810647163458214  0.00958697676504275  1.0000
  H   H54       1.0  0.2674006278529574  0.9189346675762522  0.9904129423231892  1.0000
  C   C1        1.0  0.9830944099825275  0.7444259968416347  0.9828152518779804  1.0000
  C   C2        1.0  0.016907737869239305  0.2555733870804389  0.017184174372175707  1.0000
  C   C3        1.0  0.9676808131310678  0.9311478281165647  0.1119266578174703  1.0000
  C   C4        1.0  0.0323179566046932  0.0688525502815835  0.8880744432240706  1.0000
  C   C5        1.0  0.987771404516437  0.8789119783860712  0.9923027252520883  1.0000
  C   C6        1.0  0.012226372266120208  0.12108840001206998  0.007697703133075602  1.0000
  C   C7        1.0  0.01934827697314033  0.9466914889947446  0.8803496950587685  1.0000
  C   C8        1.0  0.9806508920190069  0.053307894927335994  0.11965138952390926  1.0000
  C   C9        1.0  0.10847881943487887  0.923905058943447  0.6521165348523823  1.0000
  C   C10       1.0  0.8915209432540934  0.0760953194547014  0.34788431977011675  1.0000
  C   C11       1.0  0.14871004436687937  0.8141049567322867  0.5552676083276681  1.0000
  C   C12       1.0  0.8512891246252677  0.1858944271897869  0.44473347625501003  1.0000
  C   C13       1.0  0.24573505287388991  0.6800177600894628  0.5931864834150105  1.0000
  C   C14       1.0  0.7542647098150822  0.3199826183086785  0.40681437120748853  1.0000
  C   C15       1.0  0.45879431111602986  0.5792783292961659  0.6626792505557759  1.0000
  C   C16       1.0  0.5412054515729351  0.4207220491019754  0.3373216040667232  1.0000
  C   C17       1.0  0.9874243878877493  0.4916908444474614  0.7679727366219281  1.0000
  C   C18       1.0  0.012579551429993804  0.5083065505224909  0.23202641029147486  1.0000
  C   C19       1.0  0.9059740849095379  0.6074876373237146  0.580265663691243  1.0000
  C   C20       1.0  0.09402508408260958  0.3925117465983661  0.4197335827406122  1.0000
  C   C21       1.0  0.9911702688980881  0.49166001568948303  0.6302229345141371  1.0000
  C   C22       1.0  0.008828900094059119  0.5083393682325976  0.36977723099312954  1.0000
  C   C23       1.0  0.0847541421222999  0.3823929526485585  0.5498177243007732  1.0000
  C   C24       1.0  0.9152460198230513  0.6176064312735221  0.4501821947874591  1.0000
  C   C25       1.0  0.31027456881734133  0.24006154943629812  0.5842092396952481  1.0000
  C   C26       1.0  0.6897251938716309  0.7599388289618432  0.4157897767764354  1.0000
  C   C27       1.0  0.36868329171101516  0.1289765841506352  0.6724822095526619  1.0000
  C   C28       1.0  0.6313154780247459  0.871023794247506  0.32751797241346736  1.0000
  C   C29       1.0  0.5247572076150604  0.1009283812454314  0.6647128805260111  1.0000
  C   C30       1.0  0.47524255507391183  0.8990719971527099  0.3352870550210838  1.0000
  C   C31       1.0  0.7204834715446324  0.9649590198118502  0.7459264845624177  1.0000
  C   C32       1.0  0.2795162911443327  0.035041358586291  0.2540725319092658  1.0000
  C   C33       1.0  0.4352800141769677  0.2947935340870842  0.9851489825634802  1.0000
  C   C34       1.0  0.5647193492556185  0.7052078387871177  0.014850050367066114  1.0000
  C   C35       1.0  0.6581371798435072  0.3293704723515489  0.8985221193319717  1.0000
  C   C36       1.0  0.3418645687518803  0.6706299060465923  0.10147824245245832  1.0000
  C   C37       1.0  0.640517156279138  0.1610424703538413  0.06620675946819435  1.0000
  C   C38       1.0  0.35948161345663004  0.8389579080442999  0.9337934224979352  1.0000
  N   N1        1.0  0.5721620311357754  0.2626053273280178  0.982501133104563  1.0000
  N   N2        1.0  0.42784051597238465  0.7373930621179952  0.017498276686737292  1.0000
  O   O1        1.0  0.10403596220465515  0.6492297756283136  0.9542835121007657  1.0000
  O   O2        1.0  0.8959634012279308  0.3507715972458954  0.045718278056007484  1.0000
  O   O3        1.0  0.8604502532470729  0.7371633381472407  0.006782701080197793  1.0000
  O   O4        1.0  0.1395497142578392  0.2628340568227117  0.9932174315093506  1.0000
  O   O5        1.0  0.03314414256044532  0.8858892224501389  0.7697585122466819  1.0000
  O   O6        1.0  0.966855620128527  0.1141111559480024  0.23024234237582414  1.0000
  O   O7        1.0  0.3779613851381001  0.6890038458025316  0.5979363137660557  1.0000
  O   O8        1.0  0.6220383775508651  0.3109965325956097  0.40206454085645055  1.0000
  O   O9        1.0  0.10865585817613516  0.4490417439726144  0.7943305301735464  1.0000
  O   O10       1.0  0.8913437100723981  0.5509566454733985  0.20566778072404202  1.0000
  O   O11       1.0  0.8650653930512178  0.5383029320367996  0.8454201050991657  1.0000
  O   O12       1.0  0.1349347688941336  0.461696451885274  0.1545807330644777  1.0000
  O   O13       1.0  0.15997736089810385  0.263967759535511  0.6002756206648457  1.0000
  O   O14       1.0  0.8400218080940361  0.7360316243865626  0.3997236257670097  1.0000
  O   O15       1.0  0.5740240639423605  0.9963665628607856  0.7500362594478177  1.0000
  O   O16       1.0  0.42597470579340063  0.0036338155373556  0.24996392251830463  1.0000
  O   O17       1.0  0.3701772348733741  0.3826385882363326  0.9153653893235403  1.0000
  O   O18       1.0  0.6298259059316037  0.6173607956857481  0.08463379050758138  1.0000
