data_image0
_chemical_formula_structural       Er2H30C30N2O16
_chemical_formula_sum              "Er2 H30 C30 N2 O16"
_cell_length_a       8.596304675176537
_cell_length_b       10.283535982981496
_cell_length_c       10.825944321358913
_cell_angle_alpha    63.09050238118746
_cell_angle_beta     70.57325604211958
_cell_angle_gamma    81.71729981856345

_space_group_name_H-M_alt    "P 1"
_space_group_IT_number       1

loop_
  _space_group_symop_operation_xyz
  'x, y, z'

loop_
  _atom_site_type_symbol
  _atom_site_label
  _atom_site_symmetry_multiplicity
  _atom_site_fract_x
  _atom_site_fract_y
  _atom_site_fract_z
  _atom_site_occupancy
  Er  Er1       1.0  0.13832263504500733  0.9382566883265254  0.16200350506919395  1.0000
  Er  Er2       1.0  0.8616728959685815  0.06175321625462968  0.8379881269592885  1.0000
  H   H1        1.0  0.26057041928925884  0.07561698141446269  0.8455315981863335  1.0000
  H   H2        1.0  0.73942763879149  0.9243875096620607  0.154461643348846  1.0000
  H   H3        1.0  0.4184495759935772  0.08798256729158989  0.8879689313012094  1.0000
  H   H4        1.0  0.5815496551376358  0.9120273936861447  0.11202173882058741  1.0000
  H   H5        1.0  0.9869247228994953  0.5341625237438873  0.761371537118393  1.0000
  H   H6        1.0  0.013072073726590402  0.46583971291797605  0.23862573332841913  1.0000
  H   H7        1.0  0.9595347951237018  0.2516039068049664  0.20560308565315913  1.0000
  H   H8        1.0  0.04046445618304521  0.7483994576750983  0.7943930933669707  1.0000
  H   H9        1.0  0.5491028255580944  0.8209916554063312  0.39667162875625184  1.0000
  H   H10       1.0  0.45089034333686584  0.17900398353612698  0.603329304530625  1.0000
  H   H11       1.0  0.7387073191095439  0.13547399816306438  0.469786773564266  1.0000
  H   H12       1.0  0.26128466862383  0.8645216771553944  0.5302116723932288  1.0000
  H   H13       1.0  0.20359432700987412  0.5439480336799106  0.6004531344465391  1.0000
  H   H14       1.0  0.7964061588508148  0.456066380545046  0.39953167046418503  1.0000
  H   H15       1.0  0.6475976211584822  0.6528579796873757  0.23953401493130846  1.0000
  H   H16       1.0  0.35239910030922067  0.3471574131866005  0.7604541096954803  1.0000
  H   H17       1.0  0.15078268335833667  0.151022425467012  0.3427429641262663  1.0000
  H   H18       1.0  0.8492030261607014  0.8489895827306596  0.6572465887223161  1.0000
  H   H19       1.0  0.4308818636089314  0.363243943992657  0.3299214151396371  1.0000
  H   H20       1.0  0.5691184859989704  0.6367493698193697  0.6700915984814202  1.0000
  H   H21       1.0  0.21669016226628915  0.323526504929795  0.3846676436870666  1.0000
  H   H22       1.0  0.783307823632498  0.6764701890788627  0.6153371728318932  1.0000
  H   H23       1.0  0.3056378926891696  0.4772273714205182  0.2187143100692809  1.0000
  H   H24       1.0  0.6943725394680627  0.5227641146492701  0.7812867429069501  1.0000
  H   H25       1.0  0.6064908260461054  0.35359882288936717  0.10648661831433506  1.0000
  H   H26       1.0  0.3935242293119714  0.6463714540467504  0.8935507207131296  1.0000
  H   H27       1.0  0.49110190618991134  0.369808086820555  0.9896483837597144  1.0000
  H   H28       1.0  0.5089457217646682  0.6301488738522423  0.010367750999186858  1.0000
  H   H29       1.0  0.5654294102780142  0.1967435839200107  0.08976526962086241  1.0000
  H   H30       1.0  0.4345953943926446  0.8032167923317173  0.9102857235702899  1.0000
  C   C1        1.0  0.9451679050591295  0.2528215864095316  0.9591463676378494  1.0000
  C   C2        1.0  0.054820287427240474  0.7471794468314527  0.04085266142513445  1.0000
  C   C3        1.0  0.9722419718115847  0.3804439000016088  0.9808261550058576  1.0000
  C   C4        1.0  0.027752327215402814  0.6195626783360378  0.019169020101507898  1.0000
  C   C5        1.0  0.9931038790282118  0.5204686334147296  0.8654245041195024  1.0000
  C   C6        1.0  0.006890367787825402  0.4795378897480518  0.13457347895280944  1.0000
  C   C7        1.0  0.9784792848600716  0.3606472677099788  0.11601325665985483  1.0000
  C   C8        1.0  0.021513723244183318  0.6393581280418558  0.8839864331919002  1.0000
  C   C9        1.0  0.8289352798063592  0.9487419172854318  0.3451734893574781  1.0000
  C   C10       1.0  0.1710566476049351  0.051259209135373886  0.6548227058221913  1.0000
  C   C11       1.0  0.659203489253038  0.9763591873134626  0.42425764891969914  1.0000
  C   C12       1.0  0.3407872235753189  0.023638631255451494  0.5757411533505419  1.0000
  C   C13       1.0  0.5253919223494067  0.8997837315931675  0.44174313902273354  1.0000
  C   C14       1.0  0.4746012746276805  0.10021414296508616  0.558254085988068  1.0000
  C   C15       1.0  0.633610175797294  0.07740954861693439  0.4826930228295153  1.0000
  C   C16       1.0  0.36638054237029394  0.9225893785640693  0.5173043932968467  1.0000
  C   C17       1.0  0.324233929666363  0.7304603020682164  0.3221132130917468  1.0000
  C   C18       1.0  0.6757675739978667  0.26955610908872524  0.6778806667437607  1.0000
  C   C19       1.0  0.41601068430923505  0.6101197995509292  0.41183756137245103  1.0000
  C   C20       1.0  0.5839947069594942  0.38989245425367597  0.5881496692721058  1.0000
  C   C21       1.0  0.3335888960188528  0.5235320939452349  0.5583152488819464  1.0000
  C   C22       1.0  0.6664115603737741  0.4764833921085694  0.4416700418615278  1.0000
  C   C23       1.0  0.5834226377471127  0.585613038344185  0.3533886933551784  1.0000
  C   C24       1.0  0.4165778293239841  0.41440466493379796  0.6465938251005453  1.0000
  C   C25       1.0  0.2609177387658121  0.16939541465296762  0.24796711603216445  1.0000
  C   C26       1.0  0.7390790833750531  0.8306013341233083  0.7520342771690949  1.0000
  C   C27       1.0  0.32779364816289563  0.3643188275121147  0.2909957609009908  1.0000
  C   C28       1.0  0.6722105180489565  0.6356735628257437  0.709011125039055  1.0000
  C   C29       1.0  0.5161681146485649  0.2998112890358938  0.09320307919345788  1.0000
  C   C30       1.0  0.4838569603694083  0.7001548877589483  0.9068278794418774  1.0000
  N   N1        1.0  0.36550045108690205  0.2719831183408272  0.21523386350282436  1.0000
  N   N2        1.0  0.6345086112404559  0.7280015869078511  0.7847814429021227  1.0000
  O   O1        1.0  0.9941192356038258  0.12755607294940313  0.03478333978858214  1.0000
  O   O2        1.0  0.005864110410648499  0.8724449770542362  0.9652122918750694  1.0000
  O   O3        1.0  0.8742706451597116  0.2734967331333991  0.8658219002653239  1.0000
  O   O4        1.0  0.12571624829280387  0.7265086237989848  0.13417658479928452  1.0000
  O   O5        1.0  0.9522434054808999  0.0033895596542735016  0.3455537571804327  1.0000
  O   O6        1.0  0.04775361482531082  0.9966051925972578  0.6544391764487969  1.0000
  O   O7        1.0  0.8500126394867923  0.8710878171914227  0.27509485607108536  1.0000
  O   O8        1.0  0.14997927981337972  0.12891881550658718  0.7248962803658188  1.0000
  O   O9        1.0  0.1727725171041286  0.7504810138478175  0.3799973865730735  1.0000
  O   O10       1.0  0.8272336534516995  0.24954842640887873  0.6199963607716442  1.0000
  O   O11       1.0  0.3978253974114524  0.813449699151313  0.18840518953765434  1.0000
  O   O12       1.0  0.602174942494841  0.18656676677324666  0.8115852669801525  1.0000
  O   O13       1.0  0.31419234023439196  0.0328204784145214  0.9241891841775852  1.0000
  O   O14       1.0  0.6858107798872626  0.9671820177662267  0.07579805919658612  1.0000
  O   O15       1.0  0.2855827701059681  0.09651588285857567  0.17601834184500834  1.0000
  O   O16       1.0  0.7144090408189996  0.9034862234329848  0.8239830191089936  1.0000
