data_image0
_chemical_formula_structural       H14Pb2C16S2O12F6
_chemical_formula_sum              "H14 Pb2 C16 S2 O12 F6"
_cell_length_a       7.68778405516861
_cell_length_b       8.135114931304114
_cell_length_c       10.01285798381199
_cell_angle_alpha    85.1498657860069
_cell_angle_beta     77.6375740252798
_cell_angle_gamma    87.59422937184569

_space_group_name_H-M_alt    "P 1"
_space_group_IT_number       1

loop_
  _space_group_symop_operation_xyz
  'x, y, z'

loop_
  _atom_site_type_symbol
  _atom_site_label
  _atom_site_symmetry_multiplicity
  _atom_site_fract_x
  _atom_site_fract_y
  _atom_site_fract_z
  _atom_site_occupancy
  H   H1        1.0  0.8690667110409294  0.7775168975370333  0.7521747666295369  1.0000
  H   H2        1.0  0.1309512679905964  0.2225211016949586  0.24783365916430714  1.0000
  H   H3        1.0  0.45275550235800915  0.5122424765576737  0.8752439212314513  1.0000
  H   H4        1.0  0.5472369752780109  0.4877583194497959  0.12473736200491461  1.0000
  H   H5        1.0  0.3211216811443406  0.6432627720460786  0.07304984614582818  1.0000
  H   H6        1.0  0.6788983482510742  0.35675170007380064  0.9269359444819116  1.0000
  H   H7        1.0  0.05612256897591552  0.8036342254138589  0.11580251293315061  1.0000
  H   H8        1.0  0.9438951726950862  0.1963667220918381  0.884200591464591  1.0000
  H   H9        1.0  0.8626244092815013  0.8694987949351043  0.9655958150536464  1.0000
  H   H10       1.0  0.13739313547588952  0.13050836463668958  0.034418865352321894  1.0000
  H   H11       1.0  0.9763291211392442  0.21708425000999654  0.6470382146826381  1.0000
  H   H12       1.0  0.023659491921833403  0.7829104957607383  0.3529810830761519  1.0000
  H   H13       1.0  0.1325937465150844  0.09568419193816166  0.5851592835821647  1.0000
  H   H14       1.0  0.867392463026114  0.9043018918394167  0.4148560286767662  1.0000
  Pb  Pb1       1.0  0.27015535893228554  0.40574501994430534  0.4644833036664835  1.0000
  Pb  Pb2       1.0  0.7298764569616905  0.5941843936624168  0.5355255701271489  1.0000
  C   C1        1.0  0.09642423188272178  0.6218459316883481  0.7209675565438545  1.0000
  C   C2        1.0  0.9035679391477132  0.37816478193868613  0.2790260563947626  1.0000
  C   C3        1.0  0.2694036918616973  0.5616299391629906  0.7498267145793703  1.0000
  C   C4        1.0  0.7306007465599862  0.43837094499109247  0.2501695830956763  1.0000
  C   C5        1.0  0.9775165791673076  0.7304086875945258  0.8006780269885708  1.0000
  C   C6        1.0  0.0224781132583942  0.26960696148555024  0.1993128255840304  1.0000
  C   C7        1.0  0.32554860362557747  0.5766386842019459  0.8736139053605781  1.0000
  C   C8        1.0  0.6744638976933856  0.4233597475402319  0.12638024803230513  1.0000
  C   C9        1.0  0.24753061379229283  0.6552554648244707  0.9905696588961419  1.0000
  C   C10       1.0  0.752483144132597  0.3447454451375477  0.00942611039965166  1.0000
  C   C11       1.0  0.09108802281819103  0.7509244662788885  0.01674905549682392  1.0000
  C   C12       1.0  0.9089073434101634  0.24906776792840196  0.9832523370083663  1.0000
  C   C13       1.0  0.5005189909300469  0.0547008763597461  0.7797279389402973  1.0000
  C   C14       1.0  0.4994652922942747  0.9453061335774605  0.22027222139719532  1.0000
  C   C15       1.0  0.9746874889871434  0.7867918112091344  0.928434370411104  1.0000
  C   C16       1.0  0.025316981452185396  0.21320784941971027  0.0715650050169572  1.0000
  S   S1        1.0  0.6565899543688828  0.13236084763148168  0.6189335247417276  1.0000
  S   S2        1.0  0.3433959840281914  0.8676350628235808  0.3810681511414202  1.0000
  O   O1        1.0  0.3757679293692461  0.48561859929220924  0.6545278623305819  1.0000
  O   O2        1.0  0.6242273878267427  0.5143760434900814  0.34545638902017106  1.0000
  O   O3        1.0  0.057154882368905605  0.5765716197619498  0.6095796810161714  1.0000
  O   O4        1.0  0.9428481993021975  0.42343046724136  0.39040876358281196  1.0000
  O   O5        1.0  0.5452311558505726  0.18731063358315225  0.5230704241169235  1.0000
  O   O6        1.0  0.45476262878765533  0.8126902285713841  0.47692861748148374  1.0000
  O   O7        1.0  0.7477938971861845  0.2654812975089982  0.6664182326184687  1.0000
  O   O8        1.0  0.2521893474522585  0.7345158265992067  0.3335798031233708  1.0000
  O   O9        1.0  0.7733825433793414  0.9893350243100083  0.582630380875564  1.0000
  O   O10       1.0  0.22660840033501023  0.0106719945674811  0.4173666913037763  1.0000
  O   O11       1.0  0.10582061081044002  0.19349536694556235  0.6384679507984075  1.0000
  O   O12       1.0  0.8941706510686059  0.8065005632537063  0.3615348498613287  1.0000
  F   F1        1.0  0.4138435030023544  0.1809475091260282  0.8480541716764165  1.0000
  F   F2        1.0  0.5861604857402155  0.8190682252241145  0.15195313033718352  1.0000
  F   F3        1.0  0.5944802777669266  0.9667779976384522  0.863794410920235  1.0000
  F   F4        1.0  0.40552314590310345  0.033211798148016704  0.13620883208403003  1.0000
  F   F5        1.0  0.37913710017288343  0.9553269570860367  0.7519355503998071  1.0000
  F   F6        1.0  0.6208338164147164  0.04468129347358029  0.24807769545405728  1.0000
