data_image0
_chemical_formula_structural       Zn2H48C34N8O8
_chemical_formula_sum              "Zn2 H48 C34 N8 O8"
_cell_length_a       8.048773293660519
_cell_length_b       8.642747009270225
_cell_length_c       15.094876338447975
_cell_angle_alpha    76.64558279104487
_cell_angle_beta     88.90012032708522
_cell_angle_gamma    86.53387401250315

_space_group_name_H-M_alt    "P 1"
_space_group_IT_number       1

loop_
  _space_group_symop_operation_xyz
  'x, y, z'

loop_
  _atom_site_type_symbol
  _atom_site_label
  _atom_site_symmetry_multiplicity
  _atom_site_fract_x
  _atom_site_fract_y
  _atom_site_fract_z
  _atom_site_occupancy
  Zn  Zn1       1.0  0.22197010904331904  0.37620996210988955  0.26323380686643116  1.0000
  Zn  Zn2       1.0  0.7780239070906491  0.6237864652018171  0.7367650249941847  1.0000
  H   H1        1.0  0.9603466558511825  0.03088171749075738  0.8974370616573142  1.0000
  H   H2        1.0  0.03964829135327362  0.9691012582608488  0.10256856155795196  1.0000
  H   H3        1.0  0.8203223339288712  0.07066402547153669  0.9818721396963142  1.0000
  H   H4        1.0  0.17967591457868082  0.9293248493696705  0.01813412356678872  1.0000
  H   H5        1.0  0.2689119673869484  0.2745798961140549  0.07309927419500183  1.0000
  H   H6        1.0  0.73108585831541  0.7254151990419967  0.9269023233306939  1.0000
  H   H7        1.0  0.1452498902652408  0.10533092229652395  0.4449327388525647  1.0000
  H   H8        1.0  0.8547471718289329  0.894674705895113  0.5550703457998979  1.0000
  H   H9        1.0  0.41319308449519104  0.8610682140112329  0.16423498019405267  1.0000
  H   H10       1.0  0.5868109510511629  0.13892712287795206  0.8357638827481824  1.0000
  H   H11       1.0  0.2541954533060816  0.9612940594316086  0.21731050783481012  1.0000
  H   H12       1.0  0.7458083286263032  0.03870502757975198  0.7826852884905479  1.0000
  H   H13       1.0  0.5383430072567847  0.7464239458625169  0.3216385805045406  1.0000
  H   H14       1.0  0.46165580666209394  0.25357491189578946  0.6783599378364472  1.0000
  H   H15       1.0  0.3907558110619291  0.8704567938472889  0.3660472971268974  1.0000
  H   H16       1.0  0.6092393621340122  0.1295408362076387  0.6339513905417249  1.0000
  H   H17       1.0  0.15490925982314957  0.2231059174625897  0.9305230716502777  1.0000
  H   H18       1.0  0.845096610241697  0.776880920731905  0.06947937183772981  1.0000
  H   H19       1.0  0.957802364615304  0.3125858155365788  0.8938690784946247  1.0000
  H   H20       1.0  0.0421985384734  0.687401062403971  0.10613207939248782  1.0000
  H   H21       1.0  0.535266288514336  0.32383115809740554  0.497400499813665  1.0000
  H   H22       1.0  0.46473946656611526  0.6761746022879647  0.5026018289279648  1.0000
  H   H23       1.0  0.553959742597023  0.4866517127103264  0.4033978865763786  1.0000
  H   H24       1.0  0.4460420340695919  0.513357939689726  0.5965987415074778  1.0000
  H   H25       1.0  0.911574556871521  0.5585205216504717  0.3420891307062491  1.0000
  H   H26       1.0  0.0884343299750086  0.44149351835078926  0.6579135748348721  1.0000
  H   H27       1.0  0.7644846912789094  0.5981052812448195  0.49046361011018297  1.0000
  H   H28       1.0  0.2355180720481869  0.4019077302588271  0.5095359502137669  1.0000
  H   H29       1.0  0.7488850806777165  0.43188113132219985  0.5827313021550681  1.0000
  H   H30       1.0  0.2511211538352924  0.5681354884111226  0.41726782559289444  1.0000
  H   H31       1.0  0.90863429564763  0.1706060218296486  0.5724527964610219  1.0000
  H   H32       1.0  0.091363669721666  0.8294045143942054  0.42754774531864836  1.0000
  H   H33       1.0  0.7427601070462513  0.33293297972618763  0.04287427394051242  1.0000
  H   H34       1.0  0.25723771917478894  0.6670622499294152  0.9571253197769067  1.0000
  H   H35       1.0  0.8333617044898958  0.4200319837396974  0.19919921421711712  1.0000
  H   H36       1.0  0.16662974321459958  0.5799656088749996  0.8007995111549634  1.0000
  H   H37       1.0  0.5852752634838012  0.023806708849392098  0.42319946372171563  1.0000
  H   H38       1.0  0.4147194016197488  0.9761981972839775  0.5767964303935856  1.0000
  H   H39       1.0  0.7447539986118061  0.8882146112594638  0.397014608043385  1.0000
  H   H40       1.0  0.25524224635891096  0.1117852773022818  0.6029858076173369  1.0000
  H   H41       1.0  0.7631700723423691  0.09658129304253994  0.3583741487059769  1.0000
  H   H42       1.0  0.2368247612608414  0.9034209635654231  0.641626016274202  1.0000
  H   H43       1.0  0.6515839300818485  0.962030285930289  0.14743717072216364  1.0000
  H   H44       1.0  0.34842177113754497  0.0379591121232323  0.8525623377731365  1.0000
  H   H45       1.0  0.7956178303305637  0.0668797309449474  0.1941735510517049  1.0000
  H   H46       1.0  0.20438603516007703  0.9331178519709766  0.8058270524504536  1.0000
  H   H47       1.0  0.7879112179232022  0.8579131728360135  0.23660621357456796  1.0000
  H   H48       1.0  0.21208403848520868  0.14208286345710514  0.7633986171430251  1.0000
  C   C1        1.0  0.584001840423099  0.9967699069812708  0.2828571153156005  1.0000
  C   C2        1.0  0.41600069898722575  0.003228988217273412  0.717141365321929  1.0000
  C   C3        1.0  0.4777679404573192  0.15336517275901673  0.24892994326126683  1.0000
  C   C4        1.0  0.5222348536043312  0.8466302413164539  0.7510675963766147  1.0000
  C   C5        1.0  0.9534632806855825  0.06308475548149768  0.9637886382954408  1.0000
  C   C6        1.0  0.0465337268559622  0.9369043310455535  0.03621429785503954  1.0000
  C   C7        1.0  0.1387386534154729  0.3042321535912435  0.08527818535884531  1.0000
  C   C8        1.0  0.8612578455149985  0.6957640745146916  0.914723961046576  1.0000
  C   C9        1.0  0.24593643756281833  0.7071039603524835  0.24740938896037792  1.0000
  C   C10       1.0  0.7540622919333374  0.2928961773353437  0.752587661884256  1.0000
  C   C11       1.0  0.05735490621953689  0.20638122924937358  0.44180627505124903  1.0000
  C   C12       1.0  0.9426445542484103  0.7936254796660048  0.5581986566496654  1.0000
  C   C13       1.0  0.3428784704849619  0.8571367103921116  0.22785905765185532  1.0000
  C   C14       1.0  0.6571228270948807  0.14286217232635315  0.7721394355534912  1.0000
  C   C15       1.0  0.4632922509474183  0.8600015029333006  0.30488710184599205  1.0000
  C   C16       1.0  0.5367076350920285  0.13999970299819606  0.695111808614918  1.0000
  C   C17       1.0  0.022583788267176896  0.22772908434956912  0.9494683275250254  1.0000
  C   C18       1.0  0.9774195137139756  0.7722590088142809  0.05053267360226953  1.0000
  C   C19       1.0  0.5629936034179012  0.4504495987435318  0.4781446625013075  1.0000
  C   C20       1.0  0.4370046169484993  0.549557546023628  0.5218536024065373  1.0000
  C   C21       1.0  0.9373170722585797  0.440616399245016  0.38513542784362903  1.0000
  C   C22       1.0  0.0626883439207191  0.5593941670261202  0.614865706465217  1.0000
  C   C23       1.0  0.7373291281083424  0.47152727714590253  0.5086331751271163  1.0000
  C   C24       1.0  0.26267140620910834  0.5284822282745193  0.49136546933282693  1.0000
  C   C25       1.0  0.9410934361710089  0.2363229342702836  0.5047403829309616  1.0000
  C   C26       1.0  0.05891056760341941  0.763689731047961  0.49526450831387353  1.0000
  C   C27       1.0  0.864705103480901  0.33632211152686137  0.07131700834669631  1.0000
  C   C28       1.0  0.1352915658510625  0.6636719602186999  0.9286820616266385  1.0000
  C   C29       1.0  0.911205878080004  0.37790890301226904  0.14928920976195315  1.0000
  C   C30       1.0  0.08878325532765527  0.6220862392827939  0.8507104719302065  1.0000
  C   C31       1.0  0.6742670678555811  0.0021215836298650917  0.3707640696937774  1.0000
  C   C32       1.0  0.32573166094900324  0.9978783747252247  0.6292356528952112  1.0000
  C   C33       1.0  0.7118274481474032  0.9686940472511126  0.21100254862565043  1.0000
  C   C34       1.0  0.2881751760314373  0.031303657684283295  0.7889960636360558  1.0000
  N   N1        1.0  0.01010350957398029  0.2904151501039962  0.03163969837195419  1.0000
  N   N2        1.0  0.9898933286034365  0.7095763617825381  0.9683623065940878  1.0000
  N   N3        1.0  0.08259526263657338  0.3576814492426337  0.15712717224280234  1.0000
  N   N4        1.0  0.9173970874785623  0.6423208272383574  0.8428723499369327  1.0000
  N   N5        1.0  0.05396239204790021  0.3351821586383321  0.3679171840369264  1.0000
  N   N6        1.0  0.9460372384757605  0.6648223042503144  0.6320860071040714  1.0000
  N   N7        1.0  0.8668805374948078  0.38503372052353746  0.4675165341643321  1.0000
  N   N8        1.0  0.13312355156681827  0.6149778890311167  0.5324864848964168  1.0000
  O   O1        1.0  0.4872178685732179  0.23248801466922223  0.1686595020990325  1.0000
  O   O2        1.0  0.5127913891192789  0.7675039358503848  0.8313377016361941  1.0000
  O   O3        1.0  0.3754626734630618  0.19007863550652357  0.30982948029437557  1.0000
  O   O4        1.0  0.624534081501878  0.8099144701418194  0.690166381622696  1.0000
  O   O5        1.0  0.33560863319792134  0.5761390259989341  0.24877092263078282  1.0000
  O   O6        1.0  0.6643851294949812  0.42386119626813457  0.7512241746768638  1.0000
  O   O7        1.0  0.09184197637494411  0.7148200080471977  0.26130477905287114  1.0000
  O   O8        1.0  0.9081566680069102  0.2851812302374056  0.7386934760397637  1.0000
