data_image0
_chemical_formula_structural       Cd4H20C32O22
_chemical_formula_sum              "Cd4 H20 C32 O22"
_cell_length_a       7.4670497352782075
_cell_length_b       10.897492031108639
_cell_length_c       11.119944791554152
_cell_angle_alpha    89.98615261240825
_cell_angle_beta     94.79160466218677
_cell_angle_gamma    108.10680094615208

_space_group_name_H-M_alt    "P 1"
_space_group_IT_number       1

loop_
  _space_group_symop_operation_xyz
  'x, y, z'

loop_
  _atom_site_type_symbol
  _atom_site_label
  _atom_site_symmetry_multiplicity
  _atom_site_fract_x
  _atom_site_fract_y
  _atom_site_fract_z
  _atom_site_occupancy
  Cd  Cd1       1.0  0.5141182741803263  0.8030443945230704  0.2931581978363127  1.0000
  Cd  Cd2       1.0  0.48588203849401174  0.1969563253417661  0.7068427257333385  1.0000
  Cd  Cd3       1.0  0.9117428839778513  0.9460755090109249  0.6507020855750413  1.0000
  Cd  Cd4       1.0  0.08825699861019841  0.05392426133303731  0.3492970080233349  1.0000
  H   H1        1.0  0.6866681683785032  0.06516003598659381  0.2085326607309241  1.0000
  H   H2        1.0  0.31333349375330494  0.9348406918007017  0.7914674405655617  1.0000
  H   H3        1.0  0.4833026914900245  0.057812938755624495  0.2440029994550272  1.0000
  H   H4        1.0  0.5167007558239333  0.9421887546018582  0.7559972106016346  1.0000
  H   H5        1.0  0.04768943533314024  0.7424511518398306  0.7621625091089899  1.0000
  H   H6        1.0  0.9523126738001366  0.2575505498488867  0.23783672534495542  1.0000
  H   H7        1.0  0.021346504470805917  0.8225643419014335  0.8721254291380945  1.0000
  H   H8        1.0  0.9786551632993932  0.1774363940127088  0.1278737732204576  1.0000
  H   H9        1.0  0.35248690456757714  0.350058577163857  0.18469579332177946  1.0000
  H   H10       1.0  0.6475116342013861  0.6499411933844926  0.8153032236118207  1.0000
  H   H11       1.0  0.23521000512056386  0.15919513465929924  0.0448748493105526  1.0000
  H   H12       1.0  0.7647930121071057  0.8408056091773021  0.9551235307748345  1.0000
  H   H13       1.0  0.1996158880084379  0.5876108797705939  0.9122290695270153  1.0000
  H   H14       1.0  0.8003844303042839  0.41238984822108893  0.08777095510469478  1.0000
  H   H15       1.0  0.40110693428758276  0.5371745291516562  0.7074208086004319  1.0000
  H   H16       1.0  0.5988893553825889  0.46282327754452984  0.292581663229342  1.0000
  H   H17       1.0  0.8056282924011523  0.49055069831981507  0.6507663532076791  1.0000
  H   H18       1.0  0.19437204282674256  0.5094500540524152  0.3492309746102222  1.0000
  H   H19       1.0  0.8766560025244272  0.6881846441630515  0.5268452151378327  1.0000
  H   H20       1.0  0.1233438857020062  0.31181513430775004  0.4731529795226095  1.0000
  C   C1        1.0  0.35635137130320516  0.5976373527237371  0.1388821562334641  1.0000
  C   C2        1.0  0.6436485112848371  0.4023624176202246  0.8611169373649119  1.0000
  C   C3        1.0  0.2827643036973341  0.4808743265326286  0.0565919910204329  1.0000
  C   C4        1.0  0.7172387191687264  0.5191264254308194  0.9434054901270201  1.0000
  C   C5        1.0  0.292145913619116  0.3603692483877481  0.09446199908443731  1.0000
  C   C6        1.0  0.7078562208824051  0.6396295638997032  0.9055363168101563  1.0000
  C   C7        1.0  0.2243601450057965  0.2527658295746917  0.0163662080271934  1.0000
  C   C8        1.0  0.7756379524000961  0.7472329751990828  0.9836327768110067  1.0000
  C   C9        1.0  0.14784082638091434  0.2642073745131129  0.8991858963544246  1.0000
  C   C10       1.0  0.8521581537511195  0.7357933618098116  0.10081315267457569  1.0000
  C   C11       1.0  0.0728548556565087  0.1478555328343631  0.8166578885995008  1.0000
  C   C12       1.0  0.9271432163811328  0.8521461613406845  0.18334201479805762  1.0000
  C   C13       1.0  0.14096381751781448  0.38579955258253323  0.8614728574505864  1.0000
  C   C14       1.0  0.8590351626142266  0.6142011837403915  0.1385261915784071  1.0000
  C   C15       1.0  0.2063209325586611  0.49316872659106537  0.9397395780701461  1.0000
  C   C16       1.0  0.7936780475733796  0.506832009731859  0.06025947095885439  1.0000
  C   C17       1.0  0.10090042605948916  0.5050480201358668  0.6861075903862641  1.0000
  C   C18       1.0  0.8990981014326921  0.49495173415878924  0.3138932244232109  1.0000
  C   C19       1.0  0.2884274944758757  0.5732383485102942  0.6685999263015745  1.0000
  C   C20       1.0  0.7115728012832889  0.42676234697399457  0.3314036940818852  1.0000
  C   C21       1.0  0.3282451382408738  0.6848142309903056  0.5999417859149005  1.0000
  C   C22       1.0  0.6717533779745254  0.31518550705065  0.40006082677044935  1.0000
  C   C23       1.0  0.5328468829641223  0.7621686616284151  0.5910731021163755  1.0000
  C   C24       1.0  0.4671556759853033  0.23783109205306366  0.40892794268742705  1.0000
  C   C25       1.0  0.9510570154629433  0.5452674587623179  0.6360727320161602  1.0000
  C   C26       1.0  0.048945537848084066  0.45473228679231437  0.36392921172557646  1.0000
  C   C27       1.0  0.991654734040935  0.6558730420486684  0.5678253649897087  1.0000
  C   C28       1.0  0.008344707184036777  0.34412576252071153  0.4321736965132672  1.0000
  C   C29       1.0  0.17914890439956815  0.7271108950292061  0.5497323142664641  1.0000
  C   C30       1.0  0.8208509669116992  0.2728888590610552  0.45026857720778685  1.0000
  C   C31       1.0  0.20861308526968256  0.8486276477137196  0.482070927281633  1.0000
  C   C32       1.0  0.7913832325924445  0.15137019961672143  0.5179270498584572  1.0000
  O   O1        1.0  0.43387697554862104  0.58464081987821  0.2443061248975198  1.0000
  O   O2        1.0  0.5661215632203421  0.41535895067013945  0.7556928920360804  1.0000
  O   O3        1.0  0.3423984779060162  0.705298707474924  0.1043654761962429  1.0000
  O   O4        1.0  0.6576031729490095  0.2947020040586708  0.8956364229761178  1.0000
  O   O5        1.0  0.5586596314806586  0.005430234815875699  0.21601842090189652  1.0000
  O   O6        1.0  0.4413420306511496  0.99457049297142  0.7839816803945965  1.0000
  O   O7        1.0  0.924668037936442  0.06033257208701311  0.8392132857854976  1.0000
  O   O8        1.0  0.07533003410119936  0.9396691220880273  0.16078661761206803  1.0000
  O   O9        1.0  0.1615456338188608  0.1401689923754219  0.7234950170098459  1.0000
  O   O10       1.0  0.8384555615816252  0.8598336590385642  0.2765059707506055  1.0000
  O   O11       1.0  0.05430639196104171  0.39059831818582313  0.7474679805654391  1.0000
  O   O12       1.0  0.9456903447105988  0.6094004624117916  0.2525336244218011  1.0000
  O   O13       1.0  0.6136376975347486  0.7645825605308261  0.49567116275347445  1.0000
  O   O14       1.0  0.3863626207779802  0.23541816746085692  0.5043288618782356  1.0000
  O   O15       1.0  0.6192857782770034  0.8223783193589472  0.6892335510543505  1.0000
  O   O16       1.0  0.3807194880404338  0.1776185363856229  0.3107676274575796  1.0000
  O   O17       1.0  0.3194660383983745  0.8800695053253096  0.3998873424542068  1.0000
  O   O18       1.0  0.6805342742759636  0.11993121453952683  0.600113581115437  1.0000
  O   O19       1.0  0.10896697918152388  0.9208305900680571  0.5090913900363319  1.0000
  O   O20       1.0  0.8910253269532189  0.07916436034743411  0.4909063374880134  1.0000
  O   O21       1.0  0.0746517209018192  0.8310078957573096  0.7936256041948155  1.0000
  O   O22       1.0  0.9253490444123714  0.1689938061358021  0.20637355359436071  1.0000
