data_image0
_chemical_formula_structural       Sr2H44C32N20O16
_chemical_formula_sum              "Sr2 H44 C32 N20 O16"
_cell_length_a       8.182024022968866
_cell_length_b       11.841064720014346
_cell_length_c       11.840377983110825
_cell_angle_alpha    87.81750156751704
_cell_angle_beta     87.81334596208582
_cell_angle_gamma    87.81735412978085

_space_group_name_H-M_alt    "P 1"
_space_group_IT_number       1

loop_
  _space_group_symop_operation_xyz
  'x, y, z'

loop_
  _atom_site_type_symbol
  _atom_site_label
  _atom_site_symmetry_multiplicity
  _atom_site_fract_x
  _atom_site_fract_y
  _atom_site_fract_z
  _atom_site_occupancy
  Sr  Sr1       1.0  0.7500019740147008  0.0184631879191812  0.9815324210288238  1.0000
  Sr  Sr2       1.0  0.24999788654447733  0.9815387798502613  0.018459874278988795  1.0000
  H   H1        1.0  0.5721370028170653  0.25228253122507033  0.3199607744943904  1.0000
  H   H2        1.0  0.9279394394533963  0.6800308962929192  0.7476808816268204  1.0000
  H   H3        1.0  0.42787605451791677  0.7477167569130355  0.6800424487035883  1.0000
  H   H4        1.0  0.07204651193010388  0.31997129630828886  0.2523267810192493  1.0000
  H   H5        1.0  0.5239661738872098  0.13153163594336803  0.4038448575233033  1.0000
  H   H6        1.0  0.9760454599945231  0.596163148475391  0.8684631794795619  1.0000
  H   H7        1.0  0.4760592039065229  0.868470011788581  0.59615305027814  1.0000
  H   H8        1.0  0.02393940746429019  0.4038424186613554  0.13153675724888098  1.0000
  H   H9        1.0  0.7916792521574646  0.35995294434656705  0.35234564587183564  1.0000
  H   H10       1.0  0.7082986285306916  0.6476967743897999  0.6400345650500157  1.0000
  H   H11       1.0  0.20830720790487323  0.6400390753391746  0.6476539745989952  1.0000
  H   H12       1.0  0.29169378746267666  0.3523044577534692  0.3599620752695714  1.0000
  H   H13       1.0  0.9763794852318242  0.4273548070713814  0.4892667187659256  1.0000
  H   H14       1.0  0.5235862559900966  0.5107587348256571  0.5726398142667789  1.0000
  H   H15       1.0  0.023623562421185802  0.5726454766855866  0.5107433451800247  1.0000
  H   H16       1.0  0.47639881568458264  0.48924175113270957  0.4273577912709001  1.0000
  H   H17       1.0  0.8684814226034231  0.1299937228169128  0.7038079449485436  1.0000
  H   H18       1.0  0.6315809562645994  0.2962060217577118  0.8699683953652977  1.0000
  H   H19       1.0  0.13154005213991837  0.8700063112244011  0.29619936833402954  1.0000
  H   H20       1.0  0.36840274869246054  0.7037961819656006  0.1300325364691162  1.0000
  H   H21       1.0  0.6941932795959286  0.0697368726154295  0.5560616925247786  1.0000
  H   H22       1.0  0.8058633347947078  0.44393249564894444  0.930214149567959  1.0000
  H   H23       1.0  0.3058278525709568  0.9302580250959025  0.4439204903474234  1.0000
  H   H24       1.0  0.19411042127399716  0.556073227124493  0.06978929644504459  1.0000
  H   H25       1.0  0.23573625539856374  0.3432794349763812  0.9136765212400135  1.0000
  H   H26       1.0  0.26426908192414084  0.0863395981239918  0.6567279007014618  1.0000
  H   H27       1.0  0.7642422441408029  0.6567262391560432  0.08633193691205317  1.0000
  H   H28       1.0  0.7357332438339909  0.9136488430301952  0.3432758932388039  1.0000
  H   H29       1.0  0.45233416084067096  0.14673299350901198  0.8563306238851638  1.0000
  H   H30       1.0  0.04769841436786489  0.1436849294970699  0.8532780038728446  1.0000
  H   H31       1.0  0.5476628123558952  0.853271582724851  0.1436742725975151  1.0000
  H   H32       1.0  0.9523109221326675  0.8563262182086576  0.1467163378106591  1.0000
  H   H33       1.0  0.42919642054463475  0.19194197152301484  0.9814356676520358  1.0000
  H   H34       1.0  0.07081386925163  0.0185873041594107  0.8080625833687733  1.0000
  H   H35       1.0  0.5708054859467564  0.8080600062417674  0.018570118054824995  1.0000
  H   H36       1.0  0.9291917613010056  0.9814154628702313  0.19194059038677835  1.0000
  H   H37       1.0  0.9321286870693155  0.21504654060753842  0.0600215635824028  1.0000
  H   H38       1.0  0.5678869292614407  0.9400222840489008  0.7849253291665619  1.0000
  H   H39       1.0  0.0678567925422513  0.7849614918875004  0.9399554577113204  1.0000
  H   H40       1.0  0.43213730704077585  0.059992863619811515  0.2150576858208453  1.0000
  H   H41       1.0  0.7442830947078604  0.24364273061986813  0.0875097171189623  1.0000
  H   H42       1.0  0.7557250499020822  0.9125027325243381  0.7563487594520094  1.0000
  H   H43       1.0  0.25570031440454943  0.756347585626088  0.9124705805865503  1.0000
  H   H44       1.0  0.24429542305034596  0.08750825690502502  0.24364122799850202  1.0000
  C   C1        1.0  0.7089389345822567  0.0994563479432529  0.2751884548385988  1.0000
  C   C2        1.0  0.7910779597454081  0.7248297029348264  0.9004991932937684  1.0000
  C   C3        1.0  0.29106917506620505  0.9005480700142459  0.7248120874110953  1.0000
  C   C4        1.0  0.20890065798946716  0.2751742721921105  0.0995067978978526  1.0000
  C   C5        1.0  0.6270428968201073  0.176897394432622  0.3631773852424303  1.0000
  C   C6        1.0  0.8729954260156276  0.6368444802549647  0.8230946524495975  1.0000
  C   C7        1.0  0.3729726827858285  0.8230959505824204  0.6368285816219981  1.0000
  C   C8        1.0  0.1270025486419613  0.3631609465197912  0.1769169552901886  1.0000
  C   C9        1.0  0.8160916426446575  0.3113745608745404  0.4300659199185047  1.0000
  C   C10       1.0  0.6839320282622836  0.5699547367688567  0.6886368354745256  1.0000
  C   C11       1.0  0.18393596007042126  0.6886279212785242  0.5699386847521665  1.0000
  C   C12       1.0  0.31607334455918584  0.43004637085050496  0.3113765455469633  1.0000
  C   C13       1.0  0.9168744489704963  0.3484117807138247  0.508800278067028  1.0000
  C   C14       1.0  0.583107968854982  0.49118619102236494  0.6515849495674216  1.0000
  C   C15       1.0  0.08313397597596146  0.651584171252729  0.49119722381313824  1.0000
  C   C16       1.0  0.4168773430973047  0.5087999338996312  0.3484174577334755  1.0000
  C   C17       1.0  0.9412411993408866  0.28699197288871403  0.6130140579773878  1.0000
  C   C18       1.0  0.5588209958957718  0.38698055121597014  0.7130047347776836  1.0000
  C   C19       1.0  0.0587755141483441  0.7130038952759036  0.386992637620338  1.0000
  C   C20       1.0  0.44118236705522657  0.6130112665500533  0.2870022887987389  1.0000
  C   C21       1.0  0.8583948299799288  0.1830179135501453  0.6272767494214193  1.0000
  C   C22       1.0  0.6416538127907072  0.37270536233506146  0.8169544500691543  1.0000
  C   C23       1.0  0.14160421571558854  0.8169680050178486  0.3727162051801968  1.0000
  C   C24       1.0  0.3583372976085569  0.6272883050754674  0.1830518045527398  1.0000
  C   C25       1.0  0.7595770812456946  0.1480320013538687  0.5461062805235172  1.0000
  C   C26       1.0  0.7404984665540225  0.4538917360826816  0.8519544568725691  1.0000
  C   C27       1.0  0.24044586418402492  0.8519612443028493  0.4538987550652465  1.0000
  C   C28       1.0  0.25950066349194145  0.5461153682984232  0.1480579135429352  1.0000
  C   C29       1.0  0.0351374076382029  0.332384736882247  0.6979905528321737  1.0000
  C   C30       1.0  0.4648923233669108  0.3020221311686413  0.6675975333117208  1.0000
  C   C31       1.0  0.964859694423943  0.6676206690567524  0.3020092400175329  1.0000
  C   C32       1.0  0.5350916037544021  0.6979733029295333  0.3324019801651871  1.0000
  N   N1        1.0  0.08271130716741477  0.2789907128581958  0.7962741434916296  1.0000
  N   N2        1.0  0.4173197044121437  0.20374586657644037  0.7209904456119246  1.0000
  N   N3        1.0  0.9172923778650667  0.7210061306529099  0.20371746735864343  1.0000
  N   N4        1.0  0.5826686867786391  0.7962546079781417  0.2790189460400824  1.0000
  N   N5        1.0  0.17472030918982984  0.4547880647726216  0.7822919140723954  1.0000
  N   N6        1.0  0.32530224911179323  0.2177145632407758  0.5452003389268113  1.0000
  N   N7        1.0  0.8252695239039056  0.5452106840979667  0.2177116164375974  1.0000
  N   N8        1.0  0.6746951897534358  0.7822815311640596  0.4547964474957879  1.0000
  N   N9        1.0  0.16493266182801847  0.35916142373484655  0.8442837187770563  1.0000
  N   N10       1.0  0.3351060779240668  0.15572727926882377  0.6408467784350049  1.0000
  N   N11       1.0  0.8350875031047451  0.6408538145280716  0.15571285854876746  1.0000
  N   N12       1.0  0.6648942899739437  0.8442772776421988  0.3591673693167222  1.0000
  N   N13       1.0  0.093356087187054  0.4411357603330472  0.690820880309154  1.0000
  N   N14       1.0  0.40667286154319265  0.30918435279411943  0.5588525797456043  1.0000
  N   N15       1.0  0.9066395514670518  0.5588722168331587  0.3091847397401537  1.0000
  N   N16       1.0  0.5933244484564568  0.6908109119055792  0.44114931030996724  1.0000
  N   N17       1.0  0.7335314258147034  0.2121287756905801  0.4482553307646667  1.0000
  N   N18       1.0  0.7664958406066161  0.5517316960850068  0.7878736890872631  1.0000
  N   N19       1.0  0.26646901893853675  0.7878512053154055  0.5517370020975676  1.0000
  N   N20       1.0  0.23348304246764684  0.4482579153658718  0.212136258919152  1.0000
  O   O1        1.0  0.6301414067797567  0.0881797362087724  0.18532571446770865  1.0000
  O   O2        1.0  0.8698798088997602  0.8146943229737288  0.9117542561648972  1.0000
  O   O3        1.0  0.3698899445635035  0.9118412414628807  0.8146595114408156  1.0000
  O   O4        1.0  0.1300991812050967  0.18530876965446194  0.0882399396911921  1.0000
  O   O5        1.0  0.843186231040363  0.04821829668944132  0.2980221486398236  1.0000
  O   O6        1.0  0.6568374412312464  0.7020151878261559  0.9517331965342706  1.0000
  O   O7        1.0  0.15681381983780798  0.951763412358517  0.701981945615529  1.0000
  O   O8        1.0  0.34315213752307727  0.29798864750217297  0.048274355063341504  1.0000
  O   O9        1.0  0.46931879960919065  0.1234493302088495  0.9382498936580602  1.0000
  O   O10       1.0  0.030704025303336397  0.06175033775783591  0.8765568681305138  1.0000
  O   O11       1.0  0.5306819406588017  0.8765543442034271  0.0617524587581428  1.0000
  O   O12       1.0  0.969302436339518  0.9382354761724727  0.12343346529858219  1.0000
  O   O13       1.0  0.8218704519982295  0.22402777542400545  0.026309727806953703  1.0000
  O   O14       1.0  0.6781558552863556  0.973706676789611  0.775948345906869  1.0000
  O   O15       1.0  0.1781162366819586  0.7759827723015607  0.9736654873747882  1.0000
  O   O16       1.0  0.3218647717583778  0.026299236740740608  0.22404100024972712  1.0000
