data_image0
_chemical_formula_structural       Ni4H96C144N8O16
_chemical_formula_sum              "Ni4 H96 C144 N8 O16"
_cell_length_a       16.11314679285904
_cell_length_b       19.187779304231288
_cell_length_c       19.18775857858489
_cell_angle_alpha    79.8473707224048
_cell_angle_beta     65.15893128210215
_cell_angle_gamma    65.15879356675798

_space_group_name_H-M_alt    "P 1"
_space_group_IT_number       1

loop_
  _space_group_symop_operation_xyz
  'x, y, z'

loop_
  _atom_site_type_symbol
  _atom_site_label
  _atom_site_symmetry_multiplicity
  _atom_site_fract_x
  _atom_site_fract_y
  _atom_site_fract_z
  _atom_site_occupancy
  Ni  Ni1       1.0  0.6447192996426876  0.9999886636368062  0.00018608005827756282  1.0000
  Ni  Ni2       1.0  0.8949592655457864  0.49991650545419475  0.49998449659111793  1.0000
  Ni  Ni3       1.0  0.14471612513045065  0.0001917639973286  0.9999904705925076  1.0000
  Ni  Ni4       1.0  0.3949589560246664  0.4999879533981615  0.4999130598819548  1.0000
  H   H1        1.0  0.9420239461052872  0.3886918391535232  0.29021862422802513  1.0000
  H   H2        1.0  0.6211515298697772  0.6111297112937991  0.7094065395012235  1.0000
  H   H3        1.0  0.5806219819030928  0.7900944448169581  0.11135152256108678  1.0000
  H   H4        1.0  0.48191083194652135  0.20968440548769957  0.8889887550911622  1.0000
  H   H5        1.0  0.12114298300757972  0.7094105914600705  0.611133316513012  1.0000
  H   H6        1.0  0.4420211861503132  0.2902231024907423  0.38869347714188507  1.0000
  H   H7        1.0  0.9819108414091173  0.8889938602338674  0.20968740321163168  1.0000
  H   H8        1.0  0.08061457893585094  0.11136438762455465  0.790099128919408  1.0000
  H   H9        1.0  0.896011870908495  0.3208690690136394  0.22111759910018955  1.0000
  H   H10       1.0  0.4381535923168727  0.6788787293794557  0.7787709596299875  1.0000
  H   H11       1.0  0.46687337427528747  0.7209170162029109  0.1790350175379983  1.0000
  H   H12       1.0  0.3666791924383047  0.2788184889682341  0.8212175768132466  1.0000
  H   H13       1.0  0.9381452223286358  0.7787692532691254  0.6788806341688555  1.0000
  H   H14       1.0  0.39600870471431876  0.22111865816204102  0.3208730649740091  1.0000
  H   H15       1.0  0.866678544172423  0.8212219450212787  0.2788213747141057  1.0000
  H   H16       1.0  0.9668592587936685  0.17904481008551443  0.7209247883319063  1.0000
  H   H17       1.0  0.6966585079996862  0.2701229489186333  0.43811950677620337  1.0000
  H   H18       1.0  0.4045637100201203  0.7302452602475994  0.5619846715242146  1.0000
  H   H19       1.0  0.21664536989518243  0.9378462709619411  0.23034387050043392  1.0000
  H   H20       1.0  0.3851671431839065  0.06178475434960261  0.7697794977376448  1.0000
  H   H21       1.0  0.9045655934547407  0.5619799188910973  0.730245123733404  1.0000
  H   H22       1.0  0.19666104035013623  0.43812242249225614  0.2701210947700829  1.0000
  H   H23       1.0  0.8851756992855186  0.7697768346875904  0.061785627283008064  1.0000
  H   H24       1.0  0.7166396489055128  0.23035385528741878  0.9378522033759609  1.0000
  H   H25       1.0  0.7440361744298726  0.3374969858998469  0.5062333855160687  1.0000
  H   H26       1.0  0.5874698731256411  0.6628828105627917  0.4936314566643317  1.0000
  H   H27       1.0  0.33125293338598266  0.0060603296573163  0.1630503863660806  1.0000
  H   H28       1.0  0.5006805165341885  0.9937103861292941  0.8371386411944286  1.0000
  H   H29       1.0  0.08747451970223342  0.4936320093584143  0.6628808933979967  1.0000
  H   H30       1.0  0.24403971216143805  0.5062343406517087  0.33749560458002753  1.0000
  H   H31       1.0  0.0006800799762840889  0.8371396615396733  0.9937139342792631  1.0000
  H   H32       1.0  0.8312486816700754  0.16306000361449688  0.006065533334208229  1.0000
  H   H33       1.0  0.9222482304189158  0.1956718409973845  0.20425744069498825  1.0000
  H   H34       1.0  0.3220513242613237  0.8042470382043587  0.7959474212977822  1.0000
  H   H35       1.0  0.3677013274651343  0.7040339939264442  0.3044192833450623  1.0000
  H   H36       1.0  0.37649191046142494  0.2955830741287784  0.6957654698058491  1.0000
  H   H37       1.0  0.8220468656704438  0.7959429013692513  0.8042489128829826  1.0000
  H   H38       1.0  0.42225475806700524  0.20425792256500597  0.19566890794779818  1.0000
  H   H39       1.0  0.8764964687676408  0.6957643388304219  0.29558348569895543  1.0000
  H   H40       1.0  0.8676970537087597  0.30442646912698734  0.7040375115949188  1.0000
  H   H41       1.0  0.8871341083640231  0.12432096805039809  0.13148862079169982  1.0000
  H   H42       1.0  0.14272416652394038  0.8756126358960972  0.8687114550333062  1.0000
  H   H43       1.0  0.26118375826325013  0.6312231652601525  0.3755221831395091  1.0000
  H   H44       1.0  0.26851988316702347  0.3684872957376796  0.624492694454389  1.0000
  H   H45       1.0  0.6427181767483885  0.868710186871489  0.875612387064244  1.0000
  H   H46       1.0  0.3871421658624855  0.1314881349852044  0.12431761356639022  1.0000
  H   H47       1.0  0.768529081445784  0.6244905531303716  0.3684856928787851  1.0000
  H   H48       1.0  0.761177927279718  0.3755243343449024  0.6312250498730664  1.0000
  H   H49       1.0  0.5764863439332685  0.22209863949311173  0.2771451141294179  1.0000
  H   H50       1.0  0.07569132440801231  0.7778528176594149  0.7229548620665509  1.0000
  H   H51       1.0  0.048602438073217284  0.7768501770670468  0.27753015963492084  1.0000
  H   H52       1.0  0.10323963666525039  0.22306823984659024  0.7223702143580155  1.0000
  H   H53       1.0  0.5756904961443609  0.7229473064796466  0.777855189468795  1.0000
  H   H54       1.0  0.07649344365400165  0.27714253770615466  0.22209418339838993  1.0000
  H   H55       1.0  0.603241935001975  0.7223702334764965  0.22306838363609666  1.0000
  H   H56       1.0  0.5486007049338041  0.27752817190135914  0.7768494984298825  1.0000
  H   H57       1.0  0.6115914229830323  0.29249228142663247  0.3509250734659588  1.0000
  H   H58       1.0  0.25507208472744475  0.7073629081838604  0.6492949565833043  1.0000
  H   H59       1.0  0.1542171537314728  0.8505983835628967  0.20733878380259796  1.0000
  H   H60       1.0  0.21222386954996628  0.14921801239847096  0.7927113847265658  1.0000
  H   H61       1.0  0.7550724137014054  0.6492882392943786  0.7073641877456892  1.0000
  H   H62       1.0  0.11159460194271272  0.3509212471467222  0.29249224128075463  1.0000
  H   H63       1.0  0.7122249229526997  0.7927089229967307  0.14922012189861533  1.0000
  H   H64       1.0  0.6542186636748539  0.20734241846290763  0.8506003794574184  1.0000
  H   H65       1.0  0.8296648178104462  0.017047569199633003  0.1526980409077226  1.0000
  H   H66       1.0  0.9991512566173028  0.9832030707928466  0.8470414243321825  1.0000
  H   H67       1.0  0.09660616986257507  0.6527269794611001  0.48276227133661104  1.0000
  H   H68       1.0  0.23244025430784626  0.3472027912195941  0.5171981980722576  1.0000
  H   H69       1.0  0.49914682828556034  0.8470283062512749  0.9832052098348284  1.0000
  H   H70       1.0  0.32967066105285164  0.15270027388397983  0.017044023749271314  1.0000
  H   H71       1.0  0.7324478588578032  0.5171943432767705  0.3472041520907537  1.0000
  H   H72       1.0  0.596606631090424  0.4827567590190186  0.6527281482809713  1.0000
  H   H73       1.0  0.788993047910331  0.9519913981549524  0.07756802716914284  1.0000
  H   H74       1.0  0.8181508427394423  0.04828455124324191  0.9221174888487552  1.0000
  H   H75       1.0  0.9908134519623458  0.5776479368705268  0.5480652396123699  1.0000
  H   H76       1.0  0.11676656307506754  0.4222434741576108  0.4519991095149294  1.0000
  H   H77       1.0  0.31814804732386637  0.9221080697980497  0.04828733966444796  1.0000
  H   H78       1.0  0.2889934465483817  0.07757289389607538  0.9519878802862108  1.0000
  H   H79       1.0  0.6167680116323596  0.45199966174122613  0.42224526407181884  1.0000
  H   H80       1.0  0.49081982638337934  0.5480617190948324  0.5776433843180158  1.0000
  H   H81       1.0  0.5545632472405302  0.1505660480875903  0.06598805527610103  1.0000
  H   H82       1.0  0.7709185651762028  0.8495589195338198  0.9343237319236974  1.0000
  H   H83       1.0  0.9546099146491327  0.5659085389257399  0.34975048416387716  1.0000
  H   H84       1.0  0.8704365024282195  0.43414157145979  0.6504510213875533  1.0000
  H   H85       1.0  0.27091649636683  0.9343259457902844  0.8495603006846721  1.0000
  H   H86       1.0  0.0545663351617094  0.0659918756936975  0.15056450654626727  1.0000
  H   H87       1.0  0.37044234184686065  0.6504547626939043  0.43413969333975894  1.0000
  H   H88       1.0  0.4546087730883386  0.3497525987187515  0.5659056251728812  1.0000
  H   H89       1.0  0.5819558099260931  0.22370193941438998  0.14493255057049487  1.0000
  H   H90       1.0  0.9504178475832674  0.776452219395303  0.8551628112691391  1.0000
  H   H91       1.0  0.055228873932939584  0.6447852150559543  0.2763353160112274  1.0000
  H   H92       1.0  0.9766205190602549  0.3552256783360619  0.7237358637538164  1.0000
  H   H93       1.0  0.4504106931726991  0.8551640249435123  0.7764550025531988  1.0000
  H   H94       1.0  0.08196880126832437  0.1449314754536601  0.2236994994602098  1.0000
  H   H95       1.0  0.4766305951486557  0.7237365264489951  0.3552228028863524  1.0000
  H   H96       1.0  0.5552245586410506  0.2763358083312609  0.6447839770464299  1.0000
  C   C1        1.0  0.8744505023543496  0.4078207254364656  0.44193056393620384  1.0000
  C   C2        1.0  0.724197557651827  0.5921891629736039  0.557809517154588  1.0000
  C   C3        1.0  0.5321802260306253  0.9417716817025411  0.09229586973737011  1.0000
  C   C4        1.0  0.5662221350907329  0.05803867227945863  0.9079772226903985  1.0000
  C   C5        1.0  0.22419611914594367  0.5578093015141479  0.5921883827010105  1.0000
  C   C6        1.0  0.37444914015297565  0.44193348524631665  0.40782056919611165  1.0000
  C   C7        1.0  0.06622194616279815  0.9079812484255357  0.05804038320852807  1.0000
  C   C8        1.0  0.03217133013443873  0.0923039070102405  0.9417785582262039  1.0000
  C   C9        1.0  0.8476623937410537  0.3656367534409809  0.4021894933348094  1.0000
  C   C10       1.0  0.6154299126739459  0.6344282398196484  0.5975609774248837  1.0000
  C   C11       1.0  0.4631504681672354  0.9020461288754972  0.13454607673842384  1.0000
  C   C12       1.0  0.4998069881021224  0.09775556807888822  0.8656651940598578  1.0000
  C   C13       1.0  0.11543035936399786  0.5975614018316691  0.6344246480196459  1.0000
  C   C14       1.0  0.34765886981049476  0.402192274330524  0.3656386531194186  1.0000
  C   C15       1.0  0.9998085944485664  0.8656705103982887  0.09775582669089282  1.0000
  C   C16       1.0  0.9631409272599923  0.1345544807423167  0.9020524174032829  1.0000
  C   C17       1.0  0.8898201474097647  0.36110879951745295  0.32184767954137083  1.0000
  C   C18       1.0  0.5728230537190341  0.6388034903971233  0.6779160555240151  1.0000
  C   C19       1.0  0.5008050017077607  0.8216915567932616  0.13898063382246312  1.0000
  C   C20       1.0  0.46144357072021347  0.1781010352029568  0.8612631049954371  1.0000
  C   C21       1.0  0.07281704817260237  0.6779171914459994  0.6388016684624702  1.0000
  C   C22       1.0  0.38981698181444113  0.32184915956992916  0.3611121357390416  1.0000
  C   C23       1.0  0.961443165638833  0.861268719556094  0.17810181223862287  1.0000
  C   C24       1.0  0.0007973948090623479  0.13898842432169536  0.8216977732449279  1.0000
  C   C25       1.0  0.8639864981401356  0.32329617777502057  0.2837570230861813  1.0000
  C   C26       1.0  0.47106046698240767  0.6766180578758423  0.7161294629212591  1.0000
  C   C27       1.0  0.4371927553643287  0.7835529071346556  0.17673127738755304  1.0000
  C   C28       1.0  0.3975078675931911  0.21618418454165317  0.8234509272544344  1.0000
  C   C29       1.0  0.9710561906396649  0.7161280617932633  0.6766179878777691  1.0000
  C   C30       1.0  0.36398306959093657  0.28375861197949337  0.3232977812057527  1.0000
  C   C31       1.0  0.8975080875953905  0.8234545934762921  0.2161853884335514  1.0000
  C   C32       1.0  0.9371822274243441  0.17674024632697893  0.7835601930065508  1.0000
  C   C33       1.0  0.7944205099527579  0.28966704819980293  0.3249253408450627  1.0000
  C   C34       1.0  0.40890220363498003  0.7104689764676239  0.675098104964867  1.0000
  C   C35       1.0  0.33397691404292107  0.8246670609718122  0.2104731079314917  1.0000
  C   C36       1.0  0.3692752691070709  0.17503048184220657  0.789658121950019  1.0000
  C   C37       1.0  0.9088996325894242  0.6750946408403421  0.7104690421464923  1.0000
  C   C38       1.0  0.29442017824344185  0.32492653873894267  0.28966836869408036  1.0000
  C   C39       1.0  0.8692720106507963  0.7896619042989811  0.17503326188058582  1.0000
  C   C40       1.0  0.833968437955562  0.2104807538166469  0.8246739877710993  1.0000
  C   C41       1.0  0.7507620758889572  0.2958714827864881  0.40550336683589444  1.0000
  C   C42       1.0  0.45191651830123175  0.7043748736200682  0.5944997310902664  1.0000
  C   C43       1.0  0.2965132195696183  0.9052471811937792  0.20444381244529808  1.0000
  C   C44       1.0  0.4064288229414996  0.0944429320283362  0.7956940743082299  1.0000
  C   C45       1.0  0.95191553019022  0.5944969108020787  0.7043722285213435  1.0000
  C   C46       1.0  0.2507625238271771  0.4055031019607327  0.2958715311261527  1.0000
  C   C47       1.0  0.90642794402018  0.7956970371165825  0.09444662737529093  1.0000
  C   C48       1.0  0.7965046025451271  0.204454844017036  0.9052545382165105  1.0000
  C   C49       1.0  0.7773833059372348  0.3330620951042889  0.4437843987252279  1.0000
  C   C50       1.0  0.554034808255764  0.6671632334615296  0.5560869448055853  1.0000
  C   C51       1.0  0.3602537921740419  0.9435948941109872  0.1672873740060297  1.0000
  C   C52       1.0  0.47132503989359975  0.05617069401532859  0.8329052767495709  1.0000
  C   C53       1.0  0.05403396347026032  0.556086198700868  0.6671615724897463  1.0000
  C   C54       1.0  0.27738547156454263  0.44378474487945857  0.33306056962943137  1.0000
  C   C55       1.0  0.9713243721299492  0.8329057597908402  0.056175339457695414  1.0000
  C   C56       1.0  0.8602446113173132  0.16729575577448233  0.9436022632524583  1.0000
  C   C57       1.0  0.7702065930898101  0.24797135562393186  0.2834290907275445  1.0000
  C   C58       1.0  0.30146572674704686  0.7521257297727287  0.7167092628844998  1.0000
  C   C59       1.0  0.26805880075179517  0.7831511055563426  0.25204522041525473  1.0000
  C   C60       1.0  0.303457647990825  0.2165689432003504  0.7480475195658016  1.0000
  C   C61       1.0  0.8014614216369933  0.7167043075804073  0.7521250178414502  1.0000
  C   C62       1.0  0.27021015709539126  0.2834295279310198  0.24797004609091286  1.0000
  C   C63       1.0  0.8034592923162119  0.7480494570826651  0.21657104341749533  1.0000
  C   C64       1.0  0.7680521518047458  0.2520519666442738  0.7831561643212908  1.0000
  C   C65       1.0  0.846409096453371  0.20063998126775567  0.22102863099091505  1.0000
  C   C66       1.0  0.2679322243981447  0.7993838957916778  0.779139447107731  1.0000
  C   C67       1.0  0.2968889366723316  0.7207810802653681  0.2993690359491054  1.0000
  C   C68       1.0  0.31734184275518357  0.27892432852854654  0.7007275988808033  1.0000
  C   C69       1.0  0.7679284170546267  0.7791346934098514  0.7993840340678843  1.0000
  C   C70       1.0  0.3464136706563608  0.22102986886618234  0.20063990641720147  1.0000
  C   C71       1.0  0.8173455684798724  0.700726954023608  0.2789245785621973  1.0000
  C   C72       1.0  0.7968847651624457  0.2993753329079353  0.7207851357433552  1.0000
  C   C73       1.0  0.8272339651593584  0.15970814934530614  0.1806651235935917  1.0000
  C   C74       1.0  0.16741742313637778  0.8402868985792936  0.8194900278623791  1.0000
  C   C75       1.0  0.2367530621944382  0.6804037554182755  0.34013934063341367  1.0000
  C   C76       1.0  0.2577155818227935  0.3193641374218785  0.6598920195807024  1.0000
  C   C77       1.0  0.6674145082233235  0.8194864385210111  0.84028759468017  1.0000
  C   C78       1.0  0.32724105993957403  0.18066652095079408  0.15970507147243754  1.0000
  C   C79       1.0  0.7577233514532865  0.6598889820957013  0.3193632060673083  1.0000
  C   C80       1.0  0.7367515787415967  0.34013969551907763  0.6804058371396805  1.0000
  C   C81       1.0  0.7293659666625061  0.16730804497424862  0.2006205913160883  1.0000
  C   C82       1.0  0.09714534944808394  0.8327492673054734  0.7994501185433406  1.0000
  C   C83       1.0  0.14652383174693262  0.7003888730578397  0.33247800211751866  1.0000
  C   C84       1.0  0.17974958985235637  0.2994723041364368  0.6675117197623877  1.0000
  C   C85       1.0  0.5971442756456611  0.7994421476606207  0.8327507477902215  1.0000
  C   C86       1.0  0.22937366643358098  0.20061975689196027  0.1673047515724733  1.0000
  C   C87       1.0  0.6797583866641475  0.6675060562198211  0.2994706363985032  1.0000
  C   C88       1.0  0.6465257475932374  0.33247407034381377  0.7003866026600462  1.0000
  C   C89       1.0  0.6525960791384547  0.21563059510815213  0.2619700896661286  1.0000
  C   C90       1.0  0.13011060177840492  0.7844001350486282  0.7381074501862627  1.0000
  C   C91       1.0  0.11815417403652612  0.7616906291261998  0.28412727736516524  1.0000
  C   C92       1.0  0.1642569005852009  0.23816406885190142  0.7158272508303581  1.0000
  C   C93       1.0  0.6301105077668934  0.7381005601738336  0.7843983992099837  1.0000
  C   C94       1.0  0.15260004994367177  0.2619692161657596  0.21562933660734973  1.0000
  C   C95       1.0  0.6642621862784566  0.7158228805784786  0.23816494186664267  1.0000
  C   C96       1.0  0.6181505515473374  0.2841260766889278  0.7616904243674584  1.0000
  C   C97       1.0  0.6725093031983747  0.2546897597770439  0.3038075285271944  1.0000
  C   C98       1.0  0.23096172033958592  0.7453329243616836  0.6962933133717398  1.0000
  C   C99       1.0  0.17717979073972864  0.8035056113987407  0.24518075147106805  1.0000
  C   C100      1.0  0.22605021440762127  0.196270977314903  0.7548489156672531  1.0000
  C   C101      1.0  0.7309595435872891  0.6962896944688026  0.7453314935365752  1.0000
  C   C102      1.0  0.1725139512210489  0.30380591561729636  0.2546887019265256  1.0000
  C   C103      1.0  0.7260515125626623  0.7548492526245525  0.19627443096554484  1.0000
  C   C104      1.0  0.6771754719580511  0.2451835287919194  0.8035067079678626  1.0000
  C   C105      1.0  0.70808878692106  0.1262337443619472  0.1563339513422619  1.0000
  C   C106      1.0  0.9904575613508727  0.8739261248234983  0.8436605290933554  1.0000
  C   C107      1.0  0.08402705875453616  0.6562567026181226  0.3736704832167064  1.0000
  C   C108      1.0  0.11429627412909574  0.3436776621697747  0.6263346616480233  1.0000
  C   C109      1.0  0.4904532314780069  0.8436548561558084  0.8739294837674265  1.0000
  C   C110      1.0  0.20809762975964924  0.15633438016438822  0.12623092598965258  1.0000
  C   C111      1.0  0.6143060944479402  0.6263313582277662  0.3436770351891881  1.0000
  C   C112      1.0  0.5840288010649387  0.37366625602477654  0.6562538881939162  1.0000
  C   C113      1.0  0.7672087683689528  0.048904700324641205  0.13553380093583917  1.0000
  C   C114      1.0  0.9514101057601958  0.9513183327599105  0.8643165730183995  1.0000
  C   C115      1.0  0.06589070695583388  0.6355678269844915  0.4510039857527487  1.0000
  C   C116      1.0  0.15277472799514388  0.3643504316634463  0.5489909462608864  1.0000
  C   C117      1.0  0.45140795565389136  0.8643065675401329  0.9513201488250117  1.0000
  C   C118      1.0  0.26721329806825617  0.13553623992162764  0.048902647589706284  1.0000
  C   C119      1.0  0.6527806572756204  0.5489899349086117  0.36435234016554563  1.0000
  C   C120      1.0  0.5658922443437006  0.4510001875414673  0.6355660912246818  1.0000
  C   C121      1.0  0.7452289575157492  0.012352998923105898  0.09326188087914024  1.0000
  C   C122      1.0  0.8505561898419743  0.9878903739221623  0.9065351569251092  1.0000
  C   C123      1.0  0.007378979818241651  0.5933087095888752  0.4877000067115205  1.0000
  C   C124      1.0  0.08859515721856329  0.4065793454653388  0.5123579558269781  1.0000
  C   C125      1.0  0.35055108862351797  0.9065290009544499  0.9878947166521072  1.0000
  C   C126      1.0  0.24523340358224022  0.09326409141154102  0.012351066826390372  1.0000
  C   C127      1.0  0.5885991683685031  0.5123591378466515  0.4065800404064247  1.0000
  C   C128      1.0  0.5073802121018645  0.4876978257921322  0.5933071365703099  1.0000
  C   C129      1.0  0.6131577486514458  0.12323554163123161  0.08813160608603003  1.0000
  C   C130      1.0  0.824311174661616  0.8769151015858087  0.9120136713698626  1.0000
  C   C131      1.0  0.9860221163224453  0.5880616916225633  0.37691439115972264  1.0000
  C   C132      1.0  0.9511976200177229  0.41195205798386786  0.6232012976437531  1.0000
  C   C133      1.0  0.32430574827029085  0.9120109380184404  0.8769195684488336  1.0000
  C   C134      1.0  0.11316322825837938  0.08813272804083991  0.12323566843760149  1.0000
  C   C135      1.0  0.4512046373210551  0.6232045884935005  0.411950065532821  1.0000
  C   C136      1.0  0.4860200234222774  0.37691530587735406  0.5880598110678861  1.0000
  C   C137      1.0  0.6289638361338064  0.1631969165744636  0.13184428761987016  1.0000
  C   C138      1.0  0.9237994161189744  0.8369715633257827  0.86819195763821  1.0000
  C   C139      1.0  0.04174682920011445  0.6317668006237157  0.3368376022755156  1.0000
  C   C140      1.0  0.010634838698827162  0.3682479779631862  0.6632272334956325  1.0000
  C   C141      1.0  0.4237951586775635  0.8681890716931734  0.8369720070120577  1.0000
  C   C142      1.0  0.1289714601469426  0.13184552619452464  0.163196235934258  1.0000
  C   C143      1.0  0.5106447080115901  0.6632274519191552  0.368246893675803  1.0000
  C   C144      1.0  0.5417459957426731  0.33683679547718276  0.6317642505425026  1.0000
  N   N1        1.0  0.6700718039607381  0.0487908585050434  0.06907698647889052  1.0000
  N   N2        1.0  0.7877142563816686  0.951376982992798  0.9309762973658591  1.0000
  N   N3        1.0  0.9686932839568173  0.5690200860525536  0.4513241174517758  1.0000
  N   N4        1.0  0.9892126846314538  0.43089482088834785  0.5487480558732755  1.0000
  N   N5        1.0  0.2877108521971933  0.9309703559153492  0.9513801622659485  1.0000
  N   N6        1.0  0.17007454374110148  0.0690791082069993  0.04879034413069409  1.0000
  N   N7        1.0  0.4892155490937925  0.548750515630445  0.4308922049141586  1.0000
  N   N8        1.0  0.4686949831593023  0.45132393899787365  0.569017937891644  1.0000
  O   O1        1.0  0.829455771062683  0.4185947485066849  0.5144107477442147  1.0000
  O   O2        1.0  0.7624630440344543  0.5813257499329154  0.48535455443256836  1.0000
  O   O3        1.0  0.4979355732439714  0.014250769312028  0.08157765707026952  1.0000
  O   O4        1.0  0.5937066815495908  0.9855804616963582  0.9187718461731575  1.0000
  O   O5        1.0  0.26246265248521883  0.4853537505968645  0.5813271122065514  1.0000
  O   O6        1.0  0.32945507363574217  0.5144110455108332  0.41858915637494226  1.0000
  O   O7        1.0  0.09370684810702551  0.9187763116296708  0.9855821193239078  1.0000
  O   O8        1.0  0.9979247081513519  0.0815866562637382  0.014258268393227547  1.0000
  O   O9        1.0  0.9399948770793857  0.4363141827508201  0.4025529682859172  1.0000
  O   O10       1.0  0.778812214741606  0.56372563178266  0.5972273419073487  1.0000
  O   O11       1.0  0.6262321544091876  0.9023794668184592  0.06372148256007647  1.0000
  O   O12       1.0  0.5922691434030868  0.09742923342879808  0.9365659459658886  1.0000
  O   O13       1.0  0.2788127835288987  0.5972262652370334  0.5637241256247661  1.0000
  O   O14       1.0  0.4399927460693148  0.402556209319755  0.4363147415437751  1.0000
  O   O15       1.0  0.09226778801577479  0.9365706041582842  0.09743092939232408  1.0000
  O   O16       1.0  0.12622357188784875  0.06372840152874198  0.9023836740586686  1.0000
