data_image0
_chemical_formula_structural       U6P12H68C36O58
_chemical_formula_sum              "U6 P12 H68 C36 O58"
_cell_length_a       9.87495306279423
_cell_length_b       10.230321583878512
_cell_length_c       25.846639443576812
_cell_angle_alpha    89.98198676523133
_cell_angle_beta     90.0234003782688
_cell_angle_gamma    104.69872697235569

_space_group_name_H-M_alt    "P 1"
_space_group_IT_number       1

loop_
  _space_group_symop_operation_xyz
  'x, y, z'

loop_
  _atom_site_type_symbol
  _atom_site_label
  _atom_site_symmetry_multiplicity
  _atom_site_fract_x
  _atom_site_fract_y
  _atom_site_fract_z
  _atom_site_occupancy
  U   U1        1.0  0.5308533329587136  0.6178667820504985  0.24874708155157071  1.0000
  U   U2        1.0  0.4691358241333815  0.3820134003209645  0.7488085079249559  1.0000
  U   U3        1.0  0.824321979378176  0.48731140190497513  0.41389495061547177  1.0000
  U   U4        1.0  0.17561393280654158  0.5127830722903326  0.9139132347008996  1.0000
  U   U5        1.0  0.1775692065657211  0.5162780158844171  0.5854104930088155  1.0000
  U   U6        1.0  0.8224324376494392  0.4836474601777354  0.08543607537764332  1.0000
  P   P1        1.0  0.37567396528847036  0.2663810545780835  0.6141665415084105  1.0000
  P   P2        1.0  0.6244639303778854  0.7337024841418867  0.11412386064194643  1.0000
  P   P3        1.0  0.6252864632009576  0.7388240792033756  0.3838553886716269  1.0000
  P   P4        1.0  0.3745790142781899  0.2612752007393766  0.8839070721267748  1.0000
  P   P5        1.0  0.49620984181510147  0.3279884683056196  0.3445494641481731  1.0000
  P   P6        1.0  0.5034478427617941  0.6721343525812102  0.8444770155907196  1.0000
  P   P7        1.0  0.5053531570870717  0.6746373056037385  0.6553023134133867  1.0000
  P   P8        1.0  0.4947519500841081  0.32530878352584125  0.1553454186759282  1.0000
  P   P9        1.0  0.017876819566275553  0.8179265909723911  0.4727930209663428  1.0000
  P   P10       1.0  0.9821154088182592  0.18218546836902755  0.9728297132344181  1.0000
  P   P11       1.0  0.9817727010164602  0.184390897628667  0.5266844957741057  1.0000
  P   P12       1.0  0.018218126541476892  0.8155757809574169  0.026694183776975  1.0000
  H   H1        1.0  0.5687623815113269  0.9363643716855918  0.2680784408662049  1.0000
  H   H2        1.0  0.43193357650118697  0.06175152558510891  0.7669026840359408  1.0000
  H   H3        1.0  0.7124531247885669  0.9030216531527058  0.2607276093129798  1.0000
  H   H4        1.0  0.2881135706305926  0.0957535576934845  0.7605940477413855  1.0000
  H   H5        1.0  0.06503963010039367  0.4070015660036148  0.471085713606442  1.0000
  H   H6        1.0  0.9349246233921988  0.5929706797865537  0.9711056332110389  1.0000
  H   H7        1.0  0.933857875827357  0.5945442505922074  0.528879283326802  1.0000
  H   H8        1.0  0.06611483970917933  0.4054919162028129  0.0289092481841209  1.0000
  H   H9        1.0  0.13123109342591727  0.5440539019475565  0.44536640002333183  1.0000
  H   H10       1.0  0.8687136323038585  0.4560416687320412  0.9452905770115053  1.0000
  H   H11       1.0  0.8696548744508094  0.4576944198666695  0.5552154549882574  1.0000
  H   H12       1.0  0.13028562046002176  0.5423354461421396  0.0552522646137135  1.0000
  H   H13       1.0  0.1686339284263028  0.12888539333108892  0.5997841155428959  1.0000
  H   H14       1.0  0.8315030334196294  0.8711713557422982  0.09971182844402193  1.0000
  H   H15       1.0  0.8321334392334804  0.8770398483697195  0.39910401782248783  1.0000
  H   H16       1.0  0.16776466111820548  0.12309105748416022  0.8991587344158065  1.0000
  H   H17       1.0  0.7824855291279533  0.20764828165629007  0.3757924494408442  1.0000
  H   H18       1.0  0.21746459640666424  0.7924725357347527  0.8758433549304669  1.0000
  H   H19       1.0  0.2132074888006912  0.796601249509834  0.6262075940327351  1.0000
  H   H20       1.0  0.7871421500591893  0.20324033252641974  0.1263517595975472  1.0000
  H   H21       1.0  0.9106285561261984  0.21875557470086449  0.4144532636750072  1.0000
  H   H22       1.0  0.08929648038449046  0.7813307368036037  0.9144599005680477  1.0000
  H   H23       1.0  0.08885497010685842  0.783800025875138  0.5857086467789544  1.0000
  H   H24       1.0  0.9112178049537435  0.21616722814516715  0.0857554129883624  1.0000
  H   H25       1.0  0.42308866871766776  0.1104725745763915  0.3465638140182109  1.0000
  H   H26       1.0  0.5761986804847367  0.8897145970442613  0.846412082313073  1.0000
  H   H27       1.0  0.5582468745777831  0.8943488592529079  0.6551677198853554  1.0000
  H   H28       1.0  0.4431214465531567  0.1055375233914333  0.15549752553946666  1.0000
  H   H29       1.0  0.034652494160930226  0.9558057191216205  0.5422225729025173  1.0000
  H   H30       1.0  0.965357514136883  0.04421516181221821  0.0422297777164857  1.0000
  H   H31       1.0  0.9656707623036667  0.04709196992509849  0.4571833843219296  1.0000
  H   H32       1.0  0.03434463881138327  0.9529760415130752  0.9572155652689818  1.0000
  H   H33       1.0  0.4680014104056482  0.3656323201579852  0.4861427968603779  1.0000
  H   H34       1.0  0.5319526477522061  0.6344664041393884  0.9860485736140634  1.0000
  H   H35       1.0  0.5331210682609466  0.6345146555176696  0.5130227453967464  1.0000
  H   H36       1.0  0.46678767579843583  0.3654747238937404  0.013076944033770101  1.0000
  H   H37       1.0  0.21787807078158747  0.06040707460675779  0.386604789157147  1.0000
  H   H38       1.0  0.7819056755621502  0.9398414192537461  0.8865188945649296  1.0000
  H   H39       1.0  0.7798902493166011  0.9401458751205498  0.6131342332255515  1.0000
  H   H40       1.0  0.22029064059474018  0.05969692753846801  0.1131992598286971  1.0000
  H   H41       1.0  0.34716644332653607  0.9511709919845546  0.5360554984239059  1.0000
  H   H42       1.0  0.6529168044343406  0.048863592261163505  0.0359735782630111  1.0000
  H   H43       1.0  0.6535828516554146  0.0490974280083378  0.4631788746651965  1.0000
  H   H44       1.0  0.3463460723347395  0.9509257804341402  0.9632359466979211  1.0000
  H   H45       1.0  0.5776245520038684  0.2901092385384629  0.562505334935345  1.0000
  H   H46       1.0  0.4224842365531528  0.7098238944066753  0.06239522840529331  1.0000
  H   H47       1.0  0.4241516155067301  0.7097758897486984  0.43634534051216184  1.0000
  H   H48       1.0  0.5757051571224706  0.29031149312888255  0.9364388999735811  1.0000
  H   H49       1.0  0.5169281652117235  0.12259994527290981  0.5866557994496304  1.0000
  H   H50       1.0  0.4830247195269378  0.8773312298462485  0.08653188154142552  1.0000
  H   H51       1.0  0.48163795663514714  0.8785869363824618  0.41335446097816236  1.0000
  H   H52       1.0  0.5182683862995175  0.12152281312994256  0.9134415971899589  1.0000
  H   H53       1.0  0.38045650604557574  0.43218516118903944  0.40640726140740213  1.0000
  H   H54       1.0  0.6194893819484192  0.5680037131447547  0.9063045650987436  1.0000
  H   H55       1.0  0.6185721086178333  0.5684068690116675  0.5933523630659963  1.0000
  H   H56       1.0  0.3812427678187688  0.43145597294226684  0.0934072888835615  1.0000
  H   H57       1.0  0.25947730370577904  0.31524146167225814  0.3672804717934498  1.0000
  H   H58       1.0  0.7402997754085374  0.6851123027296282  0.8671731862661147  1.0000
  H   H59       1.0  0.7411479759772561  0.6854646661130772  0.6319465130524267  1.0000
  H   H60       1.0  0.2588838075243202  0.3142404897013833  0.13200037838061013  1.0000
  H   H61       1.0  0.24243244600418024  0.7753636766761219  0.4733070064758423  1.0000
  H   H62       1.0  0.7575754485127604  0.22475180339316841  0.9732411875680784  1.0000
  H   H63       1.0  0.7565300218627227  0.2250520042043647  0.5262518240587611  1.0000
  H   H64       1.0  0.24344832163854585  0.7749009596448958  0.0263352630807248  1.0000
  H   H65       1.0  0.1930620510300471  0.8173091485470821  0.4098798730257159  1.0000
  H   H66       1.0  0.8070075288962925  0.18290215209542993  0.9098398362613056  1.0000
  H   H67       1.0  0.8061138969527943  0.1828527970127709  0.5896035451742634  1.0000
  H   H68       1.0  0.19389140730177698  0.8170591138781091  0.08966462230022643  1.0000
  C   C1        1.0  0.41366906634080186  0.1634163423589499  0.5169428369385045  1.0000
  C   C2        1.0  0.5863457504127962  0.836638467915563  0.016855343235135902  1.0000
  C   C3        1.0  0.5874647151480374  0.8368331373233532  0.482191747977339  1.0000
  C   C4        1.0  0.41245969537244054  0.16316667148994674  0.9822547121554877  1.0000
  C   C5        1.0  0.4134879313559736  0.2604817144406937  0.47888149672277797  1.0000
  C   C6        1.0  0.5864774642916257  0.7396236993890283  0.9787934799064077  1.0000
  C   C7        1.0  0.5875509771008751  0.7397162458766076  0.5202658515911623  1.0000
  C   C8        1.0  0.41239600572412627  0.2602346554764381  0.02032779751644401  1.0000
  C   C9        1.0  0.3461808311828634  0.22486942033381754  0.4314862085577929  1.0000
  C   C10       1.0  0.6536998807083093  0.775298388688519  0.9314000299422818  1.0000
  C   C11       1.0  0.6541495094214581  0.7756111687753632  0.5678065398462878  1.0000
  C   C12       1.0  0.34585947380507776  0.22428598253605264  0.06785247678156742  1.0000
  C   C13       1.0  0.2768675494121596  0.0891018738700993  0.4224575447491575  1.0000
  C   C14       1.0  0.7230158450317602  0.9110738020129858  0.9223752821788339  1.0000
  C   C15       1.0  0.7231398544354021  0.9113828719991305  0.5768750284760246  1.0000
  C   C16       1.0  0.2769036903122738  0.0885054403742558  0.0769186511853945  1.0000
  C   C17       1.0  0.27686885980354947  0.9899189455745797  0.4598771017300153  1.0000
  C   C18       1.0  0.7230942894937583  0.010203925038027303  0.9598006698490735  1.0000
  C   C19       1.0  0.7235565643217682  0.0104452428036197  0.5394040545163392  1.0000
  C   C20       1.0  0.27643433523802236  0.9894952077502812  0.039454148649078  1.0000
  C   C21       1.0  0.3458542440004777  0.028164441525213104  0.5069419850428787  1.0000
  C   C22       1.0  0.6541488708622011  0.9719011639726389  0.006857461599821603  1.0000
  C   C23       1.0  0.6550604226996269  0.9720733109155901  0.49225410010381415  1.0000
  C   C24       1.0  0.34488411100107186  0.027923595040434197  0.9923172223123232  1.0000
  C   C25       1.0  0.4842629405018144  0.20594943958570874  0.5678262170622618  1.0000
  C   C26       1.0  0.515798064856476  0.7940369837453146  0.0677325915989044  1.0000
  C   C27       1.0  0.5164656860923741  0.7952313779596806  0.43124482643514744  1.0000
  C   C28       1.0  0.48342409601512765  0.2048314678512214  0.9313179730475554  1.0000
  C   C29       1.0  0.3562549237596428  0.3297787637467167  0.3900398286128919  1.0000
  C   C30       1.0  0.6435876036075924  0.6704429694421777  0.8899427803385791  1.0000
  C   C31       1.0  0.6439712129196095  0.6711481305432657  0.6094532965237605  1.0000
  C   C32       1.0  0.35601571440115976  0.3286751569550077  0.10949933885552103  1.0000
  C   C33       1.0  0.19702059901867838  0.8454168250237686  0.4510636602935065  1.0000
  C   C34       1.0  0.8029994805374088  0.1547185106735895  0.9510187903289948  1.0000
  C   C35       1.0  0.8025153329238748  0.15521730373651374  0.548376037145438  1.0000
  C   C36       1.0  0.19746667153004432  0.8447185193661398  0.048432275267678904  1.0000
  O   O1        1.0  0.4621694679268201  0.3049931282067888  0.6626236345064953  1.0000
  O   O2        1.0  0.5381062839583209  0.6952224871549931  0.16260277889434602  1.0000
  O   O3        1.0  0.5403502959680893  0.7056392937937729  0.33472874507189243  1.0000
  O   O4        1.0  0.45948917962647323  0.2945391183559991  0.8347923078385406  1.0000
  O   O5        1.0  0.6177837805647499  0.8848043067553704  0.24670788966047041  1.0000
  O   O6        1.0  0.38266832012209306  0.1150489721359236  0.7464514215317878  1.0000
  O   O7        1.0  0.06455740135035627  0.4579313776540772  0.43812461780258627  1.0000
  O   O8        1.0  0.9354128710539412  0.542191862648508  0.938120814410411  1.0000
  O   O9        1.0  0.9358395523479927  0.5444126947314347  0.5618849400351351  1.0000
  O   O10       1.0  0.06413740814819849  0.4555922828044601  0.06191295056307672  1.0000
  O   O11       1.0  0.2456667837805071  0.14456538175121375  0.6266727547328942  1.0000
  O   O12       1.0  0.7544851707289054  0.8555273263584411  0.1265942031561949  1.0000
  O   O13       1.0  0.7550342969846325  0.8627567787801026  0.3721719532968067  1.0000
  O   O14       1.0  0.24480796869259785  0.13737587080509428  0.8722273109640643  1.0000
  O   O15       1.0  0.3294629665866182  0.38235455026837434  0.5870414750958518  1.0000
  O   O16       1.0  0.6706222443507812  0.6176544129964154  0.0870678012608792  1.0000
  O   O17       1.0  0.6725433484195663  0.6219765809797908  0.4095324346803935  1.0000
  O   O18       1.0  0.3273865506365397  0.3781519507779763  0.9095616555656036  1.0000
  O   O19       1.0  0.8724554939284984  0.26553891631287024  0.386437887033516  1.0000
  O   O20       1.0  0.12745803272975562  0.7346015119754983  0.8864474847960937  1.0000
  O   O21       1.0  0.12693528270700938  0.7363230386555343  0.6134656121074471  1.0000
  O   O22       1.0  0.8732213367088163  0.26363113379826325  0.11351360398872862  1.0000
  O   O23       1.0  0.45635685462864467  0.17818098227377996  0.3195695021275712  1.0000
  O   O24       1.0  0.5431301776181742  0.821928172316689  0.8194345999941675  1.0000
  O   O25       1.0  0.5456779073179021  0.8228541373611691  0.6811107597968586  1.0000
  O   O26       1.0  0.45460263544055113  0.1772454657450524  0.18128916025084857  1.0000
  O   O27       1.0  0.6341357209772694  0.34385049052378497  0.37404862868367433  1.0000
  O   O28       1.0  0.365667525301724  0.6563086213729221  0.8740199667726359  1.0000
  O   O29       1.0  0.3673116433808872  0.6587395530525625  0.6258364152229632  1.0000
  O   O30       1.0  0.6327351301983767  0.3411985178390324  0.1258872099644535  1.0000
  O   O31       1.0  0.49706248774133127  0.42794830892310637  0.3021799198903281  1.0000
  O   O32       1.0  0.5024414772448438  0.5721402846016089  0.8021279905682448  1.0000
  O   O33       1.0  0.5055288551733667  0.5756260664239932  0.6979918431718417  1.0000
  O   O34       1.0  0.4945041793928481  0.4244097141236907  0.19797141983455196  1.0000
  O   O35       1.0  0.9435358888440317  0.6677298627948005  0.4687922056870448  1.0000
  O   O36       1.0  0.05647238373019549  0.332385980183183  0.9688523161251084  1.0000
  O   O37       1.0  0.05511566571430387  0.33474839619356794  0.5308225712113456  1.0000
  O   O38       1.0  0.944833847477497  0.6652211704905112  0.0308260390427222  1.0000
  O   O39       1.0  0.947922692506232  0.9112556073599055  0.442634225964639  1.0000
  O   O40       1.0  0.052095352534287494  0.088886341389852  0.9427129725870105  1.0000
  O   O41       1.0  0.052628256255914586  0.0912974645279476  0.5565013293995094  1.0000
  O   O42       1.0  0.9473944869433594  0.9086756873745543  0.056480073296121716  1.0000
  O   O43       1.0  0.0249541082133363  0.8527832935455922  0.5325461624406601  1.0000
  O   O44       1.0  0.9749781103121863  0.1472427619911585  0.0325837466452796  1.0000
  O   O45       1.0  0.9750220032780276  0.14988716334708133  0.46682302651002067  1.0000
  O   O46       1.0  0.02497943448434366  0.8501597135639753  0.9668341334237954  1.0000
  O   O47       1.0  0.347918198148669  0.6158127203381414  0.249217626600938  1.0000
  O   O48       1.0  0.6521259917785186  0.3843161208575552  0.7493821879633275  1.0000
  O   O49       1.0  0.7174305215924831  0.6393678769026252  0.24903933854568552  1.0000
  O   O50       1.0  0.2825229191421812  0.3601803242063114  0.7489472727650508  1.0000
  O   O51       1.0  0.9092290040091767  0.5709833336406405  0.35714972729763156  1.0000
  O   O52       1.0  0.09061804489947889  0.4291552929452322  0.8571709643809982  1.0000
  O   O53       1.0  0.09513076374260268  0.4314846927281693  0.6423324057814384  1.0000
  O   O54       1.0  0.9049624954712098  0.5683985025322187  0.1423475427092455  1.0000
  O   O55       1.0  0.7582511674100089  0.40684472118622494  0.47517627779943444  1.0000
  O   O56       1.0  0.24179021992640054  0.593232236519107  0.9751882782612642  1.0000
  O   O57       1.0  0.24155200074071098  0.5972325529984133  0.5239498377071783  1.0000
  O   O58       1.0  0.7583533452033676  0.40271132062885345  0.023979772127489706  1.0000
