data_image0
_chemical_formula_structural       Al2H18C26S2N2O10
_chemical_formula_sum              "Al2 H18 C26 S2 N2 O10"
_cell_length_a       6.664490729638306
_cell_length_b       12.952303806742853
_cell_length_c       17.682290229791047
_cell_angle_alpha    76.95730320940318
_cell_angle_beta     80.54734467172466
_cell_angle_gamma    70.32456657556746

_space_group_name_H-M_alt    "P 1"
_space_group_IT_number       1

loop_
  _space_group_symop_operation_xyz
  'x, y, z'

loop_
  _atom_site_type_symbol
  _atom_site_label
  _atom_site_symmetry_multiplicity
  _atom_site_fract_x
  _atom_site_fract_y
  _atom_site_fract_z
  _atom_site_occupancy
  Al  Al1       1.0  0.5003175066132569  0.5016602835807477  0.4995186517295807  1.0000
  Al  Al2       1.0  0.00019774839639540766  0.5017974798119911  0.49976506567816886  1.0000
  H   H1        1.0  0.24616143632410106  0.43684960400479866  0.5969332002516838  1.0000
  H   H2        1.0  0.7550783506817852  0.5666350547568298  0.40241564271308766  1.0000
  H   H3        1.0  0.6268644728897927  0.5601449083226909  0.2625870280785848  1.0000
  H   H4        1.0  0.6874967650685732  0.5664920664370074  0.11874170592710702  1.0000
  H   H5        1.0  0.09994702940986146  0.4343854798043266  0.27450255133133794  1.0000
  H   H6        1.0  0.8996860680420724  0.5648350137596125  0.7272788945596887  1.0000
  H   H7        1.0  0.3753301117819774  0.43880635884278973  0.7350879412126333  1.0000
  H   H8        1.0  0.3124079472043277  0.4288255389818474  0.8792880776176589  1.0000
  H   H9        1.0  0.012024709903201336  0.3910050175586336  0.16145871407749013  1.0000
  H   H10       1.0  0.2397025377069681  0.343437342119806  0.09493465646324489  1.0000
  H   H11       1.0  0.06112534156751076  0.47906626570247823  0.07194712044286433  1.0000
  H   H12       1.0  0.936217685672837  0.5146860365091328  0.9302913073370507  1.0000
  H   H13       1.0  0.7575508033510306  0.6505906862090283  0.908600315874651  1.0000
  H   H14       1.0  0.9859535707028612  0.6047708961382269  0.8419423211485296  1.0000
  H   H15       1.0  0.5267151270088135  0.8817053377944151  0.4558178272366933  1.0000
  H   H16       1.0  0.4924309759941821  0.7535728841961742  0.4586103745769991  1.0000
  H   H17       1.0  0.4739340057474167  0.12159320982652838  0.5438046462313509  1.0000
  H   H18       1.0  0.5086223729246555  0.24971002497574799  0.5407743692343416  1.0000
  C   C1        1.0  0.8808638465538223  0.30233277638446765  0.5075052509074355  1.0000
  C   C2        1.0  0.6798085569323931  0.5053840348807697  0.63735519856278  1.0000
  C   C3        1.0  0.11984890988190242  0.7009010631358521  0.49178433891648143  1.0000
  C   C4        1.0  0.3211745516461732  0.49673739398026834  0.3620843631522278  1.0000
  C   C5        1.0  0.3586785841354753  0.4974429794406135  0.2767045179569792  1.0000
  C   C6        1.0  0.5266963111220805  0.5332872242088627  0.23325088794759108  1.0000
  C   C7        1.0  0.5613007828126653  0.5359555866040182  0.1534843854555348  1.0000
  C   C8        1.0  0.4354026234485104  0.4979372021231184  0.11603866880564344  1.0000
  C   C9        1.0  0.2671967863889648  0.4593857339837583  0.15992304020576856  1.0000
  C   C10       1.0  0.22927522521030136  0.46237609608559893  0.23952637614939223  1.0000
  C   C11       1.0  0.4791157008094873  0.4974480379457163  0.035105670576790315  1.0000
  C   C12       1.0  0.5179597028726659  0.4966257156903565  0.9651734509034142  1.0000
  C   C13       1.0  0.5629716314789377  0.4974496214019267  0.8841183539683116  1.0000
  C   C14       1.0  0.7313668576256022  0.5369091077472347  0.8413506432895589  1.0000
  C   C15       1.0  0.7703655959025184  0.5360204735323961  0.7614631199069848  1.0000
  C   C16       1.0  0.6419177119950417  0.5021397072532565  0.7230144307341322  1.0000
  C   C17       1.0  0.4743831134419949  0.4649512488927598  0.7654391281047241  1.0000
  C   C18       1.0  0.43851925512183937  0.4602511423286231  0.8454007765415386  1.0000
  C   C19       1.0  0.2170799452143297  0.8777740780418598  0.47814448550708044  1.0000
  C   C20       1.0  0.7837407123871145  0.125346688162999  0.52137549655464  1.0000
  C   C21       1.0  0.06976462733952352  0.8168883429768813  0.4956635493504677  1.0000
  C   C22       1.0  0.9310933689007044  0.18625551871979704  0.503738446983583  1.0000
  C   C23       1.0  0.891606263640888  0.012454650673596714  0.5120404759686821  1.0000
  C   C24       1.0  0.1092031039016419  0.9905911882169177  0.4876552759823627  1.0000
  C   C25       1.0  0.13726942082820415  0.4159170898685715  0.1205695086472929  1.0000
  C   C26       1.0  0.8604725686770391  0.5790156952203419  0.8821198631981916  1.0000
  S   S1        1.0  0.809931366634224  0.8962269114672524  0.5249406772144881  1.0000
  S   S2        1.0  0.19093759071657251  0.10682232843124946  0.4746218216966228  1.0000
  N   N1        1.0  0.4274510258812541  0.83788870444274  0.45374873591489984  1.0000
  N   N2        1.0  0.5733793079783852  0.16537268899922708  0.545749776906412  1.0000
  O   O1        1.0  0.680753228531387  0.35350411245816105  0.5238915633156439  1.0000
  O   O2        1.0  0.8710419293740871  0.4905286116254856  0.6054666775195232  1.0000
  O   O3        1.0  0.9707940908053274  0.6556780709554103  0.5033182957045172  1.0000
  O   O4        1.0  0.48478685834849244  0.4807967236241168  0.39705758144219777  1.0000
  O   O5        1.0  0.3197735741613098  0.6497232701676129  0.47503581653603544  1.0000
  O   O6        1.0  0.1297860610175476  0.5129905487506008  0.3940752147860992  1.0000
  O   O7        1.0  0.029757843683690097  0.34765126366189497  0.4962778366789281  1.0000
  O   O8        1.0  0.5165121794741478  0.5219054006815256  0.6020518694818479  1.0000
  O   O9        1.0  0.26570455012596733  0.44952208620284745  0.540363761653751  1.0000
  O   O10       1.0  0.7349083752419645  0.5539389839505161  0.4589778817383136  1.0000
