data_image0
_chemical_formula_structural       Ni4H48C32N32
_chemical_formula_sum              "Ni4 H48 C32 N32"
_cell_length_a       7.043983973
_cell_length_b       11.681526942
_cell_length_c       15.4448
_cell_angle_alpha    90.0
_cell_angle_beta     90.0
_cell_angle_gamma    90.0

_space_group_name_H-M_alt    "P 1"
_space_group_IT_number       1

loop_
  _space_group_symop_operation_xyz
  'x, y, z'

loop_
  _atom_site_type_symbol
  _atom_site_label
  _atom_site_symmetry_multiplicity
  _atom_site_fract_x
  _atom_site_fract_y
  _atom_site_fract_z
  _atom_site_occupancy
  Ni  Ni1       1.0  0.6237847810049217  0.524341554867938  0.6552807417383164  1.0000
  Ni  Ni2       1.0  0.8762356677213319  0.4756672674376148  0.15527685693566434  1.0000
  Ni  Ni3       1.0  0.37623453008387747  0.0243418520037508  0.8447173158603574  1.0000
  Ni  Ni4       1.0  0.12377370580937  0.9756626900394495  0.3447205531958985  1.0000
  H   H1        1.0  0.4898818641874811  0.4736666728136357  0.8090172744224586  1.0000
  H   H2        1.0  0.0101192734499733  0.5263258844949732  0.3090243965606518  1.0000
  H   H3        1.0  0.510124670040895  0.9736638075204099  0.6909697762353699  1.0000
  H   H4        1.0  0.9898815821737801  0.026341590575256604  0.19097948824200014  1.0000
  H   H5        1.0  0.3580885489899473  0.5765624676842833  0.7648373562623048  1.0000
  H   H6        1.0  0.1419225262056116  0.4234326577817313  0.2648418885320608  1.0000
  H   H7        1.0  0.6419293424476964  0.07655848455774361  0.7351600538692651  1.0000
  H   H8        1.0  0.8580811687204533  0.9234434893280439  0.23515875893504296  1.0000
  H   H9        1.0  0.1516230025641505  0.41980813162088293  0.7634576038537233  1.0000
  H   H10       1.0  0.3483909119337199  0.5801852817401993  0.2634634310577013  1.0000
  H   H11       1.0  0.8483877906177071  0.9198086905375362  0.7365359214751874  1.0000
  H   H12       1.0  0.6516142026435006  0.08020013176801652  0.23654304361338765  1.0000
  H   H13       1.0  0.3423616534682311  0.3294389525536729  0.7334682223143074  1.0000
  H   H14       1.0  0.15764516277385354  0.6705561729123489  0.23347858178804864  1.0000
  H   H15       1.0  0.6576406218066779  0.8294395114703336  0.7665220656790621  1.0000
  H   H16       1.0  0.842359951803374  0.1705633184679272  0.26653307261991427  1.0000
  H   H17       1.0  0.124835604875102  0.37814833813529714  0.6066695586864199  1.0000
  H   H18       1.0  0.3751669524135083  0.6218544918029637  0.10667538589039788  1.0000
  H   H19       1.0  0.8751538935393912  0.8781352002124265  0.8933239666424981  1.0000
  H   H20       1.0  0.6248268049544592  0.12185136472889013  0.393331088780691  1.0000
  H   H21       1.0  0.17585786747218182  0.524727634532212  0.6237458562105045  1.0000
  H   H22       1.0  0.3241489487699028  0.4752717711961623  0.12374585621050467  1.0000
  H   H23       1.0  0.8241486667562015  0.0247219393007327  0.8762547912566061  1.0000
  H   H24       1.0  0.6758575854584805  0.9752697619554027  0.37625220138816917  1.0000
  H   H25       1.0  0.4726075489042003  0.26407592220746784  0.6188736662177587  1.0000
  H   H26       1.0  0.027389329779779804  0.7359277637832662  0.11888402569149287  1.0000
  H   H27       1.0  0.5273677529987212  0.7640756250716549  0.8811179167098331  1.0000
  H   H28       1.0  0.9726143651462849  0.23592378065671943  0.3811302185848929  1.0000
  H   H29       1.0  0.5987676883091597  0.3110004383877225  0.525517973686938  1.0000
  H   H30       1.0  0.9012201084404694  0.6890058157604173  0.0255341603646499  1.0000
  H   H31       1.0  0.401206193942599  0.810995004937084  0.9744632497669129  1.0000
  H   H32       1.0  0.098766550671705  0.1889949842141121  0.47448785351703987  1.0000
  H   H33       1.0  0.3548602622580077  0.2700777060793911  0.5163168186056168  1.0000
  H   H34       1.0  0.1451366164259724  0.7299336843835675  0.016327178079350795  1.0000
  H   H35       1.0  0.6451249772030111  0.7700602878941681  0.9836721744535379  1.0000
  H   H36       1.0  0.8548528819885206  0.2299245649422019  0.4836831813943831  1.0000
  H   H37       1.0  0.5005846142631469  0.4825268158851658  0.4514587433958325  1.0000
  H   H38       1.0  0.9994102807422751  0.5174802943154475  0.9514697503366845  1.0000
  H   H39       1.0  0.4994063038025019  0.9825171021721744  0.04853348699886339  1.0000
  H   H40       1.0  0.0005721194164323  0.0174703188216156  0.5485425515383824  1.0000
  H   H41       1.0  0.3376569295325993  0.5785236838946092  0.5018828343520167  1.0000
  H   H42       1.0  0.1623356901979136  0.42148599446341006  0.0018899564902099995  1.0000
  H   H43       1.0  0.6623481850446282  0.07850343577112541  0.9981113384440048  1.0000
  H   H44       1.0  0.8376452903096379  0.9214702883831267  0.4981152232466569  1.0000
  H   H45       1.0  0.2542325489189494  0.4464947113418205  0.4564824406920138  1.0000
  H   H46       1.0  0.24576149046271922  0.5535201033310245  0.9564908577644287  1.0000
  H   H47       1.0  0.7457654674024923  0.9464747249991845  0.04350849476846719  1.0000
  H   H48       1.0  0.754220909695988  0.0535075596797796  0.5435188542422011  1.0000
  C   C1        1.0  0.8633324583516924  0.5866236523721753  0.48908694188335017  1.0000
  C   C2        1.0  0.6366624366537297  0.41337746546113874  0.9890869418833503  1.0000
  C   C3        1.0  0.13665278110933343  0.0866213813505752  0.0109117631824276  1.0000
  C   C4        1.0  0.36335261548159553  0.9133728880629732  0.5109124106495384  1.0000
  C   C5        1.0  0.8255952912855946  0.2872475504837979  0.7015092458303087  1.0000
  C   C6        1.0  0.6744123805802431  0.7127595597168153  0.2015254325080278  1.0000
  C   C7        1.0  0.1744013053846842  0.7872481094004586  0.798479099761735  1.0000
  C   C8        1.0  0.3256083501597118  0.21275985685262813  0.2984875168341431  1.0000
  C   C9        1.0  0.05091152980679681  0.1507106056204108  0.7384854449393998  1.0000
  C   C10       1.0  0.449099545388755  0.849298216685142  0.23849968921578574  1.0000
  C   C11       1.0  0.9490964240727422  0.6506983237500137  0.7615022531855402  1.0000
  C   C12       1.0  0.5509197657000372  0.349288241191303  0.2615080803895181  1.0000
  C   C13       1.0  0.2825929200903943  0.4154217187611239  0.7245797938464731  1.0000
  C   C14       1.0  0.21741815510516466  0.5845793990721972  0.22458691598466624  1.0000
  C   C15       1.0  0.7174207123937748  0.9154145732055454  0.7754111416140075  1.0000
  C   C16       1.0  0.7825869594720631  0.0845848325228289  0.2754182637522006  1.0000
  C   C17       1.0  0.23455476422618204  0.4380420492463415  0.6301072205531992  1.0000
  C   C18       1.0  0.2654577306205326  0.5619573564820328  0.13011563762560735  1.0000
  C   C19       1.0  0.7654517700022012  0.938036615795703  0.8698843623743926  1.0000
  C   C20       1.0  0.7345530625613179  0.0619602217752586  0.3698921319796965  1.0000
  C   C21       1.0  0.9653003223833425  0.7305560345297551  0.3989375064746739  1.0000
  C   C22       1.0  0.5347087691336512  0.2694442272510926  0.8989362115404516  1.0000
  C   C23       1.0  0.0346920153334622  0.23056146798039384  0.10105990365689617  1.0000
  C   C24       1.0  0.4653091223039923  0.7694447861677531  0.6010644359266519  1.0000
  C   C25       1.0  0.4608372211581725  0.31218863921702683  0.5583348440899198  1.0000
  C   C26       1.0  0.0391596575258149  0.6878176149311132  0.058340023826786984  1.0000
  C   C27       1.0  0.5391494379540092  0.812179781556509  0.941661918574539  1.0000
  C   C28       1.0  0.9608355194933085  0.18780763943728124  0.4416690407127318  1.0000
  C   C29       1.0  0.3722822212616634  0.488304314009774  0.4913459546255083  1.0000
  C   C30       1.0  0.1277132377711609  0.5117079325056579  0.9913504868952641  1.0000
  C   C31       1.0  0.6277086968039853  0.9882851837196043  0.008651455506061697  1.0000
  C   C32       1.0  0.8722691623875465  0.011692820697000204  0.5086553403087137  1.0000
  N   N1        1.0  0.797037588603267  0.5435025773191455  0.5509595462550505  1.0000
  N   N2        1.0  0.7029658243090966  0.4565028207765281  0.050960841189265686  1.0000
  N   N3        1.0  0.2029575884158561  0.0434985941925987  0.9490391588107341  1.0000
  N   N4        1.0  0.2970449688727612  0.9565008115357756  0.4490436910804901  1.0000
  N   N5        1.0  0.9401100322463805  0.623357719941474  0.4178312441727953  1.0000
  N   N6        1.0  0.559880603805567  0.3766485342066659  0.9178318916399064  1.0000
  N   N7        1.0  0.0598908233773727  0.1233605852346997  0.08216551849166358  1.0000
  N   N8        1.0  0.4401060553066075  0.8766465249659134  0.5821745830311824  1.0000
  N   N9        1.0  0.7501379929672967  0.3758258677823463  0.690255620014504  1.0000
  N   N10       1.0  0.7498767771543342  0.6241829545232066  0.19026727442246025  1.0000
  N   N11       1.0  0.24986570195877536  0.8758281388039465  0.8097327255775396  1.0000
  N   N12       1.0  0.2501510518414136  0.1241746911343142  0.3097398477157326  1.0000
  N   N13       1.0  0.8872152497726875  0.18318067583326336  0.70890526261266  1.0000
  N   N14       1.0  0.6127867434885204  0.8168298585772363  0.2089201543561572  1.0000
  N   N15       1.0  0.11276998968833143  0.6831829468548634  0.7910915000517988  1.0000
  N   N16       1.0  0.3872212103910186  0.3168275875556361  0.2910973272557768  1.0000
  N   N17       1.0  0.4245523572260979  0.500009975493839  0.753073526364858  1.0000
  N   N18       1.0  0.0754558786671424  0.49998686207712956  0.2530787061017321  1.0000
  N   N19       1.0  0.5754570163045969  5.992367292200001e-06  0.7469180565627267  1.0000
  N   N20       1.0  0.9245449769566109  0.9999959815184953  0.2469232362995939  1.0000
  N   N21       1.0  0.40656395741064  0.43178772989556086  0.5751521547705349  1.0000
  N   N22       1.0  0.0934329212733402  0.5682202363575186  0.0751579819745132  1.0000
  N   N23       1.0  0.5934297999573275  0.931778872235043  0.9248433129597016  1.0000
  N   N24       1.0  0.9065579967923086  0.06821282902109971  0.42485043509789466  1.0000
  N   N25       1.0  0.9931510387892788  0.8244290363594473  0.3742185071998349  1.0000
  N   N26       1.0  0.5068552134253963  0.17556865726398746  0.8742308090749018  1.0000
  N   N27       1.0  0.006825682764798601  0.3244336137576127  0.12577113332642395  1.0000
  N   N28       1.0  0.4931669369657144  0.6755675040757012  0.6257711333264238  1.0000
  N   N29       1.0  0.1943388862392581  0.10997877301304733  0.7627298508235751  1.0000
  N   N30       1.0  0.3056594120958849  0.890025769030153  0.2627350305604493  1.0000
  N   N31       1.0  0.8056676479891252  0.6099699153525293  0.7372643219724465  1.0000
  N   N32       1.0  0.6943457024813426  0.3900192177462003  0.23726755930798754  1.0000
