data_image0
_chemical_formula_structural       Zn2H24C32N20O8
_chemical_formula_sum              "Zn2 H24 C32 N20 O8"
_cell_length_a       8.578166177596588
_cell_length_b       9.773496837111999
_cell_length_c       12.03531373728389
_cell_angle_alpha    111.88737328380991
_cell_angle_beta     110.87762465035318
_cell_angle_gamma    90.00096294691048

_space_group_name_H-M_alt    "P 1"
_space_group_IT_number       1

loop_
  _space_group_symop_operation_xyz
  'x, y, z'

loop_
  _atom_site_type_symbol
  _atom_site_label
  _atom_site_symmetry_multiplicity
  _atom_site_fract_x
  _atom_site_fract_y
  _atom_site_fract_z
  _atom_site_occupancy
  Zn  Zn1       1.0  0.45332533316682333  0.7500325471436255  1.412413313062792e-05  1.0000
  Zn  Zn2       1.0  0.5466756210598476  0.24996607472078133  0.9999860651730401  1.0000
  H   H1        1.0  0.2918198767493934  0.26566580373163623  0.16002564511462233  1.0000
  H   H2        1.0  0.132024190891201  0.23423936467224146  0.8399831675776143  1.0000
  H   H3        1.0  0.7081825175078934  0.7343339351611676  0.8399752472933885  1.0000
  H   H4        1.0  0.8679748423758724  0.7657626053926024  0.16001836838400146  1.0000
  H   H5        1.0  0.09124837075643201  0.15481878384525777  0.050604927222522605  1.0000
  H   H6        1.0  0.0408879914396607  0.3451010827079415  0.9494301517211169  1.0000
  H   H7        1.0  0.9087513389785256  0.8451798306322972  0.9493932804925791  1.0000
  H   H8        1.0  0.9591122896996397  0.6549008885529375  0.05057170304879584  1.0000
  H   H9        1.0  0.5542359251118113  0.2589092919295482  0.5722939387308941  1.0000
  H   H10       1.0  0.9819111648646626  0.24084297593424261  0.42758218250783386  1.0000
  H   H11       1.0  0.4457641655593819  0.7410915604035541  0.4277067003540724  1.0000
  H   H12       1.0  0.018089981520390135  0.7591567617625331  0.5724183910918867  1.0000
  H   H13       1.0  0.6527674596404864  0.31718687379871824  0.8094644027686969  1.0000
  H   H14       1.0  0.843162472330306  0.1828193894252834  0.19046645671394197  1.0000
  H   H15       1.0  0.3472326310306996  0.6828139785343836  0.1905362363162766  1.0000
  H   H16       1.0  0.15683742618250565  0.8171803470754571  0.8095337980774816  1.0000
  H   H17       1.0  0.24951182247772857  0.033931332751493015  0.7535055994569434  1.0000
  H   H18       1.0  0.4960658720321688  0.46623095018602356  0.2466906548293366  1.0000
  H   H19       1.0  0.7504893239073169  0.9660684049452759  0.24649497414277036  1.0000
  H   H20       1.0  0.5039325864500341  0.5337676692863129  0.7533088968602542  1.0000
  H   H21       1.0  0.13150047405709844  0.9633990078812931  0.5133815319372276  1.0000
  H   H22       1.0  0.6183047845283696  0.5365562010730116  0.4867781904446815  1.0000
  H   H23       1.0  0.868499807082209  0.036602963379579  0.4866203228326783  1.0000
  H   H24       1.0  0.3816936739538335  0.463442418399332  0.5132213612449092  1.0000
  C   C1        1.0  0.2984411782213315  0.0390107237007271  0.03145359308739875  1.0000
  C   C2        1.0  0.2671061857604328  0.4609020330028174  0.9685214252470686  1.0000
  C   C3        1.0  0.7015579482774541  0.9609845556613833  0.9685467873126328  1.0000
  C   C4        1.0  0.7328925688775882  0.5391054995507503  0.03147755641702333  1.0000
  C   C5        1.0  0.2194011603774442  0.15381274867112182  0.1147797619722937  1.0000
  C   C6        1.0  0.10487512469497769  0.3460727449335508  0.8852269374250668  1.0000
  C   C7        1.0  0.7805994095324778  0.8461836415285618  0.8852196587467915  1.0000
  C   C8        1.0  0.8951249676664688  0.6539281043041428  0.11477287026851006  1.0000
  C   C9        1.0  0.2577823525557434  0.0862725307020256  0.387442442185595  1.0000
  C   C10       1.0  0.8705055096027364  0.41354294118541907  0.6125444617734885  1.0000
  C   C11       1.0  0.7422164902432086  0.9137283204350409  0.6125578780910885  1.0000
  C   C12       1.0  0.129494388910075  0.5864567953153212  0.38745579301793487  1.0000
  C   C13       1.0  0.3314827065216194  0.10925913626547872  0.523751850393154  1.0000
  C   C14       1.0  0.8078367123863827  0.3905976796554  0.47624343864963253  1.0000
  C   C15       1.0  0.6685163284357143  0.8907428307039494  0.47624885417707213  1.0000
  C   C16       1.0  0.19216299565831463  0.6094009379175631  0.5237556004568589  1.0000
  C   C17       1.0  0.4829230809341424  0.20650314158358898  0.6085510331350291  1.0000
  C   C18       1.0  0.8744215175710507  0.2933751639201958  0.3914037326188478  1.0000
  C   C19       1.0  0.5170759557134517  0.793498822290431  0.39144884004380043  1.0000
  C   C20       1.0  0.12557819385416746  0.7066234474619437  0.6085936437048576  1.0000
  C   C21       1.0  0.5380090508531481  0.23956474807356903  0.7403288246996027  1.0000
  C   C22       1.0  0.7976583851212382  0.2604561852127105  0.25966402044144843  1.0000
  C   C23       1.0  0.4619910415082984  0.7604361011641175  0.2596709829939741  1.0000
  C   C24       1.0  0.20234151170131298  0.7395435543834452  0.7403370657413718  1.0000
  C   C25       1.0  0.31196083326975094  0.08164040656672  0.7089172734336343  1.0000
  C   C26       1.0  0.6031001910576562  0.41844472266540583  0.29117828944895763  1.0000
  C   C27       1.0  0.6880390669333206  0.9183593268386046  0.2910821499663995  1.0000
  C   C28       1.0  0.3968997074551622  0.5815550138353345  0.7088219653424658  1.0000
  C   C29       1.0  0.24751009777018848  0.042415372181089615  0.5757469604932552  1.0000
  C   C30       1.0  0.6718875009376146  0.45754277467064275  0.4243560658639042  1.0000
  C   C31       1.0  0.7524885511801285  0.9575843662190242  0.42425380688127506  1.0000
  C   C32       1.0  0.3281125897335713  0.5424580776624597  0.5756445732210693  1.0000
  N   N1        1.0  0.32305830607798214  0.15792497120266796  0.33399783763270113  1.0000
  N   N2        1.0  0.9892580926834429  0.34189408058389154  0.665993473381704  1.0000
  N   N3        1.0  0.67694053672097  0.8420758799344058  0.6660024826439824  1.0000
  N   N4        1.0  0.010740750115509496  0.6581067705531822  0.3340068468949724  1.0000
  N   N5        1.0  0.20484236483648025  0.11386158953163064  0.2154009125826803  1.0000
  N   N6        1.0  0.9896300276181265  0.3860289855065774  0.7845747986311268  1.0000
  N   N7        1.0  0.795157537056852  0.8861381407782788  0.784597679425964  1.0000
  N   N8        1.0  0.010369870894692186  0.613970750994156  0.215425456160304  1.0000
  N   N9        1.0  0.0741750489538688  0.019187662458172407  0.19319072993824452  1.0000
  N   N10       1.0  0.8811721213997359  0.48065886239245253  0.8067933894673586  1.0000
  N   N11       1.0  0.9258248495589427  0.980812074042568  0.8068095248531861  1.0000
  N   N12       1.0  0.11882652924084167  0.5193408729122523  0.1932065465157748  1.0000
  N   N13       1.0  0.1056319362571969  0.0010675460869649005  0.3017884997699412  1.0000
  N   N14       1.0  0.804005631265973  0.4987707014702991  0.6981566805532468  1.0000
  N   N15       1.0  0.8943667143833807  0.9989321892177402  0.6982114362131924  1.0000
  N   N16       1.0  0.1959930210648722  0.5012290307389905  0.3018424240384975  1.0000
  N   N17       1.0  0.45232489468563136  0.18145635545806021  0.7910194916199276  1.0000
  N   N18       1.0  0.6613150164527895  0.3186032724510284  0.20902344491880603  1.0000
  N   N19       1.0  0.5476776917300299  0.8185444992671052  0.208981785081626  1.0000
  N   N20       1.0  0.338684691591908  0.6813953451219351  0.7909755941876855  1.0000
  O   O1        1.0  0.29020750082875674  0.9104903293509494  0.03259295062170511  1.0000
  O   O2        1.0  0.2576120207881871  0.5894911610452597  0.9675362508265408  1.0000
  O   O3        1.0  0.7097952777452717  0.08951164120657752  0.9674087103733909  1.0000
  O   O4        1.0  0.7423887429703697  0.41050634189137014  0.032462722794697654  1.0000
  O   O5        1.0  0.3552693369062823  0.0806286113057411  0.9638696782290735  1.0000
  O   O6        1.0  0.3915492842569037  0.41926180736767554  0.0360381074979372  1.0000
  O   O7        1.0  0.6447341232064261  0.9193699943782646  0.03612616034533298  1.0000
  O   O8        1.0  0.608451668279507  0.5807368175921469  0.9639629131996231  1.0000
