data_image0
_chemical_formula_structural       Zn4H32C24Br8N8
_chemical_formula_sum              "Zn4 H32 C24 Br8 N8"
_cell_length_a       6.14019617704506
_cell_length_b       10.353350087127481
_cell_length_c       14.240429921065266
_cell_angle_alpha    89.99965527755094
_cell_angle_beta     90.00005491234771
_cell_angle_gamma    90.00044307482295

_space_group_name_H-M_alt    "P 1"
_space_group_IT_number       1

loop_
  _space_group_symop_operation_xyz
  'x, y, z'

loop_
  _atom_site_type_symbol
  _atom_site_label
  _atom_site_symmetry_multiplicity
  _atom_site_fract_x
  _atom_site_fract_y
  _atom_site_fract_z
  _atom_site_occupancy
  Zn  Zn1       1.0  0.38188254292306567  0.25000678854250685  0.49662989534027696  1.0000
  Zn  Zn2       1.0  0.11812287959983075  0.7499978580021394  0.9966269889558178  1.0000
  Zn  Zn3       1.0  0.6181030717857892  0.750004874887104  0.5033723160110597  1.0000
  Zn  Zn4       1.0  0.8818953072500972  0.24999835158606498  0.0033703068540376  1.0000
  H   H1        1.0  0.09520018090346838  0.37326437876052426  0.36306337525542187  1.0000
  H   H2        1.0  0.4048000438914271  0.626733637728684  0.8630618268576314  1.0000
  H   H3        1.0  0.9048163819958216  0.8732568665501507  0.6369319728286059  1.0000
  H   H4        1.0  0.5951888233017824  0.12674333132461876  0.1369296921733252  1.0000
  H   H5        1.0  0.9047903196355446  0.6267463188120532  0.6369381338730165  1.0000
  H   H6        1.0  0.5952051140685055  0.3732635376895389  0.136938277851506  1.0000
  H   H7        1.0  0.09520831932708518  0.12674320654517152  0.3630632162960481  1.0000
  H   H8        1.0  0.40479679134030266  0.8732606051922436  0.8630591769012312  1.0000
  H   H9        1.0  0.18146430539154318  0.5221984578548134  0.7242178906530512  1.0000
  H   H10       1.0  0.31851605181904563  0.4777900742872633  0.2242176615199796  1.0000
  H   H11       1.0  0.8185215480370046  0.02220415535140321  0.2757790047017536  1.0000
  H   H12       1.0  0.681477467069989  0.977806492619223  0.7757877592047393  1.0000
  H   H13       1.0  0.8185131661741278  0.47780161511954605  0.2757808095922769  1.0000
  H   H14       1.0  0.6814728199747717  0.5222003399860925  0.775785252104818  1.0000
  H   H15       1.0  0.18148360996755739  0.9778007470574296  0.72421548218243  1.0000
  H   H16       1.0  0.31853257680688774  0.022200341464653706  0.2242256877778814  1.0000
  H   H17       1.0  0.3920839672993564  0.43541084393142904  0.664698852768538  1.0000
  H   H18       1.0  0.10790439399717398  0.5645762453038757  0.1646960518020961  1.0000
  H   H19       1.0  0.6078959610473831  0.9354121962527561  0.3353053503191177  1.0000
  H   H20       1.0  0.892080392354373  0.06458347477979492  0.8353034656750538  1.0000
  H   H21       1.0  0.6078967614889308  0.5645882631649145  0.33530335860950794  1.0000
  H   H22       1.0  0.892097506681061  0.4354122372656448  0.8353047551515402  1.0000
  H   H23       1.0  0.39209779661990735  0.06458304737191874  0.6647010744259418  1.0000
  H   H24       1.0  0.10790359360944277  0.9354069394565844  0.1647057679826958  1.0000
  H   H25       1.0  0.1541676199906945  0.3538906449991047  0.7023734101031778  1.0000
  H   H26       1.0  0.3458061718116666  0.6461038617396543  0.2023766632144373  1.0000
  H   H27       1.0  0.8458242570194299  0.8538837215401007  0.2976248322674522  1.0000
  H   H28       1.0  0.6541943522955335  0.14610549791951402  0.7976295172090317  1.0000
  H   H29       1.0  0.8458082229928721  0.6461142573320589  0.2976238856792151  1.0000
  H   H30       1.0  0.6541875858106676  0.35388558668243064  0.7976241437354757  1.0000
  H   H31       1.0  0.15418741530862684  0.14610186345882437  0.7023710591125579  1.0000
  H   H32       1.0  0.345838491995643  0.8538781553362614  0.20237831202122442  1.0000
  C   C1        1.0  0.050978914504341284  0.42997127450018285  0.4247650304543455  1.0000
  C   C2        1.0  0.44900191097636355  0.570021405820498  0.9247728782878469  1.0000
  C   C3        1.0  0.9490172278523088  0.9299683319821317  0.575230769908714  1.0000
  C   C4        1.0  0.5509617755600473  0.07002561141471383  0.0752406597123425  1.0000
  C   C5        1.0  0.9489904140059264  0.5700316961118761  0.5752231363931556  1.0000
  C   C6        1.0  0.5509951038718693  0.42996707671204604  0.07523424869874158  1.0000
  C   C7        1.0  0.050996073188294085  0.07003174107017432  0.42476863256963787  1.0000
  C   C8        1.0  0.4490091816419123  0.9299841201765063  0.9247770006121598  1.0000
  C   C9        1.0  0.10815508659369748  0.47384544455670174  0.5821976919209035  1.0000
  C   C10       1.0  0.39184122519441894  0.5261490833358596  0.0821965762050283  1.0000
  C   C11       1.0  0.8918416371421287  0.9738454687035375  0.4178063417743516  1.0000
  C   C12       1.0  0.6081642240049234  0.026165944670403014  0.9178003017168308  1.0000
  C   C13       1.0  0.8918549571862113  0.5261478673599387  0.4178094350575989  1.0000
  C   C14       1.0  0.6081737043890808  0.47384036513688005  0.917803528523045  1.0000
  C   C15       1.0  0.10817654978065148  0.02616136545638171  0.5821930606900594  1.0000
  C   C16       1.0  0.3918783922540781  0.9738650363556618  0.08218997176129511  1.0000
  C   C17       1.0  0.21547893732975604  0.44544387734078594  0.6733481135276734  1.0000
  C   C18       1.0  0.28450618695006097  0.5545450725898818  0.17334683052907712  1.0000
  C   C19       1.0  0.7845222959648268  0.945450926911491  0.3266616631394257  1.0000
  C   C20       1.0  0.71551266742496  0.054567030367415705  0.8266365799364338  1.0000
  C   C21       1.0  0.784506677274251  0.5545523321624091  0.3266519911797516  1.0000
  C   C22       1.0  0.7154891992607799  0.44544051234634463  0.8266553808816468  1.0000
  C   C23       1.0  0.21550729126402496  0.05455590720782771  0.673353890524993  1.0000
  C   C24       1.0  0.2845413490149581  0.9454523603368733  0.1733284134338291  1.0000
  Br  Br1       1.0  0.6800864925874917  0.2500224849659319  0.6014090937891154  1.0000
  Br  Br2       1.0  0.8199072296293577  0.7499992537727282  0.1014083677498121  1.0000
  Br  Br3       1.0  0.31991215109357535  0.7500017348528022  0.3985839885992348  1.0000
  Br  Br4       1.0  0.1800848994249975  0.24999888753029617  0.8985812035647812  1.0000
  Br  Br5       1.0  0.5001310215164878  0.2500096423644821  0.33704274226198544  1.0000
  Br  Br6       1.0  0.9998632507713339  0.7499995366223261  0.8370434968086543  1.0000
  Br  Br7       1.0  0.49986110772621817  0.7500145773991921  0.662960171288951  1.0000
  Br  Br8       1.0  0.00013702134727819999  0.249996672905283  0.16295871457961647  1.0000
  N   N1        1.0  0.1578516444039977  0.4042712933124834  0.5047079192178643  1.0000
  N   N2        1.0  0.3421412292536985  0.5957248368175033  0.004711392933920399  1.0000
  N   N3        1.0  0.842139271570609  0.9042665933675811  0.49528939887143514  1.0000
  N   N4        1.0  0.6578521129028585  0.09573162724260703  0.9953006273278006  1.0000
  N   N5        1.0  0.8421258271733333  0.5957326431946657  0.4952788431771253  1.0000
  N   N6        1.0  0.6578639286527447  0.4042636457478253  0.99529222292432  1.0000
  N   N7        1.0  0.15785611468322708  0.09572671856501104  0.5047057902623635  1.0000
  N   N8        1.0  0.3421221014610082  0.904267479749649  0.0047233530546649  1.0000
