data_image0
_chemical_formula_structural       Nd2H14C16S2O18
_chemical_formula_sum              "Nd2 H14 C16 S2 O18"
_cell_length_a       6.404512447400985
_cell_length_b       8.76462725443223
_cell_length_c       10.703489173353537
_cell_angle_alpha    91.15791588735489
_cell_angle_beta     99.48121840028156
_cell_angle_gamma    107.55101633252434

_space_group_name_H-M_alt    "P 1"
_space_group_IT_number       1

loop_
  _space_group_symop_operation_xyz
  'x, y, z'

loop_
  _atom_site_type_symbol
  _atom_site_label
  _atom_site_symmetry_multiplicity
  _atom_site_fract_x
  _atom_site_fract_y
  _atom_site_fract_z
  _atom_site_occupancy
  Nd  Nd1       1.0  0.14806948623679972  0.23839410457338772  0.610307250700636  1.0000
  Nd  Nd2       1.0  0.8519333371961864  0.76160754702223  0.38969177855931036  1.0000
  H   H1        1.0  0.6189775994091988  0.41215249048211433  0.14225367231943406  1.0000
  H   H2        1.0  0.38102312830283586  0.5878479587714196  0.8577479332717174  1.0000
  H   H3        1.0  0.656669074543217  0.36029743991490903  0.9192814323836345  1.0000
  H   H4        1.0  0.3433300692044484  0.6397030071165376  0.08071908276838259  1.0000
  H   H5        1.0  0.17096719318900708  0.15028909771806548  0.05503703847713128  1.0000
  H   H6        1.0  0.829033534599688  0.8497113516472228  0.9449617642990873  1.0000
  H   H7        1.0  0.5366483182399405  0.08229257880997663  0.6787084356691152  1.0000
  H   H8        1.0  0.4633508255077246  0.9177078682214699  0.32129207948290167  1.0000
  H   H9        1.0  0.3164669205016537  0.948259986721304  0.6110876416485738  1.0000
  H   H10       1.0  0.6835332956071339  0.051739262635742  0.3889120250830445  1.0000
  H   H11       1.0  0.6559110057518109  0.34981957821948134  0.7135449590938663  1.0000
  H   H12       1.0  0.3440897220113329  0.6501808711085533  0.286454777953999  1.0000
  H   H13       1.0  0.5885185158365187  0.49982017471251783  0.6568114647932504  1.0000
  H   H14       1.0  0.4114806279111463  0.5001802723189215  0.3431890503587667  1.0000
  C   C1        1.0  0.01592157260544981  0.22587650574992324  0.19839779488680157  1.0000
  C   C2        1.0  0.9840812508019782  0.7741251458084477  0.8016021686447842  1.0000
  C   C3        1.0  0.8640337467831855  0.3046482745347988  0.2248035401099102  1.0000
  C   C4        1.0  0.1359685649443351  0.6953521770153231  0.7751972873770823  1.0000
  C   C5        1.0  0.7359037142798216  0.3508389966468286  0.12200649622411672  1.0000
  C   C6        1.0  0.26409859742214087  0.6491614548660465  0.8779952655345294  1.0000
  C   C7        1.0  0.7580051484028443  0.3222302345424454  0.9970196096695929  1.0000
  C   C8        1.0  0.24199501865353315  0.6777726124309781  0.002981046114903998  1.0000
  C   C9        1.0  0.9170065328826309  0.25074394419205953  0.9728686498258482  1.0000
  C   C10       1.0  0.08298734726645318  0.749255296127622  0.027130392235825706  1.0000
  C   C11       1.0  0.04422240977434912  0.2022153187856262  0.0741281639881635  1.0000
  C   C12       1.0  0.9557777573331379  0.7977875282622975  0.92587062325304  1.0000
  C   C13       1.0  0.8396547295851206  0.34903884198580926  0.35734375616418385  1.0000
  C   C14       1.0  0.1603459981780234  0.6509616073422324  0.6426559808836813  1.0000
  C   C15       1.0  0.9730804243464348  0.2349321164914642  0.8442801651273298  1.0000
  C   C16       1.0  0.026920303416709167  0.7650683328365775  0.15571957192052818  1.0000
  S   S1        1.0  0.2088006850427604  0.17415449872159175  0.31749142740635244  1.0000
  S   S2        1.0  0.7912000427203839  0.8258459506064428  0.6825083096415057  1.0000
  O   O1        1.0  0.08784822562532917  0.044549169916500396  0.3913576666542653  1.0000
  O   O2        1.0  0.9121525021378147  0.955451279411534  0.6086420703935929  1.0000
  O   O3        1.0  0.30915416980069926  0.31917724254420693  0.4081764025761813  1.0000
  O   O4        1.0  0.6908476302724579  0.6808220090349266  0.5918243545945713  1.0000
  O   O5        1.0  0.3635045182147678  0.12879758896589516  0.2520137828748473  1.0000
  O   O6        1.0  0.6364967702040331  0.8712004626422498  0.7479869039796723  1.0000
  O   O7        1.0  0.8406730336994955  0.24833297651736078  0.4420827858840823  1.0000
  O   O8        1.0  0.1593276940636486  0.7516674728106736  0.5579169511637757  1.0000
  O   O9        1.0  0.8194815375277356  0.4854733412214998  0.3771835256474744  1.0000
  O   O10       1.0  0.18051919020985716  0.5145271080692809  0.6228171456720303  1.0000
  O   O11       1.0  0.1548451297588116  0.20664241589003757  0.8375039105018374  1.0000
  O   O12       1.0  0.8451540140144117  0.7933580311786557  0.1624956703785401  1.0000
  O   O13       1.0  0.846462959635531  0.25296435840625275  0.7425754415765978  1.0000
  O   O14       1.0  0.15353567250888747  0.747034888728699  0.2574231347158857  1.0000
  O   O15       1.0  0.38486927574914637  0.06536585666063391  0.6334548215288861  1.0000
  O   O16       1.0  0.6151293563441557  0.9346333903998244  0.366545623306898  1.0000
  O   O17       1.0  0.532996882419738  0.3989524285861706  0.6979825234439048  1.0000
  O   O18       1.0  0.467004356972204  0.6010492206756057  0.30201821819184  1.0000
