data_image0
_chemical_formula_structural       Cd6H36C60N24
_chemical_formula_sum              "Cd6 H36 C60 N24"
_cell_length_a       15.670935017072658
_cell_length_b       15.670791052423766
_cell_length_c       15.670912916170225
_cell_angle_alpha    109.47101008375458
_cell_angle_beta     109.47192852227924
_cell_angle_gamma    109.47109443260328

_space_group_name_H-M_alt    "P 1"
_space_group_IT_number       1

loop_
  _space_group_symop_operation_xyz
  'x, y, z'

loop_
  _atom_site_type_symbol
  _atom_site_label
  _atom_site_symmetry_multiplicity
  _atom_site_fract_x
  _atom_site_fract_y
  _atom_site_fract_z
  _atom_site_occupancy
  Cd  Cd1       1.0  0.7499990276884319  0.49999978504472864  0.24999955597069587  1.0000
  Cd  Cd2       1.0  0.24999933267133664  0.500000075645879  0.7499995508803322  1.0000
  Cd  Cd3       1.0  0.4999996030331673  0.2500001944829506  0.7499985200249026  1.0000
  Cd  Cd4       1.0  0.24999893764721998  0.7499994485611553  0.49999804781126034  1.0000
  Cd  Cd5       1.0  0.7499992575574125  0.250001028515655  0.500000607812737  1.0000
  Cd  Cd6       1.0  0.49999795404067265  0.7499996444646087  0.249999497468643  1.0000
  H   H1        1.0  0.8711123163399463  0.6196408803750871  0.619640902108962  1.0000
  H   H2        1.0  0.7485278246642723  0.7485270645030087  0.12888869671983377  1.0000
  H   H3        1.0  0.38036194537747997  0.2514738678332833  4.777472710843567e-07  1.0000
  H   H4        1.0  0.12888853554783  0.7485269330642411  0.7485273927428152  1.0000
  H   H5        1.0  0.2514711911416825  4.835116556346161e-07  0.38035820755941063  1.0000
  H   H6        1.0  0.38035855972027127  0.9999994673237185  0.25147163618523666  1.0000
  H   H7        1.0  3.2083443806547575e-07  0.2514722753103626  0.3803598571573659  1.0000
  H   H8        1.0  0.2514714361322916  0.3803582272649706  2.8776757686799017e-07  1.0000
  H   H9        1.0  6.591505368119568e-07  0.3803579232499247  0.2514707141827159  1.0000
  H   H10       1.0  0.6196428373715435  0.6196426559140563  0.8711136941321981  1.0000
  H   H11       1.0  0.7485294967510184  0.12888560049626113  0.7485290863435379  1.0000
  H   H12       1.0  0.61964397680412  0.871114421395312  0.6196440148815512  1.0000
  H   H13       1.0  0.6500686204867705  0.23505175824303143  0.12606432865915448  1.0000
  H   H14       1.0  0.5849849615429648  0.4759955263863915  0.3499305118699212  1.0000
  H   H15       1.0  0.8739350221866358  0.524004676521372  0.10899018181898866  1.0000
  H   H16       1.0  0.3499302353823026  0.475994884319519  0.5849851432734211  1.0000
  H   H17       1.0  0.5240049862188343  0.10898870182658976  0.87393578148378  1.0000
  H   H18       1.0  0.41501557035927317  0.8910108453165436  0.7649464277724576  1.0000
  H   H19       1.0  0.8739357740320558  0.1089889792075596  0.5240048776092862  1.0000
  H   H20       1.0  0.764946583784443  0.8910113483074938  0.4150150726760843  1.0000
  H   H21       1.0  0.47599652703526374  0.5849834302877214  0.34993024240103665  1.0000
  H   H22       1.0  0.8910135337348281  0.41501714842426923  0.7649468665722096  1.0000
  H   H23       1.0  0.34993028600348447  0.5849838015464783  0.4759967437386265  1.0000
  H   H24       1.0  0.7649464289603145  0.415016655943795  0.8910131810012274  1.0000
  H   H25       1.0  0.5240052830110001  0.8739368163023258  0.10898944458209309  1.0000
  H   H26       1.0  0.10898924999308701  0.8739369415495447  0.5240055170971729  1.0000
  H   H27       1.0  0.6500684047104386  0.12606345740228164  0.23505227696691827  1.0000
  H   H28       1.0  0.2350517335617397  0.12606294452024264  0.6500677113515394  1.0000
  H   H29       1.0  0.4759957419039084  0.34993139107737664  0.5849818410874263  1.0000
  H   H30       1.0  0.5849819049200562  0.3499316453862917  0.47599487776828636  1.0000
  H   H31       1.0  0.12606390088028255  0.6500678993952675  0.2350500387610879  1.0000
  H   H32       1.0  0.23505070202722309  0.6500687918334408  0.1260637135723925  1.0000
  H   H33       1.0  0.8910124254148073  0.7649481901832687  0.41501684343460715  1.0000
  H   H34       1.0  0.4150181094496401  0.7649486523015412  0.8910130819050862  1.0000
  H   H35       1.0  0.12606371157288274  0.23505126094085688  0.650068531234993  1.0000
  H   H36       1.0  0.10899138721098463  0.5240061471435737  0.8739361783703783  1.0000
  C   C1        1.0  0.67871386083376  0.2629694282299155  0.2088288373825122  1.0000
  C   C2        1.0  0.5842571445337725  0.5301154570936646  0.3212860083794025  1.0000
  C   C3        1.0  0.7911696340012285  0.4698846072861897  0.054141918208486566  1.0000
  C   C4        1.0  0.32128544185425056  0.530115468925203  0.5842571022643384  1.0000
  C   C5        1.0  0.46988463408902703  0.05414080457241263  0.7911701625364813  1.0000
  C   C6        1.0  0.4157435336692926  0.9458589361219368  0.7370297681264262  1.0000
  C   C7        1.0  0.791170277934775  0.054141188405246635  0.469884439683689  1.0000
  C   C8        1.0  0.737029155763274  0.9458585166592571  0.4157429559264543  1.0000
  C   C9        1.0  0.5301162826551361  0.5842558584895131  0.32128510801558724  1.0000
  C   C10       1.0  0.9458603720063864  0.41574427271550013  0.7370298307561568  1.0000
  C   C11       1.0  0.32128507956429797  0.5842555023582677  0.5301157990413614  1.0000
  C   C12       1.0  0.7370293945274896  0.4157441421942354  0.9458600705600446  1.0000
  C   C13       1.0  0.469884685247358  0.7911712862920909  0.05414155845175359  1.0000
  C   C14       1.0  0.05414177799568876  0.7911713757564487  0.4698845446247333  1.0000
  C   C15       1.0  0.6787129686138939  0.20882892183384172  0.26296995369176557  1.0000
  C   C16       1.0  0.26297006136222467  0.20882901129820647  0.678712939864745  1.0000
  C   C17       1.0  0.5301160551758811  0.32128620826615867  0.584255528876433  1.0000
  C   C18       1.0  0.5842561639974734  0.32128623107960425  0.5301151260121131  1.0000
  C   C19       1.0  0.20882941929278329  0.6787136953142294  0.26296970493430644  1.0000
  C   C20       1.0  0.26296952811438234  0.6787137181276747  0.2088293020699865  1.0000
  C   C21       1.0  0.9458595869764822  0.7370306369812455  0.4157440124547875  1.0000
  C   C22       1.0  0.41574461092875464  0.7370302048139266  0.9458601620303424  1.0000
  C   C23       1.0  0.2088293863904909  0.2629695996033449  0.678713580075147  1.0000
  C   C24       1.0  0.05414233741364429  0.46988478588072996  0.791170814147982  1.0000
  C   C25       1.0  0.749243964281611  0.373605146379582  0.37360506616981576  1.0000
  C   C26       1.0  0.6243607665832654  0.6243616041703319  0.2507565616615678  1.0000
  C   C27       1.0  0.6263947609084398  0.3756395572764506  0.9999994959847527  1.0000
  C   C28       1.0  0.250755245999585  0.6243604257463177  0.6243593891690367  1.0000
  C   C29       1.0  0.37563908024829823  0.9999989637690448  0.6263945388789977  1.0000
  C   C30       1.0  0.6263945452580231  0.999999852603459  0.3756388432031201  1.0000
  C   C31       1.0  0.9999993742458528  0.3756382653702062  0.6263943028743455  1.0000
  C   C32       1.0  0.3756390931564584  0.626395787941398  5.413747388419164e-07  1.0000
  C   C33       1.0  0.9999988640557973  0.6263948352973473  0.3756376362986416  1.0000
  C   C34       1.0  0.3736042400757071  0.37360491199078893  0.7492430778504797  1.0000
  C   C35       1.0  0.6243616225931133  0.2507559031462563  0.6243594585357639  1.0000
  C   C36       1.0  0.373603419397078  0.7492434336476066  0.37360542122173257  1.0000
  C   C37       1.0  0.7965882706641096  0.467705942049243  0.46770489477258087  1.0000
  C   C38       1.0  0.6711165537266695  0.6711178624539045  0.2034138784418857  1.0000
  C   C39       1.0  0.5322958535946541  0.3288837354619149  0.9999993522155534  1.0000
  C   C40       1.0  0.20341101320423863  0.6711164523981311  0.67111551454758  1.0000
  C   C41       1.0  0.32888141190312564  0.9999985949455947  0.5322919666127531  1.0000
  C   C42       1.0  0.5322933978523067  0.9999989789027879  0.32888240644224004  1.0000
  C   C43       1.0  0.9999988198421549  0.3288817897051574  0.5322940742408591  1.0000
  C   C44       1.0  0.3288822353453398  0.5322933537081128  6.47683229703776e-07  1.0000
  C   C45       1.0  0.9999986027812185  0.5322914019244609  0.3288799965748979  1.0000
  C   C46       1.0  0.4677071008906495  0.46770822949962826  0.7965892535067453  1.0000
  C   C47       1.0  0.6711180333636761  0.2034099091107039  0.6711179133165999  1.0000
  C   C48       1.0  0.46770765729921493  0.7965870323337542  0.4677077803915778  1.0000
  C   C49       1.0  0.835980245360247  0.5484672479283362  0.5484671076687277  1.0000
  C   C50       1.0  0.7124869558783827  0.7124848690382777  0.1640201905996222  1.0000
  C   C51       1.0  0.4515353653841885  0.2875151109596104  1.0788506940930777e-06  1.0000
  C   C52       1.0  0.16402141690734587  0.7124853724966941  0.7124860594096916  1.0000
  C   C53       1.0  0.28751391594088477  0.9999996732438066  0.4515338864308589  1.0000
  C   C54       1.0  0.45153245685481375  0.9999989115452125  0.2875133711263161  1.0000
  C   C55       1.0  1.2887090861147414e-06  0.28751496309351415  0.4515356510817909  1.0000
  C   C56       1.0  0.2875143831234012  0.4515341885648497  0.9999998727782325  1.0000
  C   C57       1.0  0.9999993267511016  0.4515337871470778  0.2875136755721994  1.0000
  C   C58       1.0  0.5484655515900484  0.5484663988073777  0.8359802621566741  1.0000
  C   C59       1.0  0.7124863337062095  0.1640182950101093  0.7124864412603031  1.0000
  C   C60       1.0  0.5484669124823897  0.8359814433189073  0.5484691847499193  1.0000
  N   N1        1.0  0.7230915296713859  0.3666449462709452  0.2787829157364143  1.0000
  N   N2        1.0  0.6435545418088253  0.5556921017883951  0.2769088166705202  1.0000
  N   N3        1.0  0.7212154221174955  0.4443074927137403  0.08786162537155917  1.0000
  N   N4        1.0  0.27690742976300703  0.5556920029859925  0.6435540355545086  1.0000
  N   N5        1.0  0.44430803821984455  0.08786207923457584  0.7212158657257105  1.0000
  N   N6        1.0  0.356445704892806  0.9121371041195729  0.6333535968240936  1.0000
  N   N7        1.0  0.7212159849623561  0.08786255187860095  0.4443079734873903  1.0000
  N   N8        1.0  0.6333536516353176  0.9121375767635982  0.3564457045857735  1.0000
  N   N9        1.0  0.5556922086911837  0.6435543123552137  0.2769079231510503  1.0000
  N   N10       1.0  0.9121382489636075  0.35644613644969764  0.6333539964896884  1.0000
  N   N11       1.0  0.2769075231880435  0.6435535946259351  0.5556908942456218  1.0000
  N   N12       1.0  0.6333538108241683  0.3564464476259132  0.9121376057095673  1.0000
  N   N13       1.0  0.44430779400377657  0.7212170888241617  0.08786248853984792  1.0000
  N   N14       1.0  0.08786177397748657  0.7212165526951041  0.44430700162358505  1.0000
  N   N15       1.0  0.7230904073484724  0.2787831072779667  0.3666454189097052  1.0000
  N   N16       1.0  0.3666450254529678  0.278783209278167  0.7230905701238937  1.0000
  N   N17       1.0  0.5556924673717063  0.27690840844931586  0.6435535709210567  1.0000
  N   N18       1.0  0.643553661156318  0.2769081198549445  0.555692225565096  1.0000
  N   N19       1.0  0.27878482541702  0.7230914935154403  0.36664524289025024  1.0000
  N   N20       1.0  0.3666454028225985  0.7230913700873176  0.2787843487510243  1.0000
  N   N21       1.0  0.9121376820978995  0.6333545381693996  0.35644569116389835  1.0000
  N   N22       1.0  0.356446100501884  0.6333543984446308  0.9121382819795796  1.0000
  N   N23       1.0  0.27878327000931336  0.3666452159780533  0.7230912171837786  1.0000
  N   N24       1.0  0.08786188961929754  0.4443076997554415  0.7212162093931268  1.0000
