data_image0
_chemical_formula_structural       Mn3H48C66O24
_chemical_formula_sum              "Mn3 H48 C66 O24"
_cell_length_a       13.058944954382277
_cell_length_b       16.081956203942152
_cell_length_c       16.4343776954806
_cell_angle_alpha    108.84321930698742
_cell_angle_beta     102.09655673354322
_cell_angle_gamma    106.29233139387647

_space_group_name_H-M_alt    "P 1"
_space_group_IT_number       1

loop_
  _space_group_symop_operation_xyz
  'x, y, z'

loop_
  _atom_site_type_symbol
  _atom_site_label
  _atom_site_symmetry_multiplicity
  _atom_site_fract_x
  _atom_site_fract_y
  _atom_site_fract_z
  _atom_site_occupancy
  Mn  Mn1       1.0  0.19751419460879294  0.37237193591248274  0.40686511010999016  1.0000
  Mn  Mn2       1.0  0.8024897241959434  0.6276300614584541  0.5931317195649084  1.0000
  Mn  Mn3       1.0  0.4999955437667365  0.5000069962443872  0.5000055665749837  1.0000
  H   H1        1.0  0.31795320341181815  0.11743960195160949  0.8740967943852095  1.0000
  H   H2        1.0  0.45278988209319937  0.20217850770143286  0.9533421167984808  1.0000
  H   H3        1.0  0.5455425129921635  0.34658704984012445  0.2556408687383963  1.0000
  H   H4        1.0  0.5560472871911344  0.23827354769773007  0.11165323142730432  1.0000
  H   H5        1.0  0.20108497505344042  0.07220195201080055  0.02947569305815987  1.0000
  H   H6        1.0  0.555945872958105  0.2328732627186269  0.7192205676204676  1.0000
  H   H7        1.0  0.17821686160220893  0.6283228630102894  0.6270818173576056  1.0000
  H   H8        1.0  0.535755731765498  0.33075000489245093  0.6318666014838425  1.0000
  H   H9        1.0  0.6160253660923943  0.04864161785252459  0.8794775121215391  1.0000
  H   H10       1.0  0.5552000867380682  0.05291629650879768  0.9679823118990281  1.0000
  H   H11       1.0  0.5297507506327932  0.09227051571969717  0.7534494372066687  1.0000
  H   H12       1.0  0.5332187437581409  0.20027348318232888  0.8340690918259663  1.0000
  H   H13       1.0  0.24911790518154203  0.7974270623774156  0.7331169883845373  1.0000
  H   H14       1.0  0.7211112495848012  0.0678813746990699  0.03184101320484698  1.0000
  H   H15       1.0  0.4586006636685196  0.6863790712836387  0.5275135477491514  1.0000
  H   H16       1.0  0.5311445827815433  0.8571974557423018  0.6339875877514342  1.0000
  H   H17       1.0  0.8868143612078894  0.12777448549883985  0.17016611507411025  1.0000
  H   H18       1.0  0.3028998435486726  0.9608334008413023  0.7650299550941494  1.0000
  H   H19       1.0  0.3774591699735763  0.9347745121721683  0.8521635104866118  1.0000
  H   H20       1.0  0.19184862728214108  0.18097855480459651  0.17511638388565828  1.0000
  H   H21       1.0  0.7699753685668612  0.35660105791925634  0.06846908833963988  1.0000
  H   H22       1.0  0.9418852727649492  0.41512771333415793  0.2048806120795986  1.0000
  H   H23       1.0  0.19251894940262554  0.10473962944278266  0.6398914553027095  1.0000
  H   H24       1.0  0.17393485384847196  0.20312883533035375  0.5504498287528674  1.0000
  H   H25       1.0  0.6820567036212422  0.882567377457448  0.12591480204252278  1.0000
  H   H26       1.0  0.547222589409884  0.7978199824185307  0.046661184918399025  1.0000
  H   H27       1.0  0.45446582530305324  0.653419923956626  0.7443704537972874  1.0000
  H   H28       1.0  0.44396699031378256  0.7617327400015909  0.8883607323918876  1.0000
  H   H29       1.0  0.7989278513900968  0.9278043266842385  0.9705276716370715  1.0000
  H   H30       1.0  0.44404674513584286  0.7671173654799259  0.28076952960210355  1.0000
  H   H31       1.0  0.8217768840880879  0.3716741458738041  0.37292264076449994  1.0000
  H   H32       1.0  0.46423591293034855  0.6692420369819344  0.3681268114484622  1.0000
  H   H33       1.0  0.3839781048689159  0.9513575449454305  0.12051591949531103  1.0000
  H   H34       1.0  0.44480948398971515  0.9470843048213451  0.032014453208617455  1.0000
  H   H35       1.0  0.4702479587378362  0.9077286318375498  0.24654803166669817  1.0000
  H   H36       1.0  0.4667766745021709  0.7997235283211522  0.165926529689436  1.0000
  H   H37       1.0  0.7508805398001215  0.20256996354314075  0.2668888987803013  1.0000
  H   H38       1.0  0.2788914929483609  0.9321234532287545  0.9681637995687137  1.0000
  H   H39       1.0  0.5413857907920061  0.31361720080545996  0.4724821130752942  1.0000
  H   H40       1.0  0.4688471740160621  0.14279671215839324  0.3660107689542328  1.0000
  H   H41       1.0  0.11318158160306509  0.872231027915056  0.8298426005023312  1.0000
  H   H42       1.0  0.6970984677809753  0.03916503996502738  0.23497452579378109  1.0000
  H   H43       1.0  0.6225443092573072  0.0652267796450161  0.14784397540234548  1.0000
  H   H44       1.0  0.8081568387101753  0.8190269890907228  0.8248842571777426  1.0000
  H   H45       1.0  0.23003318666633282  0.6433952887516483  0.9315182596418334  1.0000
  H   H46       1.0  0.058117314002323894  0.5848764008592653  0.7951099548781141  1.0000
  H   H47       1.0  0.8074711204170626  0.8952488667053231  0.3601005757074203  1.0000
  H   H48       1.0  0.8260561816633468  0.7968617876549401  0.4495412093108156  1.0000
  C   C1        1.0  0.3632560246111324  0.3346908738154396  0.310610723143803  1.0000
  C   C2        1.0  0.40020030681476015  0.12605219643828036  0.9175136895949403  1.0000
  C   C3        1.0  0.47031695662661116  0.2869607164841311  0.20534564157085797  1.0000
  C   C4        1.0  0.47612856235290474  0.22665310124283164  0.12526125267041263  1.0000
  C   C5        1.0  0.37844255978543373  0.14956130476876683  0.06253482566940956  1.0000
  C   C6        1.0  0.27588890449073483  0.13237830691643637  0.07982534487302215  1.0000
  C   C7        1.0  0.4720434773393265  0.22640835708104123  0.6833800060967545  1.0000
  C   C8        1.0  0.37448975149229113  0.16409180718213887  0.6863442840094149  1.0000
  C   C9        1.0  0.7349361673131724  0.20949704452878845  0.04217354932825401  1.0000
  C   C10       1.0  0.3144694607641723  0.6465622879462881  0.5714231732981285  1.0000
  C   C11       1.0  0.25552387141141236  0.6786901712820135  0.6289409349634948  1.0000
  C   C12       1.0  0.46033175175251967  0.07616748450922728  0.8592464817844313  1.0000
  C   C13       1.0  0.46090460136033323  0.28096828217963576  0.6338191878681341  1.0000
  C   C14       1.0  0.5725710905255497  0.0853535160770136  0.9202783717519689  1.0000
  C   C15       1.0  0.48296747534827483  0.12407537914120328  0.7943691868170855  1.0000
  C   C16       1.0  0.2955065243864181  0.7738343429776928  0.6884850282089938  1.0000
  C   C17       1.0  0.7677559021873536  0.14391373608310687  0.06919308712078734  1.0000
  C   C18       1.0  0.39558399122354604  0.8372644147323454  0.6901056429532627  1.0000
  C   C19       1.0  0.41357006405605284  0.7116368840947728  0.5727167665052091  1.0000
  C   C20       1.0  0.45395635848186083  0.8061032634885024  0.6314495857978242  1.0000
  C   C21       1.0  0.8611469895903808  0.177319031450473  0.14672653402287478  1.0000
  C   C22       1.0  0.021588549801030865  0.3063369671196482  0.2781748361701516  1.0000
  C   C23       1.0  0.9241965253646781  0.2745941666713278  0.19595770989005942  1.0000
  C   C24       1.0  0.3679269634384638  0.27054108982855496  0.22358112673558841  1.0000
  C   C25       1.0  0.2774232859304816  0.5462516677230765  0.5109804793513104  1.0000
  C   C26       1.0  0.34482406344054073  0.33391980258667064  0.5359085529401779  1.0000
  C   C27       1.0  0.3539459070742268  0.27365782099339236  0.5865043557683334  1.0000
  C   C28       1.0  0.38728029499495153  0.9703812522141885  0.8055946556826539  1.0000
  C   C29       1.0  0.27096555697053754  0.19280106849942766  0.16037548266100285  1.0000
  C   C30       1.0  0.7975870171708124  0.30736319704261916  0.09106520769627477  1.0000
  C   C31       1.0  0.8924144238101942  0.3394411997147697  0.16667299008638972  1.0000
  C   C32       1.0  0.2667498819422391  0.15463292983839236  0.6373385955654027  1.0000
  C   C33       1.0  0.25685827704839426  0.20909892863035395  0.5880353645267176  1.0000
  C   C34       1.0  0.6367439023437241  0.6653146518334834  0.6893932108635139  1.0000
  C   C35       1.0  0.5998094604279558  0.8739526577425846  0.08249539252575733  1.0000
  C   C36       1.0  0.529691248800411  0.7130441318848922  0.794662559291211  1.0000
  C   C37       1.0  0.523885126734413  0.7733517669688155  0.8747485141804173  1.0000
  C   C38       1.0  0.621574273699714  0.8504435744679735  0.9374748815989301  1.0000
  C   C39       1.0  0.7241239081085167  0.8676279721776577  0.9201792345553764  1.0000
  C   C40       1.0  0.5279499182013934  0.7735822741231925  0.3166108354384247  1.0000
  C   C41       1.0  0.6255081889213514  0.8359002565429134  0.31364840239133657  1.0000
  C   C42       1.0  0.2650687179675231  0.7905035393658365  0.957820572003484  1.0000
  C   C43       1.0  0.6855189756668947  0.35343682532574405  0.4285791963093358  1.0000
  C   C44       1.0  0.7444680036262807  0.3213096627589493  0.37106347354566777  1.0000
  C   C45       1.0  0.5396672449047556  0.9238323729913841  0.14075369293970375  1.0000
  C   C46       1.0  0.5390925408401016  0.7190237791383108  0.36617457631976424  1.0000
  C   C47       1.0  0.42743455143548187  0.9146470714218748  0.0797183159921316  1.0000
  C   C48       1.0  0.5170285451739218  0.8759230514509041  0.20562941693351874  1.0000
  C   C49       1.0  0.7044901766725145  0.22616409341348728  0.3115228229863901  1.0000
  C   C50       1.0  0.23224188224018857  0.8560868237532799  0.9308034458962308  1.0000
  C   C51       1.0  0.6044126246383925  0.1627354351479083  0.3098965503991308  1.0000
  C   C52       1.0  0.586416684613269  0.2883600977381704  0.4272809928034248  1.0000
  C   C53       1.0  0.5460388230780778  0.19389162558017856  0.3685520245427154  1.0000
  C   C54       1.0  0.13884510830339283  0.8226829254243453  0.853273100394318  1.0000
  C   C55       1.0  0.978403835379396  0.6936656996985417  0.7218275040978097  1.0000
  C   C56       1.0  0.07580079659132362  0.7254070993046324  0.8040383551987841  1.0000
  C   C57       1.0  0.6320823759434403  0.7294644694942389  0.776424450624027  1.0000
  C   C58       1.0  0.7225577900493645  0.45374671074924305  0.48901916662433087  1.0000
  C   C59       1.0  0.6551726285649976  0.6660800450987805  0.4640869593797986  1.0000
  C   C60       1.0  0.646055505772942  0.7263385028164392  0.41348904809791504  1.0000
  C   C61       1.0  0.6127205653927844  0.029615780329081094  0.19440617602100463  1.0000
  C   C62       1.0  0.7290453788377816  0.8072044956375632  0.8396279391243265  1.0000
  C   C63       1.0  0.2024166697244353  0.6926380887887189  0.908924057195186  1.0000
  C   C64       1.0  0.10758548103079586  0.6605621973139861  0.8333181043819804  1.0000
  C   C65       1.0  0.7332475890777134  0.8453598402257609  0.3626542302737688  1.0000
  C   C66       1.0  0.7431387661107463  0.7908945465757282  0.41195395655135747  1.0000
  O   O1        1.0  0.4503342794121892  0.4078251276398887  0.36256919064358306  1.0000
  O   O2        1.0  0.6420415163031734  0.18439206526323196  0.9696158284322886  1.0000
  O   O3        1.0  0.3820956445718906  0.08666990506045377  0.9831618261349814  1.0000
  O   O4        1.0  0.4440133523445055  0.9311558274076217  0.746749765213323  1.0000
  O   O5        1.0  0.37581736870757243  0.11040564379091218  0.7357645154733061  1.0000
  O   O6        1.0  0.1833476636930342  0.48371884168318496  0.500954644767013  1.0000
  O   O7        1.0  0.26896700604446977  0.3083081930747155  0.3258327416300303  1.0000
  O   O8        1.0  0.33932048852987134  0.5179408155431627  0.46521898177860493  1.0000
  O   O9        1.0  0.4344832591901379  0.3880874263465371  0.5336506954348648  1.0000
  O   O10       1.0  0.029653636464487865  0.2545886254955433  0.3215346823502684  1.0000
  O   O11       1.0  0.1024369687353328  0.3890389929349922  0.3069392559280287  1.0000
  O   O12       1.0  0.24399590070316177  0.3266615243710119  0.4968295522324835  1.0000
  O   O13       1.0  0.5496578092079715  0.5921874503749364  0.6374361973303234  1.0000
  O   O14       1.0  0.3579667806793834  0.8156056998849478  0.030381045870775794  1.0000
  O   O15       1.0  0.6179206058501591  0.9133406351160642  0.016846507591821953  1.0000
  O   O16       1.0  0.5559873405643074  0.06883908070556538  0.25325098164963566  1.0000
  O   O17       1.0  0.6241819506309055  0.889591382341933  0.2642336128719689  1.0000
  O   O18       1.0  0.8166440784764646  0.5162788669300582  0.49904664206853483  1.0000
  O   O19       1.0  0.7310282247543112  0.6916831542837796  0.6741629017477135  1.0000
  O   O20       1.0  0.66066996927335  0.48206254880935956  0.5347735061703813  1.0000
  O   O21       1.0  0.56551943488801  0.6119174029779796  0.46635836890477805  1.0000
  O   O22       1.0  0.9703332219551227  0.7454211033041743  0.6784731669218613  1.0000
  O   O23       1.0  0.8975723416105481  0.6109644379671619  0.6930540892592202  1.0000
  O   O24       1.0  0.7559974663651585  0.673332647944825  0.5031654341657369  1.0000
