data_image0
_chemical_formula_structural       Zn2H32C44N4O8
_chemical_formula_sum              "Zn2 H32 C44 N4 O8"
_cell_length_a       10.000865471838116
_cell_length_b       10.262727947654936
_cell_length_c       10.260264320672583
_cell_angle_alpha    66.02031106758743
_cell_angle_beta     73.37915643938253
_cell_angle_gamma    82.19082992551526

_space_group_name_H-M_alt    "P 1"
_space_group_IT_number       1

loop_
  _space_group_symop_operation_xyz
  'x, y, z'

loop_
  _atom_site_type_symbol
  _atom_site_label
  _atom_site_symmetry_multiplicity
  _atom_site_fract_x
  _atom_site_fract_y
  _atom_site_fract_z
  _atom_site_occupancy
  Zn  Zn1       1.0  0.8752433396916006  0.5226984191949455  0.6080593833690101  1.0000
  Zn  Zn2       1.0  0.12475268786647575  0.47730338994752225  0.3919387465782834  1.0000
  H   H1        1.0  0.3923456551770741  0.8088360318164759  0.3331513950574774  1.0000
  H   H2        1.0  0.6076453488158079  0.19115830599793068  0.6668570391895869  1.0000
  H   H3        1.0  0.5029915289439869  0.015123476652242092  0.33028585235148  1.0000
  H   H4        1.0  0.4970046735435928  0.9848708655082843  0.6697152682361038  1.0000
  H   H5        1.0  0.3700416482070067  0.15332083290851264  0.4776465187355259  1.0000
  H   H6        1.0  0.6299606651684185  0.8466799192829129  0.5223502712263084  1.0000
  H   H7        1.0  0.13021071995394348  0.08837750710040379  0.6279433666515359  1.0000
  H   H8        1.0  0.8697904407185105  0.9116285801792472  0.37205644915555774  1.0000
  H   H9        1.0  0.019806372927447993  0.8795010578490475  0.6328679822299181  1.0000
  H   H10       1.0  0.980191691910697  0.1205050314945026  0.36714342564366126  1.0000
  H   H11       1.0  0.34641875561501934  0.18781368346265026  0.6993525553954286  1.0000
  H   H12       1.0  0.6535847917203197  0.812178534768023  0.3006444374162245  1.0000
  H   H13       1.0  0.42721750361041433  0.9760682885367654  0.8958231832202446  1.0000
  H   H14       1.0  0.5727848878783772  0.02392926415083709  0.10417586194061818  1.0000
  H   H15       1.0  0.2731453911298019  0.8803029548646318  0.14869024713462417  1.0000
  H   H16       1.0  0.7268590467523522  0.11969673639381276  0.8513102749724838  1.0000
  H   H17       1.0  0.04613844180716599  0.0011807696317661003  0.2113558146652963  1.0000
  H   H18       1.0  0.9538659179616218  0.9988221211305089  0.7886424522427761  1.0000
  H   H19       1.0  0.965472841964036  0.21013561038855497  0.015387519001031155  1.0000
  H   H20       1.0  0.0345305991244231  0.789860873426349  0.9846058178812028  1.0000
  H   H21       1.0  0.866286527843954  0.6452989350041847  0.8179790401107212  1.0000
  H   H22       1.0  0.133715910481115  0.3546964836287144  0.1820198860227435  1.0000
  H   H23       1.0  0.6935139193045784  0.748415898154256  0.9857247484550131  1.0000
  H   H24       1.0  0.30648858471825235  0.2515773902117003  0.014279899627368363  1.0000
  H   H25       1.0  0.2624703321910928  0.703467006799073  0.935672972476894  1.0000
  H   H26       1.0  0.737530803491431  0.29654014719228167  0.06432641609587367  1.0000
  H   H27       1.0  0.1760263586183299  0.5966987379020807  0.7942877151916009  1.0000
  H   H28       1.0  0.8239739305275291  0.40330095189960957  0.2057217730304545  1.0000
  H   H29       1.0  0.3436729961453153  0.48468635968507806  0.6377424300727129  1.0000
  H   H30       1.0  0.656322116193479  0.5153111866654356  0.3622664648130041  1.0000
  H   H31       1.0  0.59885194001086  0.47829906555342194  0.6173603203816073  1.0000
  H   H32       1.0  0.40114720240174506  0.5217038170749717  0.3826394192096246  1.0000
  C   C1        1.0  0.1310868420057716  0.7120341035561992  0.48291351287891615  1.0000
  C   C2        1.0  0.8688809528945  0.28797300847899265  0.5171108768029242  1.0000
  C   C3        1.0  0.1992035183958691  0.832993708907054  0.4827891093881079  1.0000
  C   C4        1.0  0.8007946649460322  0.16700597385332117  0.5172151269308927  1.0000
  C   C5        1.0  0.33573069889131796  0.870653784043384  0.39749094149707526  1.0000
  C   C6        1.0  0.6642623296485863  0.12934375968487186  0.6025195159579583  1.0000
  C   C7        1.0  0.3969388274732424  0.9854298089047544  0.39593110743798143  1.0000
  C   C8        1.0  0.6030625581085687  0.014566677969540396  0.6040725534780549  1.0000
  C   C9        1.0  0.32246713254986037  0.06317639537063968  0.47923135271931744  1.0000
  C   C10       1.0  0.6775300323107274  0.9368222190512513  0.5207736053706499  1.0000
  C   C11       1.0  0.18702659473179747  0.025532440190516998  0.5650853279871414  1.0000
  C   C12       1.0  0.8129767122937324  0.9744715188131537  0.4349176737035023  1.0000
  C   C13       1.0  0.12576325774661967  0.9103195398083981  0.5675765788207061  1.0000
  C   C14       1.0  0.8742275901782575  0.0896822687757179  0.43243470576238263  1.0000
  C   C15       1.0  0.09650795821010409  0.326721590232644  0.7250366565005208  1.0000
  C   C16       1.0  0.9034746198995192  0.6732759340713769  0.27497187884056024  1.0000
  C   C17       1.0  0.15085840311689938  0.2107687858008162  0.8455284430172867  1.0000
  C   C18       1.0  0.8491481965187829  0.7892266368140143  0.1544654109854378  1.0000
  C   C19       1.0  0.2819826454658525  0.14593910816539327  0.8123051050358896  1.0000
  C   C20       1.0  0.7180187212544664  0.8540573749211331  0.1876927149038253  1.0000
  C   C21       1.0  0.3266912799797764  0.028645403157938187  0.9212788104519803  1.0000
  C   C22       1.0  0.6733132140106761  0.9713510841776339  0.07871715238179196  1.0000
  C   C23       1.0  0.24078165057952103  0.9750333984685328  0.06462405662833957  1.0000
  C   C24       1.0  0.7592207159193407  0.024965220930773996  0.9353745612981967  1.0000
  C   C25       1.0  0.11236933844072888  0.04233674331762669  0.0994203424091964  1.0000
  C   C26       1.0  0.8876372143586833  0.9576608133519001  0.9005736306209331  1.0000
  C   C27       1.0  0.06727540453194078  0.1595110134806319  0.9908108293870228  1.0000
  C   C28       1.0  0.9327259277677056  0.8404865344237249  0.009183642830208935  1.0000
  C   C29       1.0  0.7545885336978699  0.6454007581306058  0.8289678120096655  1.0000
  C   C30       1.0  0.24541387963726888  0.3545957272139971  0.17103068688947332  1.0000
  C   C31       1.0  0.6570453858419468  0.7047038218054809  0.9215923504407187  1.0000
  C   C32       1.0  0.34295905204020727  0.2952958694529642  0.07840817166638918  1.0000
  C   C33       1.0  0.4779611269811283  0.6535899306482873  0.85378363981458  1.0000
  C   C34       1.0  0.5220409896184464  0.3464193558680861  0.146210705768695  1.0000
  C   C35       1.0  0.3334696884980061  0.6555665069767115  0.8638980592858874  1.0000
  C   C36       1.0  0.6665324656658242  0.34444171535312756  0.1361006075159282  1.0000
  C   C37       1.0  0.2871499152036492  0.5960174670270106  0.7864353576292799  1.0000
  C   C38       1.0  0.7128492397832813  0.4039854181265595  0.21356827594616612  1.0000
  C   C39       1.0  0.38298451133977807  0.5324877791537191  0.6965916503069494  1.0000
  C   C40       1.0  0.6170167087432787  0.4675161765963977  0.3034119404569609  1.0000
  C   C41       1.0  0.5244287892000514  0.5293784351882848  0.6837586448427118  1.0000
  C   C42       1.0  0.4755692284843675  0.4706276446858552  0.31623816059006776  1.0000
  C   C43       1.0  0.5747055839675284  0.5902512046221985  0.7614198300545709  1.0000
  C   C44       1.0  0.4252954860172338  0.4097580796360986  0.2385738365692802  1.0000
  N   N1        1.0  0.7149514037724527  0.5898765703897196  0.7500351368452912  1.0000
  N   N2        1.0  0.2850518312681486  0.4101295176183015  0.24996019590432186  1.0000
  N   N3        1.0  0.521647362508773  0.7105077054356599  0.933444233215255  1.0000
  N   N4        1.0  0.47835487589686193  0.28949624689088427  0.0665512750436009  1.0000
  O   O1        1.0  0.010050724409396103  0.6782717674493667  0.5692385509000745  1.0000
  O   O2        1.0  0.9899588340128032  0.3217321994210849  0.43075976308262653  1.0000
  O   O3        1.0  0.19895189742107527  0.651884635932511  0.39555916526128937  1.0000
  O   O4        1.0  0.8010419273581774  0.34812036188470324  0.6044256166075996  1.0000
  O   O5        1.0  0.9788506120603343  0.38460334673624885  0.7623201721204823  1.0000
  O   O6        1.0  0.021157365028947994  0.6153760686229433  0.23766714041181564  1.0000
  O   O7        1.0  0.17150236019197956  0.35603907581827327  0.5930184819610389  1.0000
  O   O8        1.0  0.8285104001526874  0.6439595516419842  0.40696453515048614  1.0000
