data_image0
_chemical_formula_structural       ZnSiH12C24Br4N4F6
_chemical_formula_sum              "Zn1 Si1 H12 C24 Br4 N4 F6"
_cell_length_a       7.799402952610294
_cell_length_b       13.998187590222107
_cell_length_c       13.9979012406259
_cell_angle_alpha    89.94307168787277
_cell_angle_beta     91.32780079219589
_cell_angle_gamma    91.32651719595023

_space_group_name_H-M_alt    "P 1"
_space_group_IT_number       1

loop_
  _space_group_symop_operation_xyz
  'x, y, z'

loop_
  _atom_site_type_symbol
  _atom_site_label
  _atom_site_symmetry_multiplicity
  _atom_site_fract_x
  _atom_site_fract_y
  _atom_site_fract_z
  _atom_site_occupancy
  Zn  Zn1       1.0  0.500024117114798  0.4999989154071829  0.49999723462137535  1.0000
  Si  Si1       1.0  1.0272351126202496e-05  0.5000106904279421  0.500002424006013  1.0000
  H   H1        1.0  0.23833324681893947  0.659900658120442  0.4998600363419215  1.0000
  H   H2        1.0  0.2302341642927956  0.8370297138604813  0.4998881394284141  1.0000
  H   H3        1.0  0.773024428977614  0.6644595837412767  0.500010852145117  1.0000
  H   H4        1.0  0.22700161346870126  0.3355381120980709  0.4999648985370231  1.0000
  H   H5        1.0  0.7617025772951042  0.3400813600193828  0.500170081684381  1.0000
  H   H6        1.0  0.7697885316549959  0.16294791104571973  0.5001933355419085  1.0000
  H   H7        1.0  0.23832789824563605  0.499879687862112  0.6598985085488567  1.0000
  H   H8        1.0  0.2302204106232183  0.49989063525867294  0.837021828213651  1.0000
  H   H9        1.0  0.7730054788892463  0.5000407631107605  0.6644670855208549  1.0000
  H   H10       1.0  0.22704123009638272  0.4999777636533053  0.3355566570659648  1.0000
  H   H11       1.0  0.7617228620323647  0.5000702994165849  0.3400802798482162  1.0000
  H   H12       1.0  0.7697734666663439  0.5000489885288601  0.16294516663966627  1.0000
  C   C1        1.0  0.3567567359155106  0.7025420778607272  0.4998962037112521  1.0000
  C   C2        1.0  0.35273697939594956  0.8014206106958355  0.4999113736963212  1.0000
  C   C3        1.0  0.5068641080701826  0.8558958355240591  0.49995558428472026  1.0000
  C   C4        1.0  0.6604079239326737  0.8044314841696973  0.4999743975642591  1.0000
  C   C5        1.0  0.6552415380803043  0.7048729041779114  0.4999802788828946  1.0000
  C   C6        1.0  0.5043910042844146  0.9565846691684214  0.5000192478223655  1.0000
  C   C7        1.0  0.4956196525360924  0.043407156577366414  0.5000857199325923  1.0000
  C   C8        1.0  0.4931652685113266  0.14409397735840912  0.5001266429849027  1.0000
  C   C9        1.0  0.3396066892195081  0.19556182078350298  0.5000727253648736  1.0000
  C   C10       1.0  0.34478110247089705  0.29511689846960104  0.5000247453222998  1.0000
  C   C11       1.0  0.6432724816642124  0.297438472244977  0.5001260134784433  1.0000
  C   C12       1.0  0.6472957993039687  0.19856637438001457  0.500152301271875  1.0000
  C   C13       1.0  0.35675233406001894  0.49992014729993883  0.7025393803514748  1.0000
  C   C14       1.0  0.3527084484778841  0.4999201832080473  0.8014090592315245  1.0000
  C   C15       1.0  0.5068462891286956  0.4999270938439153  0.8558899911765752  1.0000
  C   C16       1.0  0.6603956689630978  0.4999493036108973  0.8044319690863805  1.0000
  C   C17       1.0  0.6552294573218236  0.5000030884535464  0.7048698596277635  1.0000
  C   C18       1.0  0.5043719436029905  0.49995217906288764  0.9565823206682895  1.0000
  C   C19       1.0  0.49560342195468376  0.4999930282964513  0.04341384444595062  1.0000
  C   C20       1.0  0.49314334901590956  0.5000296378141726  0.14410268885127667  1.0000
  C   C21       1.0  0.33961266936142215  0.5000246867610015  0.19557939962012946  1.0000
  C   C22       1.0  0.34480113166357296  0.4999989106443081  0.2951352106105746  1.0000
  C   C23       1.0  0.6432874614437555  0.5000540583040447  0.29744289911128163  1.0000
  C   C24       1.0  0.6472874690918504  0.5000423095313024  0.19857151333321357  1.0000
  Br  Br1       1.0  0.8749811414991557  0.8702141597074873  0.49993929048265795  1.0000
  Br  Br2       1.0  0.12504152474932081  0.12976203615477996  0.5001421849101464  1.0000
  Br  Br3       1.0  0.8749734278935224  0.4998171973907262  0.8702187910729012  1.0000
  Br  Br4       1.0  0.1250334700443787  0.500086054883795  0.12979402762034917  1.0000
  N   N1        1.0  0.505479394250287  0.6550067042851849  0.49995152895119355  1.0000
  N   N2        1.0  0.4945329998006757  0.344985176248244  0.5000519993808583  1.0000
  N   N3        1.0  0.5054575642551953  0.49998232239789797  0.655007380346554  1.0000
  N   N4        1.0  0.49458555414911143  0.5000169046204093  0.3449863408540069  1.0000
  F   F1        1.0  0.22712309995437616  0.49908215008673557  0.49906451143799313  1.0000
  F   F2        1.0  0.772902268915779  0.5009326824255782  0.5009233730303395  1.0000
  F   F3        1.0  0.9999943678978056  0.5857541332193678  0.41424772276778316  1.0000
  F   F4        1.0  1.0612157623803032e-05  0.41425842098688304  0.5857486044453071  1.0000
  F   F5        1.0  0.008377114428341801  0.5857317677650825  0.5857238909747978  1.0000
  F   F6        1.0  0.9916692823424145  0.41428962236841466  0.4142819873453903  1.0000
