data_image0
_chemical_formula_structural       U4H12C24N8O24
_chemical_formula_sum              "U4 H12 C24 N8 O24"
_cell_length_a       9.27683686597068
_cell_length_b       9.61189888913082
_cell_length_c       11.057576404004076
_cell_angle_alpha    89.99983445380647
_cell_angle_beta     102.90343022662353
_cell_angle_gamma    90.00059086747001

_space_group_name_H-M_alt    "P 1"
_space_group_IT_number       1

loop_
  _space_group_symop_operation_xyz
  'x, y, z'

loop_
  _atom_site_type_symbol
  _atom_site_label
  _atom_site_symmetry_multiplicity
  _atom_site_fract_x
  _atom_site_fract_y
  _atom_site_fract_z
  _atom_site_occupancy
  U   U1        1.0  0.7177446230778557  0.3198608266717855  0.8796986174389404  1.0000
  U   U2        1.0  0.28223266168716066  0.8198529282968535  0.6203178763635935  1.0000
  U   U3        1.0  0.2822536961206339  0.6801373501589937  0.12030380322404712  1.0000
  U   U4        1.0  0.7177712076477646  0.18015149083746002  0.3796765490022622  1.0000
  H   H1        1.0  0.9505710115279841  0.1134284858101537  0.11674239455935262  1.0000
  H   H2        1.0  0.0494288000697196  0.6134257429117228  0.38325599590383064  1.0000
  H   H3        1.0  0.0494273138795833  0.8865686506480017  0.883257314201032  1.0000
  H   H4        1.0  0.9505717391700372  0.38657243393529944  0.6167432266409424  1.0000
  H   H5        1.0  0.5918540872451813  0.7571607973822766  0.9383741069833607  1.0000
  H   H6        1.0  0.4081469145659113  0.25716566289265336  0.5616226072199526  1.0000
  H   H7        1.0  0.4081453440288456  0.24283425832667394  0.06162581065370182  1.0000
  H   H8        1.0  0.5918547264083216  0.7428325139564508  0.438378632136214  1.0000
  H   H9        1.0  0.9663587405818246  0.8684977437991108  0.20345708333642418  1.0000
  H   H10       1.0  0.0336493355377314  0.36849917963044737  0.29653498855007854  1.0000
  H   H11       1.0  0.03364179450376531  0.1314983522905848  0.7965439471441376  1.0000
  H   H12       1.0  0.9663534154626774  0.6315000376039281  0.703464651746714  1.0000
  C   C1        1.0  0.8702731685226367  0.03360313729206871  0.07776602399301419  1.0000
  C   C2        1.0  0.12972468643001633  0.533603136555243  0.42223219865789474  1.0000
  C   C3        1.0  0.12972515689047984  0.966395039543244  0.9222336847671075  1.0000
  C   C4        1.0  0.8702769607643787  0.46639608067554394  0.5777663287951357  1.0000
  C   C5        1.0  0.6615672461427947  0.9718232074718853  0.9333237248392836  1.0000
  C   C6        1.0  0.33842164227384336  0.47182632901860433  0.5666810111573002  1.0000
  C   C7        1.0  0.33842996717259405  0.028173928976642112  0.06667848694782919  1.0000
  C   C8        1.0  0.6615777869452799  0.5281718478202961  0.43331981044658363  1.0000
  C   C9        1.0  0.6724361177052032  0.8360706112906583  0.9798260286289423  1.0000
  C   C10       1.0  0.327563503002807  0.3360727400468448  0.5201747470673227  1.0000
  C   C11       1.0  0.3275622014877442  0.1639265251629638  0.02017639203431538  1.0000
  C   C12       1.0  0.6724370341709545  0.6639264771758205  0.47982537944481163  1.0000
  C   C13       1.0  0.5395919382454011  0.019997327718208203  0.8295226825609634  1.0000
  C   C14       1.0  0.46039874909611456  0.5199920579124679  0.6704925788037246  1.0000
  C   C15       1.0  0.4604063809586378  0.9800018894897136  0.17047973810175426  1.0000
  C   C16       1.0  0.5395973583528146  0.4800071592852646  0.3295094241067177  1.0000
  C   C17       1.0  0.8776390813354027  0.897871445358497  0.12524774727563684  1.0000
  C   C18       1.0  0.12236598606681778  0.3978714143693693  0.37474549080735653  1.0000
  C   C19       1.0  0.1223592419950776  0.10212465072100228  0.8747528654526421  1.0000
  C   C20       1.0  0.8776356631935797  0.6021267624857815  0.6252521326783197  1.0000
  C   C21       1.0  0.0326038268198587  0.4383245113437794  0.04130460155294462  1.0000
  C   C22       1.0  0.967399451696352  0.9383253584187512  0.4586918138377529  1.0000
  C   C23       1.0  0.967397797626404  0.5616819885104434  0.9587038695420705  1.0000
  C   C24       1.0  0.0326077394531197  0.061686343373963816  0.5413014302194059  1.0000
  N   N1        1.0  0.7615384597081983  0.07065933285100812  0.9820257660587689  1.0000
  N   N2        1.0  0.23845610804068681  0.57065966637429  0.5179801522269827  1.0000
  N   N3        1.0  0.23845875153566  0.9293378035959989  0.0179773496959683  1.0000
  N   N4        1.0  0.7615444291275324  0.4293385104712188  0.48201997428542154  1.0000
  N   N5        1.0  0.7805342335057759  0.7989842397361357  0.07672300282617783  1.0000
  N   N6        1.0  0.21946978618770166  0.29898812511245165  0.42326757422349476  1.0000
  N   N7        1.0  0.2194651977793427  0.2010128967271285  0.9232769148103519  1.0000
  N   N8        1.0  0.780534072756261  0.701010051751382  0.5767313709820814  1.0000
  O   O1        1.0  0.9518640995794171  0.3311057013149253  0.03383236419017519  1.0000
  O   O2        1.0  0.0481313781431894  0.8311068315268174  0.4661727967440471  1.0000
  O   O3        1.0  0.048130889568256  0.6688945562457745  0.9661748536495909  1.0000
  O   O4        1.0  0.9518747050405593  0.16890174912782643  0.5338211424053939  1.0000
  O   O5        1.0  0.6129007588465072  0.36767793860427384  0.9918237137882574  1.0000
  O   O6        1.0  0.3870969890929956  0.8676880919301695  0.5081757239262716  1.0000
  O   O7        1.0  0.38710087384156106  0.6323202382387693  0.008181141438399202  1.0000
  O   O8        1.0  0.6129035625870926  0.13231216568024004  0.4918180748122298  1.0000
  O   O9        1.0  0.8256919258258009  0.2628426273771113  0.7718494888191005  1.0000
  O   O10       1.0  0.1743124810572994  0.7628385091797297  0.7281360975129376  1.0000
  O   O11       1.0  0.17430751168502917  0.7371565898449929  0.2281477169140232  1.0000
  O   O12       1.0  0.8256913738156512  0.23717319258407343  0.2718646556244054  1.0000
  O   O13       1.0  0.1600130149633543  0.4559500542767836  0.10985752197092323  1.0000
  O   O14       1.0  0.8399960139946004  0.9559613183792733  0.3901254652487155  1.0000
  O   O15       1.0  0.8399786669315432  0.544054364784799  0.8901445494012352  1.0000
  O   O16       1.0  0.16001450099106762  0.04404830267896641  0.6098656935345306  1.0000
  O   O17       1.0  0.5407858961914442  0.14696605272817456  0.7988325259874359  1.0000
  O   O18       1.0  0.459206167230171  0.6469710729290341  0.7011727264142069  1.0000
  O   O19       1.0  0.45921241680351693  0.853034204852371  0.20117260657788452  1.0000
  O   O20       1.0  0.5407943803123842  0.35303022505549814  0.29882288025927306  1.0000
  O   O21       1.0  0.4399554325929884  0.9339079052423218  0.7805935450503301  1.0000
  O   O22       1.0  0.5600186504462954  0.4339095808647284  0.7194193426730566  1.0000
  O   O23       1.0  0.5600462208049423  0.0660892312386991  0.21940227050036756  1.0000
  O   O24       1.0  0.43997301898609453  0.5660885959248603  0.2805881525064536  1.0000
