data_image0
_chemical_formula_structural       Cu4H16C28N16O4
_chemical_formula_sum              "Cu4 H16 C28 N16 O4"
_cell_length_a       7.792994790164499
_cell_length_b       9.118679327812018
_cell_length_c       11.803217785665469
_cell_angle_alpha    102.09521829967423
_cell_angle_beta     89.99930124113544
_cell_angle_gamma    90.00037956242379

_space_group_name_H-M_alt    "P 1"
_space_group_IT_number       1

loop_
  _space_group_symop_operation_xyz
  'x, y, z'

loop_
  _atom_site_type_symbol
  _atom_site_label
  _atom_site_symmetry_multiplicity
  _atom_site_fract_x
  _atom_site_fract_y
  _atom_site_fract_z
  _atom_site_occupancy
  Cu  Cu1       1.0  0.4798181487077784  0.7438968546688757  0.4476081652519639  1.0000
  Cu  Cu2       1.0  0.9798593621188305  0.7561036619153754  0.05239272521134813  1.0000
  Cu  Cu3       1.0  0.5201374254759584  0.2561007014119951  0.5523929765777638  1.0000
  Cu  Cu4       1.0  0.020174487502998804  0.24389838043185819  0.9476091611272963  1.0000
  H   H1        1.0  0.5225000496280998  0.0900704152004224  0.7360938840208107  1.0000
  H   H2        1.0  0.022534053085763603  0.40992867530484034  0.7639082359142932  1.0000
  H   H3        1.0  0.4774734894544891  0.9099238193912388  0.2639007756139336  1.0000
  H   H4        1.0  0.9774985132908541  0.5900722147451064  0.236097695317433  1.0000
  H   H5        1.0  0.6252452811740667  0.0100895379188017  0.9399791195852173  1.0000
  H   H6        1.0  0.1252412879942995  0.4899133493940442  0.5600151698588505  1.0000
  H   H7        1.0  0.3747616212756028  0.9899114689881687  0.06001073360443604  1.0000
  H   H8        1.0  0.8747617647509357  0.5100909421109492  0.4399862427796037  1.0000
  H   H9        1.0  0.6325293296605993  0.7028859836282068  0.8866669372859944  1.0000
  H   H10       1.0  0.1325190286495541  0.7971141294459515  0.6133273779588819  1.0000
  H   H11       1.0  0.3674814223406456  0.29711273715449954  0.1133284670121952  1.0000
  H   H12       1.0  0.8674801744948155  0.20288793129627442  0.3866719698566712  1.0000
  H   H13       1.0  0.5567187539410057  0.49376269669325284  0.6787136063492197  1.0000
  H   H14       1.0  0.05673192219966689  0.006239902351971701  0.8212862760782613  1.0000
  H   H15       1.0  0.44326761714008006  0.5062348655969516  0.3212866891467883  1.0000
  H   H16       1.0  0.9432852457503175  0.9937621215061231  0.17871814897663546  1.0000
  C   C1        1.0  0.5438147177225973  0.9824049537951466  0.7588681552827976  1.0000
  C   C2        1.0  0.04384227337978789  0.5175936754608942  0.7411317186053381  1.0000
  C   C3        1.0  0.4561639541775265  0.017590402336622898  0.24112669053349828  1.0000
  C   C4        1.0  0.9561838769833457  0.48240609919943006  0.2588731802318378  1.0000
  C   C5        1.0  0.5932233971173914  0.9371148366373278  0.8578297543295862  1.0000
  C   C6        1.0  0.0932274493745879  0.5628873630293753  0.6421669215210812  1.0000
  C   C7        1.0  0.40677580607358266  0.06288390258273319  0.1421631113585917  1.0000
  C   C8        1.0  0.9067845857734084  0.43711355159430104  0.3578356249166106  1.0000
  C   C9        1.0  0.5976269933177463  0.7778683119575478  0.8302091127651038  1.0000
  C   C10       1.0  0.0976317635798409  0.7221316546503403  0.669788003756814  1.0000
  C   C11       1.0  0.4023734930458219  0.22212704421423277  0.16978573296910326  1.0000
  C   C12       1.0  0.902381554779666  0.2778692661285406  0.3302136964582303  1.0000
  C   C13       1.0  0.5520253919326805  0.734673869508555  0.7145879647235489  1.0000
  C   C14       1.0  0.05205019091685871  0.7653247837095378  0.7854126935980046  1.0000
  C   C15       1.0  0.44795327992336814  0.2653192127975855  0.2854107397801329  1.0000
  C   C16       1.0  0.9479772426655939  0.23467836169808726  0.21459191761913127  1.0000
  C   C17       1.0  0.5387533524646528  0.5920441825506658  0.6398068446985476  1.0000
  C   C18       1.0  0.038775311570823597  0.9079544219752055  0.8601939135210726  1.0000
  C   C19       1.0  0.46122531937584915  0.40794888744978414  0.36019355224077276  1.0000
  C   C20       1.0  0.9612469891940947  0.09204760189230399  0.1398105115145043  1.0000
  C   C21       1.0  0.1258050010595611  0.847050850083548  0.387417415818703  1.0000
  C   C22       1.0  0.6258417528771573  0.6529529093327398  0.11257926786118587  1.0000
  C   C23       1.0  0.8741454403585323  0.15295122287493262  0.6125802397446947  1.0000
  C   C24       1.0  0.374195946373895  0.3470401915402093  0.8874168977668973  1.0000
  C   C25       1.0  0.8322009868023769  0.8495736868168536  0.3851612007212566  1.0000
  C   C26       1.0  0.3322318765101997  0.6504363881603086  0.11484163036009681  1.0000
  C   C27       1.0  0.16775587061886912  0.1504317322869468  0.6148395520740805  1.0000
  C   C28       1.0  0.6678058227409379  0.34956342959113584  0.8851573449088548  1.0000
  N   N1        1.0  0.5050509559008346  0.5747095279465739  0.5288551646538977  1.0000
  N   N2        1.0  0.005078715280539802  0.9252878191200222  0.9711473534280302  1.0000
  N   N3        1.0  0.4949174503124567  0.42528802200498467  0.4711468233453644  1.0000
  N   N4        1.0  0.9949474350774211  0.07471307091815761  0.028858577827840293  1.0000
  N   N5        1.0  0.26444070298455796  0.8096454737409645  0.4095146273987567  1.0000
  N   N6        1.0  0.7644807133290641  0.6903587142640789  0.0904920137072338  1.0000
  N   N7        1.0  0.7355058887990611  0.19035993919116123  0.5904869716530357  1.0000
  N   N8        1.0  0.23555698584947038  0.30963656814179796  0.9095129865008289  1.0000
  N   N9        1.0  0.6909122559428766  0.8152095081779295  0.4035782527461719  1.0000
  N   N10       1.0  0.1909437471112199  0.6847944839146508  0.0964187871642466  1.0000
  N   N11       1.0  0.3090369022377429  0.1847880601968654  0.5964211966720541  1.0000
  N   N12       1.0  0.809090102554677  0.31520983225821914  0.9035792404870191  1.0000
  N   N13       1.0  0.9804101651409384  0.8971506836974754  0.358120211866634  1.0000
  N   N14       1.0  0.48044019389977427  0.6028643903256922  0.14188647966576443  1.0000
  N   N15       1.0  0.019537709859392297  0.1028569784512499  0.6418809133642469  1.0000
  N   N16       1.0  0.5195923725494184  0.39713767663057814  0.8581120218064129  1.0000
  O   O1        1.0  0.5183280655925415  0.8611716634817909  0.6708259328091443  1.0000
  O   O2        1.0  0.018365206035873896  0.6388257200019255  0.8291781777475861  1.0000
  O   O3        1.0  0.48164419023967747  0.1388225341904317  0.3291738041373762  1.0000
  O   O4        1.0  0.9816737763413032  0.36117739466264  0.17083066451520776  1.0000
