data_image0
_chemical_formula_structural       Sr2H26Au4C38N14O2
_chemical_formula_sum              "Sr2 H26 Au4 C38 N14 O2"
_cell_length_a       9.822198269700214
_cell_length_b       10.145501613727339
_cell_length_c       11.652795235174711
_cell_angle_alpha    96.67262886131948
_cell_angle_beta     92.39866099178332
_cell_angle_gamma    113.05080168731905

_space_group_name_H-M_alt    "P 1"
_space_group_IT_number       1

loop_
  _space_group_symop_operation_xyz
  'x, y, z'

loop_
  _atom_site_type_symbol
  _atom_site_label
  _atom_site_symmetry_multiplicity
  _atom_site_fract_x
  _atom_site_fract_y
  _atom_site_fract_z
  _atom_site_occupancy
  Sr  Sr1       1.0  0.5369498961152033  0.22700068777864857  0.7097418880528039  1.0000
  Sr  Sr2       1.0  0.4630507893766804  0.7730004059091087  0.2902578967995169  1.0000
  H   H1        1.0  0.5017603843502059  0.899726028185029  0.6059117852965841  1.0000
  H   H2        1.0  0.4982436825177318  0.1002782745733057  0.3940867048580258  1.0000
  H   H3        1.0  0.3494319171488414  0.9101699532256405  0.6098399488718371  1.0000
  H   H4        1.0  0.6505721648028101  0.0898343743915362  0.390161118740636  1.0000
  H   H5        1.0  0.8469209939864515  0.15804811059983592  0.7678820740042412  1.0000
  H   H6        1.0  0.15307653669525925  0.841955182829139  0.232116956017542  1.0000
  H   H7        1.0  0.0033539885410433855  0.1080951896713103  0.9173259071719002  1.0000
  H   H8        1.0  0.9966456673539597  0.891905889957357  0.08267126683200837  1.0000
  H   H9        1.0  0.9248870371048528  0.098952535975279  0.12201221964036081  1.0000
  H   H10       1.0  0.07511216968288158  0.9010474695254441  0.8779856945740292  1.0000
  H   H11       1.0  0.7026185158730344  0.1444705747369426  0.1660503655534029  1.0000
  H   H12       1.0  0.297380589699813  0.8555316146782843  0.8339486123073386  1.0000
  H   H13       1.0  0.5031021713830056  0.1500893695288283  0.1851517458221181  1.0000
  H   H14       1.0  0.4968996348648318  0.8499095377309446  0.8148478679270214  1.0000
  H   H15       1.0  0.30261358943537436  0.23711766658652064  0.2228707695281642  1.0000
  H   H16       1.0  0.6973863040847519  0.7628791032171379  0.7771302912513818  1.0000
  H   H17       1.0  0.22221118066223514  0.35446250835640575  0.0759674254542304  1.0000
  H   H18       1.0  0.7777866888594857  0.6455342913330641  0.9240344276968386  1.0000
  H   H19       1.0  0.15253364906302377  0.4329072780448726  0.9501511002929561  1.0000
  H   H20       1.0  0.8474676118905579  0.5670927472877452  0.049851176465644194  1.0000
  H   H21       1.0  0.08349582313821456  0.5450847829090293  0.7916822846863171  1.0000
  H   H22       1.0  0.9165025005186891  0.4549130991946698  0.2083196874068918  1.0000
  H   H23       1.0  0.22812154717749428  0.5766329012128967  0.6164026052868508  1.0000
  H   H24       1.0  0.771875196560366  0.42336607661826536  0.3835985598147786  1.0000
  H   H25       1.0  0.42406345277871077  0.47748064346950503  0.6032629436297583  1.0000
  H   H26       1.0  0.5759373389559669  0.5225182745900341  0.3967366367288321  1.0000
  Au  Au1       1.0  0.9883777468417206  0.6612766496523294  0.5634763684438653  1.0000
  Au  Au2       1.0  0.011622025351897491  0.3387222709206911  0.4365223193715551  1.0000
  Au  Au3       1.0  0.0897540619956132  0.07429125919870931  0.3843237176422035  1.0000
  Au  Au4       1.0  0.9102453472218883  0.9257043784730216  0.6156720692794764  1.0000
  C   C1        1.0  0.8374947174272621  0.55703655323628  0.6640237779531546  1.0000
  C   C2        1.0  0.16249948784211904  0.4429612726310737  0.33596775074639845  1.0000
  C   C3        1.0  0.14912455426637905  0.7559567714571928  0.4672125898028839  1.0000
  C   C4        1.0  0.8508716341214112  0.244043307874243  0.5327895200029573  1.0000
  C   C5        1.0  0.298942545923815  0.1687811501785177  0.45063971643865847  1.0000
  C   C6        1.0  0.7010598458415344  0.8312167052986865  0.5493641075220026  1.0000
  C   C7        1.0  0.8191906776687431  0.1557325010499255  0.8576456949124492  1.0000
  C   C8        1.0  0.1808083266892168  0.8442718722797905  0.14235434659464363  1.0000
  C   C9        1.0  0.8818205753936326  0.9759396839708929  0.3155049881150944  1.0000
  C   C10       1.0  0.11818849968073408  0.02405472185756  0.684486718006859  1.0000
  C   C11       1.0  0.9055453191835313  0.1267271465447308  0.9411239136061197  1.0000
  C   C12       1.0  0.09445479587456157  0.8732750237844442  0.058874238492556685  1.0000
  C   C13       1.0  0.8624456030317945  0.1222410803418299  0.053464189228158404  1.0000
  C   C14       1.0  0.13755350756895274  0.8777611173596755  0.9465356477852042  1.0000
  C   C15       1.0  0.7368331756609481  0.1481025041265696  0.0784425929649544  1.0000
  C   C16       1.0  0.26316649531777603  0.8518986003609471  0.9215571584968174  1.0000
  C   C17       1.0  0.6575962370147009  0.1802112569212895  0.9904652447149614  1.0000
  C   C18       1.0  0.3424019602877805  0.819788767665486  0.009533495261493398  1.0000
  C   C19       1.0  0.528987322922589  0.21918945421658256  0.014350619814727794  1.0000
  C   C20       1.0  0.47101540165142797  0.7808116344442125  0.98565095012394  1.0000
  C   C21       1.0  0.46520539489751656  0.1999714367219596  0.11995618170731599  1.0000
  C   C22       1.0  0.5347973246485935  0.8000296436525431  0.8800445290787309  1.0000
  C   C23       1.0  0.3524286514490099  0.24743179285608358  0.1407627694438247  1.0000
  C   C24       1.0  0.6475712420711163  0.7525649769475748  0.8592382913357284  1.0000
  C   C25       1.0  0.3056584165715179  0.3117243855869773  0.05709235482775909  1.0000
  C   C26       1.0  0.6943413757337283  0.6882745681311704  0.9429097695981454  1.0000
  C   C27       1.0  0.37083462415931484  0.32404798908217464  0.9519285999885269  1.0000
  C   C28       1.0  0.629165622281107  0.6759520470502097  0.04807364337951731  1.0000
  C   C29       1.0  0.3245224732092851  0.39242222662491605  0.8596677378104048  1.0000
  C   C30       1.0  0.6754787827163895  0.6075777904214164  0.14033367979556738  1.0000
  C   C31       1.0  0.21122474313470727  0.4432919592972839  0.8723561924216696  1.0000
  C   C32       1.0  0.7887768606833562  0.5567113157914818  0.1276455486201726  1.0000
  C   C33       1.0  0.1730250540958948  0.5074998165558071  0.7840433317444493  1.0000
  C   C34       1.0  0.8269760955869856  0.49250237611873615  0.2159582903552604  1.0000
  C   C35       1.0  0.2515243808289611  0.523618517708286  0.6861919068723381  1.0000
  C   C36       1.0  0.7484749523131954  0.47637934530936127  0.31380923945880573  1.0000
  C   C37       1.0  0.361498760018442  0.46916549403872654  0.6792818338702418  1.0000
  C   C38       1.0  0.6385000127457374  0.5308334621929091  0.3207193980124856  1.0000
  N   N1        1.0  0.7503261960095812  0.4895488029349123  0.7230240015603755  1.0000
  N   N2        1.0  0.24966737783437754  0.5104523497786175  0.2769738312528531  1.0000
  N   N3        1.0  0.25053497621431114  0.8086939160925013  0.4139451235025859  1.0000
  N   N4        1.0  0.749466526388872  0.1913115429107677  0.5860576811856147  1.0000
  N   N5        1.0  0.42320979157388905  0.2212674565175945  0.4911060654800893  1.0000
  N   N6        1.0  0.5767878604343366  0.7787336861420115  0.5088953375058196  1.0000
  N   N7        1.0  0.6988828940753039  0.18227365844700932  0.880981090758091  1.0000
  N   N8        1.0  0.30111812925315457  0.8177306767106104  0.11901729922486479  1.0000
  N   N9        1.0  0.7563180022093193  0.9229632319481031  0.2792116093939967  1.0000
  N   N10       1.0  0.2436879482223162  0.07703342333927311  0.7207844968131383  1.0000
  N   N11       1.0  0.480176056647359  0.27742035360213896  0.9316738159879846  1.0000
  N   N12       1.0  0.5198241847651559  0.7225796742439526  0.06832756822743848  1.0000
  N   N13       1.0  0.396098525533091  0.40361751604216783  0.7623291036736718  1.0000
  N   N14       1.0  0.6039008025811513  0.5963803386892012  0.23767118350485109  1.0000
  O   O1        1.0  0.4472170024107172  0.9457197627067374  0.6533059125528169  1.0000
  O   O2        1.0  0.5527876399189111  0.054283471696457794  0.3466950695080655  1.0000
