data_image0
_chemical_formula_structural       Ag4H32C16S8N4O16
_chemical_formula_sum              "Ag4 H32 C16 S8 N4 O16"
_cell_length_a       6.513938439011205
_cell_length_b       9.456744602915887
_cell_length_c       13.860063640333143
_cell_angle_alpha    103.22890141587327
_cell_angle_beta     89.99979369869524
_cell_angle_gamma    90.00000176340603

_space_group_name_H-M_alt    "P 1"
_space_group_IT_number       1

loop_
  _space_group_symop_operation_xyz
  'x, y, z'

loop_
  _atom_site_type_symbol
  _atom_site_label
  _atom_site_symmetry_multiplicity
  _atom_site_fract_x
  _atom_site_fract_y
  _atom_site_fract_z
  _atom_site_occupancy
  Ag  Ag1       1.0  0.7893555459069149  0.36672735190238365  0.665223228929804  1.0000
  Ag  Ag2       1.0  0.28935326579024684  0.13327527380280196  0.834776634620539  1.0000
  Ag  Ag3       1.0  0.21064237376547365  0.6332701882753397  0.33478192893674913  1.0000
  Ag  Ag4       1.0  0.7106446539083394  0.8667278304394445  0.16522149620119816  1.0000
  H   H1        1.0  0.3831567989606696  0.48662354494972254  0.81030191246748  1.0000
  H   H2        1.0  0.8831543383444824  0.013374689921420203  0.6896970727179478  1.0000
  H   H3        1.0  0.6168564724278552  0.5133719074769516  0.18969785317089105  1.0000
  H   H4        1.0  0.11685279236825612  0.9866251315150478  0.31030196432691776  1.0000
  H   H5        1.0  0.40570617935097886  0.1774366035617803  0.6020683767041817  1.0000
  H   H6        1.0  0.9057036340901663  0.3225551030189776  0.8979295023401972  1.0000
  H   H7        1.0  0.5942963458508359  0.822566476490124  0.39793119324191645  1.0000
  H   H8        1.0  0.094298891120367  0.6774392994893857  0.10206792698268426  1.0000
  H   H9        1.0  0.16047226830941946  0.16814144746707163  0.5454363942590703  1.0000
  H   H10       1.0  0.6604708282674777  0.33185908114777607  0.9545626250682773  1.0000
  H   H11       1.0  0.8395256513735844  0.8318604980027615  0.45456587631575457  1.0000
  H   H12       1.0  0.3395209507672305  0.6681429973642493  0.04543173030535996  1.0000
  H   H13       1.0  0.19324665867585372  0.42327423882738197  0.5260116683350943  1.0000
  H   H14       1.0  0.6932374318809665  0.0767230150973148  0.973986759459933  1.0000
  H   H15       1.0  0.8067497258373137  0.5767320635565124  0.47399059320635206  1.0000
  H   H16       1.0  0.3067482064641425  0.9232757443288692  0.026010660843304834  1.0000
  H   H17       1.0  0.43338111216083774  0.33740099205929397  0.4851412550488802  1.0000
  H   H18       1.0  0.9333722778780427  0.16259596636201215  0.014858483097185586  1.0000
  H   H19       1.0  0.5666152723627391  0.6626020879941166  0.5148583149027173  1.0000
  H   H20       1.0  0.0666133604554275  0.8374038308905153  0.9851419930953892  1.0000
  H   H21       1.0  0.04205585822567309  0.6055642043923299  0.829554726948224  1.0000
  H   H22       1.0  0.5420504190449691  0.8944330006190168  0.670446362630173  1.0000
  H   H23       1.0  0.9579620186385966  0.3944354598116036  0.17045366442219026  1.0000
  H   H24       1.0  0.4579567116925459  0.1055625727552396  0.32954620737125845  1.0000
  H   H25       1.0  0.2369534457285454  0.7154808266398972  0.7915207760159432  1.0000
  H   H26       1.0  0.7369554100883136  0.7845151965561783  0.7084797871994155  1.0000
  H   H27       1.0  0.7630536849661593  0.2845134670158628  0.20848312938100827  1.0000
  H   H28       1.0  0.26304711511377826  0.21548352658204104  0.2915197917814467  1.0000
  H   H29       1.0  0.0869357289478145  0.6660950208283366  0.6371512129648591  1.0000
  H   H30       1.0  0.5869395882757047  0.8338988793610083  0.8628507025344658  1.0000
  H   H31       1.0  0.9130698665483409  0.33390568120495345  0.3628602343058915  1.0000
  H   H32       1.0  0.4130598666075471  0.16610211294436536  0.1371434751999345  1.0000
  C   C1        1.0  0.2885875316670408  0.4871256037262768  0.7447930312769842  1.0000
  C   C2        1.0  0.7885907159786781  0.012874837850176804  0.7552071979421553  1.0000
  C   C3        1.0  0.7114119231773514  0.5128763054593577  0.25521139798919984  1.0000
  C   C4        1.0  0.21140873889865472  0.9871228595570687  0.24478860558785698  1.0000
  C   C5        1.0  0.2707479246948025  0.24141028057300667  0.5912442054679659  1.0000
  C   C6        1.0  0.7707468417255895  0.2585879973463321  0.9087557004100827  1.0000
  C   C7        1.0  0.7292484598225853  0.758593861495953  0.4087569812444868  1.0000
  C   C8        1.0  0.22924954280765766  0.7414129465813633  0.09124135558403879  1.0000
  C   C9        1.0  0.3283491748992092  0.3693450332531895  0.5483729682116375  1.0000
  C   C10       1.0  0.8283401097143043  0.1306532285059276  0.9516261150452292  1.0000
  C   C11       1.0  0.6716502799612415  0.630661305413774  0.4516271346343287  1.0000
  C   C12       1.0  0.171648598965227  0.8693444205255217  0.04837256675136807  1.0000
  C   C13       1.0  0.14184057752645882  0.6172185998979456  0.7677296114055634  1.0000
  C   C14       1.0  0.641845418255798  0.8827785924444594  0.7322691409292899  1.0000
  C   C15       1.0  0.8581588773139829  0.3827811126889387  0.23227590172436408  1.0000
  C   C16       1.0  0.3581555717972905  0.11721804294685965  0.26772504583849605  1.0000
  S   S1        1.0  0.15066650425161754  0.3128806291845975  0.710812853922128  1.0000
  S   S2        1.0  0.6506571253730797  0.1871166819120234  0.7891834913676161  1.0000
  S   S3        1.0  0.8493436967975186  0.6871191801565145  0.28918690268422853  1.0000
  S   S4        1.0  0.3493392591760197  0.812881063874407  0.21080943390817447  1.0000
  S   S5        1.0  0.4658938538307922  0.49715758326117043  0.6445113027414349  1.0000
  S   S6        1.0  0.9658947453939105  0.0028405989271718043  0.8554882539664559  1.0000
  S   S7        1.0  0.5341009955165674  0.5028432880992567  0.3554900706395187  1.0000
  S   S8        1.0  0.034100103963851304  0.9971570501027712  0.14451042782464896  1.0000
  N   N1        1.0  0.7997494364525438  0.14800601719358747  0.4598633885659921  1.0000
  N   N2        1.0  0.2997493554135886  0.3520018809220389  0.04013764543461919  1.0000
  N   N3        1.0  0.20025769429857826  0.8519896166537035  0.5401255836142197  1.0000
  N   N4        1.0  0.7002531697347365  0.6480074986555449  0.9598759424620976  1.0000
  O   O1        1.0  0.010883239974887698  0.6272882613586288  0.6878263292019112  1.0000
  O   O2        1.0  0.510890547698132  0.8727100572409726  0.8121742742093827  1.0000
  O   O3        1.0  0.9891116093482425  0.37270814423665405  0.3121815292919904  1.0000
  O   O4        1.0  0.4891043016803921  0.12729313166428818  0.18781881966539515  1.0000
  O   O5        1.0  0.8293290282871483  0.28607031362055585  0.47187470760904654  1.0000
  O   O6        1.0  0.32932905770110915  0.21393648377974728  0.02812609583327228  1.0000
  O   O7        1.0  0.17067349690528028  0.7139305456433788  0.5281273853292844  1.0000
  O   O8        1.0  0.6706765378479959  0.7860666325552257  0.9718713154173526  1.0000
  O   O9        1.0  0.7610951206169003  0.09819589842361859  0.5351835589472953  1.0000
  O   O10       1.0  0.2610780017350293  0.4018067411486043  0.9648163551818029  1.0000
  O   O11       1.0  0.2389212210998579  0.9017995056238702  0.4648190849453043  1.0000
  O   O12       1.0  0.7389214531266431  0.5982017820225066  0.03518338336466088  1.0000
  O   O13       1.0  0.8099079825441607  0.067397021212507  0.37440195681617877  1.0000
  O   O14       1.0  0.3099256653025008  0.4326097978052416  0.12559816179555836  1.0000
  O   O15       1.0  0.19008533162002555  0.9326037896752621  0.6256030143873658  1.0000
  O   O16       1.0  0.6900691840564902  0.5673900357288487  0.874400155696051  1.0000
