data_image0
_chemical_formula_structural       Cd8H36C32N30Cl2O8
_chemical_formula_sum              "Cd8 H36 C32 N30 Cl2 O8"
_cell_length_a       6.796766866
_cell_length_b       11.673868958637431
_cell_length_c       17.056
_cell_angle_alpha    90.0
_cell_angle_beta     90.0
_cell_angle_gamma    94.72947484420718

_space_group_name_H-M_alt    "P 1"
_space_group_IT_number       1

loop_
  _space_group_symop_operation_xyz
  'x, y, z'

loop_
  _atom_site_type_symbol
  _atom_site_label
  _atom_site_symmetry_multiplicity
  _atom_site_fract_x
  _atom_site_fract_y
  _atom_site_fract_z
  _atom_site_occupancy
  Cd  Cd1       1.0  0.6161768898442902  0.1399555712600815  0.4220110225140701  1.0000
  Cd  Cd2       1.0  0.3838228783609949  0.860045233441909  0.9220110225140699  1.0000
  Cd  Cd3       1.0  0.3838228783609949  0.860045233441909  0.5779883911819894  1.0000
  Cd  Cd4       1.0  0.616178239408164  0.1399547117193976  0.0779895637898704  1.0000
  Cd  Cd5       1.0  0.6343502209319567  0.6364726849929738  0.25  1.0000
  Cd  Cd6       1.0  0.365649425549435  0.36352726016833264  0.7500005863039405  1.0000
  Cd  Cd7       1.0  0.41578560597105974  0.3356463390318822  0.25  1.0000
  Cd  Cd8       1.0  0.5842156335220068  0.664354465670101  0.75  1.0000
  H   H1        1.0  0.167406044784336  0.7635024834611812  0.25  1.0000
  H   H2        1.0  0.8325937234209562  0.23649832124080214  0.75  1.0000
  H   H3        1.0  0.9300317405768084  0.594955150919759  0.5527526969981267  1.0000
  H   H4        1.0  0.06996643461680918  0.4050447942415403  0.0527515243902457  1.0000
  H   H5        1.0  0.06996643461680918  0.4050447942415403  0.4472496482176354  1.0000
  H   H6        1.0  0.9300332118645827  0.594955150919759  0.9472473030018734  1.0000
  H   H7        1.0  0.8332362831218846  0.4502978921233379  0.5536327392120057  1.0000
  H   H8        1.0  0.166761892071726  0.5497020530379686  0.0536303939962508  1.0000
  H   H9        1.0  0.16676201379562633  0.5497029125786526  0.4463696060037491  1.0000
  H   H10       1.0  0.8332375109618582  0.4502961730419699  0.9463672607879943  1.0000
  H   H11       1.0  0.6322156780917894  0.5862007290627886  0.4763766416510293  1.0000
  H   H12       1.0  0.3677837249417948  0.41379749701714996  0.9763760553470887  1.0000
  H   H13       1.0  0.36778249710182104  0.4137992160985178  0.5236245309568446  1.0000
  H   H14       1.0  0.6322171493795636  0.5862007290627886  0.0236233583489707  1.0000
  H   H15       1.0  0.8285273782153624  0.6096025836998038  0.4100650797373362  1.0000
  H   H16       1.0  0.1714722682660295  0.39039736146150267  0.910063907129455  1.0000
  H   H17       1.0  0.1714723899899298  0.3903982210021867  0.5899366791744853  1.0000
  H   H18       1.0  0.828527256491455  0.6096017241591198  0.0899343339587233  1.0000
  H   H19       1.0  0.6303632318422601  0.3122745683187773  0.5832674718574111  1.0000
  H   H20       1.0  0.3696362929152315  0.6877245173018451  0.0832662992495301  1.0000
  H   H21       1.0  0.3696364146391318  0.6877253768425291  0.4167319418386483  1.0000
  H   H22       1.0  0.6303633535661604  0.31227542785946133  0.9167342870544102  1.0000
  H   H23       1.0  0.9349225014183276  0.2845956392428448  0.3187224437148188  1.0000
  H   H24       1.0  0.065075308603582  0.7154017272964097  0.8187230300187592  1.0000
  H   H25       1.0  0.06507738851086489  0.7154060249998224  0.6812781425891217  1.0000
  H   H26       1.0  0.9349240944300021  0.28459649878352883  0.1812775562851812  1.0000
  H   H27       1.0  0.2063772560701764  0.0741156144782948  0.683275093808632  1.0000
  H   H28       1.0  0.7936234965272818  0.9258817520609597  0.1832733348968105  1.0000
  H   H29       1.0  0.793622268687308  0.9258834711423276  0.3167254924953085  1.0000
  H   H30       1.0  0.2063746786663287  0.0741181931003467  0.8167266651031894  1.0000
  H   H31       1.0  0.901286739397662  0.4273094765548677  0.25  1.0000
  H   H32       1.0  0.0987129070837298  0.5726904686064316  0.7499994136960595  1.0000
  H   H33       1.0  0.1291423830909295  0.051916257256884514  0.48261491557223474  1.0000
  H   H34       1.0  0.870858856402137  0.9480845474451058  0.9826149155722349  1.0000
  H   H35       1.0  0.8708587346782366  0.9480836879044219  0.5173833255159508  1.0000
  H   H36       1.0  0.1291407900792549  0.05191539771620061  0.0173844981238247  1.0000
  C   C1        1.0  0.14438174369333007  0.6703299924987435  0.25  1.0000
  C   C2        1.0  0.855619374075829  0.329669952662563  0.75  1.0000
  C   C3        1.0  0.9022590332265139  0.5184328225288937  0.5156267589118215  1.0000
  C   C4        1.0  0.0977390202432034  0.48156626309172884  0.015625586303940495  1.0000
  C   C5        1.0  0.0977377924032297  0.4815679821730967  0.48437499999999994  1.0000
  C   C6        1.0  0.9022618540781622  0.5184319629882098  0.9843732410881785  1.0000
  C   C7        1.0  0.7585335027238784  0.5457163628906159  0.4508993902439045  1.0000
  C   C8        1.0  0.2414645507458317  0.4542827227300066  0.9508999765478449  1.0000
  C   C9        1.0  0.2414645507458317  0.4542827227300066  0.5491006097560955  1.0000
  C   C10       1.0  0.7585333809999781  0.5457155033499319  0.04910119606003598  1.0000
  C   C11       1.0  0.5389147530407925  0.234350329073834  0.5969822936210107  1.0000
  C   C12       1.0  0.46108317870501747  0.7656478970061045  0.0969805347091963  1.0000
  C   C13       1.0  0.46108330042891765  0.7656487565467884  0.4030182926829298  1.0000
  C   C14       1.0  0.5389151182125005  0.2343529076958859  0.9030194652908037  1.0000
  C   C15       1.0  0.0290577141000625  0.23474571778804432  0.353795731707315  1.0000
  C   C16       1.0  0.9709418106574219  0.7652533678325782  0.853795731707315  1.0000
  C   C17       1.0  0.9709421758291299  0.76525594645463  0.6462036819887444  1.0000
  C   C18       1.0  0.029059185387836795  0.23474571778804432  0.146204268292685  1.0000
  C   C19       1.0  0.32287986039060707  0.11488448861656052  0.646935389305817  1.0000
  C   C20       1.0  0.6771196643668844  0.885114597004062  0.1469336303939954  1.0000
  C   C21       1.0  0.6771183148030104  0.8851154565447459  0.3530651969981236  1.0000
  C   C22       1.0  0.32287863255063337  0.1148862076979285  0.8530663696060046  1.0000
  C   C23       1.0  0.6715552642550264  0.4426428227999963  0.4036503283302082  1.0000
  C   C24       1.0  0.3284457317902323  0.5573562628206261  0.9036497420262677  1.0000
  C   C25       1.0  0.3284430326624843  0.557357981901994  0.5963508442776727  1.0000
  C   C26       1.0  0.6715567355428007  0.4426428227999963  0.0963508442776728  1.0000
  C   C27       1.0  0.012831494122920593  0.4989822764119083  0.25  1.0000
  C   C28       1.0  0.9871696236462384  0.5010176687493981  0.75  1.0000
  C   C29       1.0  0.1235908289179193  0.1155171105592956  0.4365361163226993  1.0000
  C   C30       1.0  0.87641041057514  0.8844836941426949  0.9365355300187586  1.0000
  C   C31       1.0  0.8764090610112731  0.884484553683379  0.5634632973733602  1.0000
  C   C32       1.0  0.12359070719401902  0.11551625101861163  0.0634644699812412  1.0000
  N   N1        1.0  0.549399376994046  0.1365466329110632  0.5573956378986864  1.0000
  N   N2        1.0  0.45059879819957166  0.8634533122502435  0.05739505159474589  1.0000
  N   N3        1.0  0.45059879819957166  0.8634533122502435  0.4426043621013136  1.0000
  N   N4        1.0  0.5494009700057205  0.1365474924517471  0.9426055347091945  1.0000
  N   N5        1.0  0.9576114026003  0.1576182727563022  0.4081027204502803  1.0000
  N   N6        1.0  0.04238677259331071  0.8423816724050043  0.9081033067542208  1.0000
  N   N7        1.0  0.04238689431721102  0.8423825319456884  0.5918961069418385  1.0000
  N   N8        1.0  0.9576128738880741  0.1576182727563022  0.0918966932457792  1.0000
  N   N9        1.0  0.206550533019616  0.4907779605920909  0.25  1.0000
  N   N10       1.0  0.793450584749543  0.5092219845692156  0.75  1.0000
  N   N11       1.0  0.2858411414797004  0.1633471114089033  0.4015630863039377  1.0000
  N   N12       1.0  0.7141585050016842  0.8366528337524031  0.9015630863039374  1.0000
  N   N13       1.0  0.7141585050016842  0.8366528337524031  0.5984357410881813  1.0000
  N   N14       1.0  0.2858410197558001  0.1633462518682194  0.0984363273921218  1.0000
  N   N15       1.0  0.2916713806079869  0.6013793579849604  0.25  1.0000
  N   N16       1.0  0.7083312084489464  0.398620587176346  0.75  1.0000
  N   N17       1.0  0.965680126067582  0.6095664829911129  0.25  1.0000
  N   N18       1.0  0.0343209917015841  0.39043346217019353  0.75  1.0000
  N   N19       1.0  0.22447797385004256  0.2404556465456196  0.3482962007504682  1.0000
  N   N20       1.0  0.7755216726313421  0.7595442986156868  0.8482962007504682  1.0000
  N   N21       1.0  0.7755219160791496  0.7595460176970548  0.6517032129455913  1.0000
  N   N22       1.0  0.22447944513781684  0.2404556465456196  0.1517037992495318  1.0000
  N   N23       1.0  0.408674675320384  0.0591948477610416  0.5898422842401486  1.0000
  N   N24       1.0  0.5913248494371004  0.940804237859581  0.0898411116322677  1.0000
  N   N25       1.0  0.5913249711610078  0.940805097400265  0.41015771575985127  1.0000
  N   N26       1.0  0.4086747970442843  0.0591957073017255  0.9101588883677323  1.0000
  N   N27       1.0  0.39913455897949746  0.22517301320079502  0.653704268292685  1.0000
  N   N28       1.0  0.6008647223301864  0.7748243533384596  0.1537025093808637  1.0000
  N   N29       1.0  0.6008649657779941  0.7748260724198275  0.3462957317073148  1.0000
  N   N30       1.0  0.3991349241511984  0.22517559182283972  0.8462974906191363  1.0000
  Cl  Cl1       1.0  0.6284876416729333  0.1567793610496366  0.25  1.0000
  Cl  Cl2       1.0  0.3715120048084515  0.8432205841116698  0.75  1.0000
  O   O1        1.0  0.6067561464338098  0.4629701004137061  0.3343398217635993  1.0000
  O   O2        1.0  0.39324497133534925  0.5370298447476003  0.8343392354596586  1.0000
  O   O3        1.0  0.39324497133534925  0.5370298447476003  0.6656613508442746  1.0000
  O   O4        1.0  0.6067561464338098  0.4629701004137061  0.1656607645403412  1.0000
  O   O5        1.0  0.6634610170601789  0.3445417255608803  0.4349759615384627  1.0000
  O   O6        1.0  0.33654010070898005  0.6554582196004191  0.9349753752345222  1.0000
  O   O7        1.0  0.3365387511451062  0.6554590791411031  0.565025211069418  1.0000
  O   O8        1.0  0.6634623666240528  0.3445408660201963  0.0650252110694183  1.0000
