data_image0
_chemical_formula_structural       Cd4H24C36O20
_chemical_formula_sum              "Cd4 H24 C36 O20"
_cell_length_a       6.558888996202846
_cell_length_b       7.727267662962714
_cell_length_c       16.952479297092022
_cell_angle_alpha    89.99961858851776
_cell_angle_beta     90.0001330024361
_cell_angle_gamma    107.78100514086006

_space_group_name_H-M_alt    "P 1"
_space_group_IT_number       1

loop_
  _space_group_symop_operation_xyz
  'x, y, z'

loop_
  _atom_site_type_symbol
  _atom_site_label
  _atom_site_symmetry_multiplicity
  _atom_site_fract_x
  _atom_site_fract_y
  _atom_site_fract_z
  _atom_site_occupancy
  Cd  Cd1       1.0  0.9031738536182486  0.2166004082714466  0.5269124007357322  1.0000
  Cd  Cd2       1.0  0.5968293913571471  0.7834043975872189  0.02691313666294091  1.0000
  Cd  Cd3       1.0  0.09682599184682054  0.7834006222055122  0.4730871672904018  1.0000
  Cd  Cd4       1.0  0.40317151677729857  0.21659529223838084  0.9730870212499668  1.0000
  H   H1        1.0  0.7801395903578763  0.8728218215214126  0.7664184866756616  1.0000
  H   H2        1.0  0.7198577941880515  0.12717542780613655  0.2664172213230601  1.0000
  H   H3        1.0  0.21985459918775516  0.12718049479173027  0.23358167123006277  1.0000
  H   H4        1.0  0.2801431139463943  0.8728242620194633  0.7335829365898479  1.0000
  H   H5        1.0  0.526514841081365  0.29271377143538047  0.7925741332937977  1.0000
  H   H6        1.0  0.9734834953703455  0.7072858216994786  0.29257191730499  1.0000
  H   H7        1.0  0.4734920655466225  0.707290049936681  0.20742720438402534  1.0000
  H   H8        1.0  0.026515881680289486  0.2927138498656419  0.7074270608387894  1.0000
  H   H9        1.0  0.636308140148614  0.5294231698610402  0.5609038737918584  1.0000
  H   H10       1.0  0.8637038425073627  0.4705799006218285  0.06090287036273171  1.0000
  H   H11       1.0  0.36369123690236177  0.47057650169564613  0.43909628412035334  1.0000
  H   H12       1.0  0.13629919096549503  0.529417107909488  0.9390972875552922  1.0000
  H   H13       1.0  0.5209823669021318  0.10454833757471957  0.6747792598543118  1.0000
  H   H14       1.0  0.979022962808635  0.8954557309607762  0.17477706194490855  1.0000
  H   H15       1.0  0.4790210091444891  0.8954540883476765  0.3252214879397855  1.0000
  H   H16       1.0  0.02098147590667309  0.10454535432714347  0.8252219161990839  1.0000
  H   H17       1.0  0.2994990096301464  0.16545944656405703  0.6375662164707593  1.0000
  H   H18       1.0  0.20050642941232155  0.8345427161844156  0.13756335371031275  1.0000
  H   H19       1.0  0.700502835333509  0.8345429610767778  0.362436300975297  1.0000
  H   H20       1.0  0.7994930734789916  0.1654528969014564  0.8624356244397478  1.0000
  H   H21       1.0  0.43270890034239773  0.18186732087116292  0.5208151896357835  1.0000
  H   H22       1.0  0.0672915355745971  0.8181310392373432  0.020812841885899006  1.0000
  H   H23       1.0  0.5672889456254495  0.8181323324081757  0.4791861480441781  1.0000
  H   H24       1.0  0.932708435730987  0.18186593276458038  0.9791861362623  1.0000
  C   C1        1.0  0.7987323890979354  0.8803595437111295  0.6069774986964804  1.0000
  C   C2        1.0  0.7012704336166636  0.11964275829274837  0.10697682886340944  1.0000
  C   C3        1.0  0.20127005011930518  0.11964016440025198  0.3930202996802451  1.0000
  C   C4        1.0  0.29873106877239036  0.8803542319780885  0.8930221492854787  1.0000
  C   C5        1.0  0.7187759656701899  0.7181792379025679  0.658369602659221  1.0000
  C   C6        1.0  0.7812264182555566  0.28182097026127195  0.15836969042245397  1.0000
  C   C7        1.0  0.2812206917874319  0.28182581451159183  0.34163055524346236  1.0000
  C   C8        1.0  0.21877342720951268  0.7181800602156867  0.8416298776036801  1.0000
  C   C9        1.0  0.722650331469289  0.7382081057627372  0.7403628902439369  1.0000
  C   C10       1.0  0.7773479748845205  0.26179223401720003  0.2403589065919861  1.0000
  C   C11       1.0  0.27735410724653053  0.2617929795125206  0.2596378575527042  1.0000
  C   C12       1.0  0.222651402166285  0.7382074375436999  0.7596406614360094  1.0000
  C   C13       1.0  0.6539534012194108  0.58522133861463  0.7889937373754352  1.0000
  C   C14       1.0  0.8460389346750502  0.41477417416866996  0.2889911188154529  1.0000
  C   C15       1.0  0.3460438504935012  0.41478101422789837  0.21100760030010696  1.0000
  C   C16       1.0  0.15395891129211486  0.5852254791275371  0.7110078593276372  1.0000
  C   C17       1.0  0.5791801553885846  0.41248393348145374  0.7549299231252607  1.0000
  C   C18       1.0  0.9208201588606216  0.5875175751609375  0.2549274350248823  1.0000
  C   C19       1.0  0.4208238149129784  0.5875157928777526  0.24507082467324898  1.0000
  C   C20       1.0  0.07917815552080743  0.4124834370513211  0.7450715431163462  1.0000
  C   C21       1.0  0.5681176039746844  0.39147204059862856  0.672897701311584  1.0000
  C   C22       1.0  0.9318878504932187  0.6085279963372584  0.17289928837002583  1.0000
  C   C23       1.0  0.4318808362475934  0.6085249131301681  0.3271018667201418  1.0000
  C   C24       1.0  0.06811093230264474  0.39147437478683855  0.82710027965355  1.0000
  C   C25       1.0  0.6398669765168774  0.5445290586265727  0.6248378634301307  1.0000
  C   C26       1.0  0.8601427918147024  0.4554798373676192  0.12483572319950305  1.0000
  C   C27       1.0  0.36013393161790924  0.45547063119059306  0.3751634742512096  1.0000
  C   C28       1.0  0.1398553967267304  0.54452523330702  0.8751656144723161  1.0000
  C   C29       1.0  0.6561302598837031  0.6083763967719233  0.8765962284020719  1.0000
  C   C30       1.0  0.8438711871694125  0.39162203137686197  0.37659249903155984  1.0000
  C   C31       1.0  0.34387617832985734  0.3916260656883067  0.12340451939340374  1.0000
  C   C32       1.0  0.15612865829582737  0.6083789990958762  0.6234076588787902  1.0000
  C   C33       1.0  0.47569331525408387  0.20423830894006298  0.6381278095838854  1.0000
  C   C34       1.0  0.024308250958163913  0.7957570329075592  0.13812784957873703  1.0000
  C   C35       1.0  0.5243081871353041  0.7957586813223401  0.3618723483334352  1.0000
  C   C36       1.0  0.9756926571759478  0.20424265692647475  0.8618711285657314  1.0000
  O   O1        1.0  0.7921726163426968  0.8600644659354798  0.5308606368417161  1.0000
  O   O2        1.0  0.7078242898414686  0.13993073452277116  0.03085991094772571  1.0000
  O   O3        1.0  0.20782382438151362  0.13993111061678576  0.46913775142274283  1.0000
  O   O4        1.0  0.2921766182926362  0.8600689553112632  0.9691390671967429  1.0000
  O   O5        1.0  0.8707296021863726  0.03711861738344879  0.6378097139666397  1.0000
  O   O6        1.0  0.6292752377999095  0.9628846208830595  0.13781110978397496  1.0000
  O   O7        1.0  0.12926365053021263  0.9628809811102383  0.3621886742901595  1.0000
  O   O8        1.0  0.37072779567294833  0.03711238764825709  0.8621890481340418  1.0000
  O   O9        1.0  0.6911351019003149  0.7708764459125489  0.9020341627355822  1.0000
  O   O10       1.0  0.8088654229885537  0.22911890062422904  0.4020320785390724  1.0000
  O   O11       1.0  0.3088698052297687  0.22912599827876784  0.09796658505920423  1.0000
  O   O12       1.0  0.19113348564799532  0.7708794120206263  0.5979674894907916  1.0000
  O   O13       1.0  0.6250225047619297  0.47195628931083883  0.9222452030723434  1.0000
  O   O14       1.0  0.874968754384895  0.5280251242297139  0.4222440340533994  1.0000
  O   O15       1.0  0.3749718106243732  0.5280419685230483  0.07775495483966212  1.0000
  O   O16       1.0  0.12503155949427475  0.4719772651675099  0.5777549440866495  1.0000
  O   O17       1.0  0.550327754732045  0.19301848743726416  0.5595912669041356  1.0000
  O   O18       1.0  0.9496745722522631  0.8069831332850013  0.05959049247627492  1.0000
  O   O19       1.0  0.4496731534024008  0.8069812023883287  0.4404088910087723  1.0000
  O   O20       1.0  0.05032586746792588  0.19301519762454686  0.9404096654385017  1.0000
