data_image0
_chemical_formula_structural       Zn4H52C64N4O16F4
_chemical_formula_sum              "Zn4 H52 C64 N4 O16 F4"
_cell_length_a       9.869821585182203
_cell_length_b       11.07050007527824
_cell_length_c       24.339285295639993
_cell_angle_alpha    90.05277900504075
_cell_angle_beta     89.12791332051097
_cell_angle_gamma    90.35621730421205

_space_group_name_H-M_alt    "P 1"
_space_group_IT_number       1

loop_
  _space_group_symop_operation_xyz
  'x, y, z'

loop_
  _atom_site_type_symbol
  _atom_site_label
  _atom_site_symmetry_multiplicity
  _atom_site_fract_x
  _atom_site_fract_y
  _atom_site_fract_z
  _atom_site_occupancy
  Zn  Zn1       1.0  0.6360309161197293  0.49153758933749  0.4968791853742118  1.0000
  Zn  Zn2       1.0  0.3493285667226472  0.49073275107861775  0.4984152675120726  1.0000
  Zn  Zn3       1.0  0.3660082719560407  0.49401971603979433  0.042375594167154404  1.0000
  Zn  Zn4       1.0  0.6522858304134473  0.49591790724321083  0.05022032376843552  1.0000
  H   H1        1.0  0.11843311947994555  0.5797789621242587  0.6165081986413697  1.0000
  H   H2        1.0  0.1127456562451812  0.7073853954542176  0.5719395830636034  1.0000
  H   H3        1.0  0.8555778080377792  0.6984442328212455  0.5758049093561511  1.0000
  H   H4        1.0  0.8629408545557953  0.5661995535605371  0.6175030915177118  1.0000
  H   H5        1.0  0.18682305946217778  0.8672567994600089  0.4703153518939161  1.0000
  H   H6        1.0  0.18718836495543914  0.8755955403158215  0.5435879399574546  1.0000
  H   H7        1.0  0.17963105664951942  0.10193246755207504  0.539208266994912  1.0000
  H   H8        1.0  0.1844417247786154  0.09465916981252326  0.465992390977462  1.0000
  H   H9        1.0  0.7471574804949769  0.4754688835580795  0.8809285713872228  1.0000
  H   H10       1.0  0.26167150481313683  0.4841462112744283  0.6634023073141151  1.0000
  H   H11       1.0  0.7732146303943354  0.44390546631000666  0.21770632110230542  1.0000
  H   H12       1.0  0.8048108149215097  0.6023637924722112  0.21361676466523252  1.0000
  H   H13       1.0  0.8122339507498851  0.6084162489192336  0.31840095139065033  1.0000
  H   H14       1.0  0.784590047610436  0.44907509647355687  0.3187561368566493  1.0000
  H   H15       1.0  0.8715726968252113  0.5885084856173394  0.930646184763603  1.0000
  H   H16       1.0  0.8898772380110102  0.7160164054999785  0.9747202143736262  1.0000
  H   H17       1.0  0.14543313446705503  0.7007124290597987  0.9651530406825942  1.0000
  H   H18       1.0  0.12669578078787677  0.5687352951815329  0.9237362334981472  1.0000
  H   H19       1.0  0.8247930636654744  0.8716743076704178  0.07279659593638851  1.0000
  H   H20       1.0  0.8232483776201891  0.8852111752588886  0.9996730675171152  1.0000
  H   H21       1.0  0.8318915304781243  0.11128367842749752  0.007820869096768504  1.0000
  H   H22       1.0  0.8256930461919226  0.0973903783060805  0.0808507228276625  1.0000
  H   H23       1.0  0.866051508823709  0.24481647396248016  0.41860872371923824  1.0000
  H   H24       1.0  0.7440135629457175  0.36085801531720574  0.4123383417861461  1.0000
  H   H25       1.0  0.89761787913028  0.36410356019167983  0.37227282688066055  1.0000
  H   H26       1.0  0.1361665788195126  0.3743731860195467  0.3751273455561376  1.0000
  H   H27       1.0  0.24817913562419142  0.3262918367552531  0.4268260361080962  1.0000
  H   H28       1.0  0.09547010760238088  0.24419211759245485  0.4142697170355803  1.0000
  H   H29       1.0  0.8155569021462626  0.1388954664269235  0.4834264901538249  1.0000
  H   H30       1.0  0.7364785834351509  0.2101510129767236  0.5402478112005654  1.0000
  H   H31       1.0  0.8159400597547163  0.0673218428928593  0.5482198229229952  1.0000
  H   H32       1.0  0.8101257436054468  0.8538803797788721  0.5369403033330613  1.0000
  H   H33       1.0  0.7556263918216859  0.7868029110159757  0.4751678344136323  1.0000
  H   H34       1.0  0.8323743441528321  0.9331117612925939  0.47446539338272237  1.0000
  H   H35       1.0  0.155371176291851  0.5610239075413901  0.3315997746268806  1.0000
  H   H36       1.0  0.2584037295827954  0.6369564720811456  0.37998124663249655  1.0000
  H   H37       1.0  0.20068376664587356  0.713152289757126  0.3203705460597206  1.0000
  H   H38       1.0  0.19815189698550031  0.7148905876444048  0.23052349265883276  1.0000
  H   H39       1.0  0.22779311184549295  0.6103002955017516  0.17623839424073404  1.0000
  H   H40       1.0  0.1418799165775297  0.5647229597546757  0.2381830733710757  1.0000
  H   H41       1.0  0.1096254551231297  0.25637058898848153  0.13387472626915553  1.0000
  H   H42       1.0  0.26205899680634565  0.33710147045015765  0.11876524119115574  1.0000
  H   H43       1.0  0.145174535637878  0.39219298208934833  0.16925020919941858  1.0000
  H   H44       1.0  0.9092689532979108  0.3567848839243979  0.1707277690017293  1.0000
  H   H45       1.0  0.7568730223592864  0.36450033999005893  0.13219365264770744  1.0000
  H   H46       1.0  0.8762508324706246  0.24743985286178838  0.11985841418081121  1.0000
  H   H47       1.0  0.19865272924049293  0.14356134969087012  0.06445761637905892  1.0000
  H   H48       1.0  0.27278915809569776  0.20879372914630787  0.005067831131427202  1.0000
  H   H49       1.0  0.19081195084218902  0.06546240994453711  0.0011007840954491003  1.0000
  H   H50       1.0  0.20247607694557251  0.849389983164848  0.008945965505255104  1.0000
  H   H51       1.0  0.2576090027171247  0.787109404718443  0.07135411699954372  1.0000
  H   H52       1.0  0.1783442754229299  0.9313480958830312  0.0707497484693391  1.0000
  C   C1        1.0  0.49683956457545975  0.7256045224443856  0.5042105762592257  1.0000
  C   C2        1.0  0.4907205365003476  0.4823315273282348  0.6049882708916527  1.0000
  C   C3        1.0  0.4892062299016828  0.25682770278525885  0.49992505300194523  1.0000
  C   C4        1.0  0.49543007733540634  0.5327090227144566  0.3921755308654512  1.0000
  C   C5        1.0  0.5126174288892783  0.7289004149164384  0.0383848121474841  1.0000
  C   C6        1.0  0.5158139049891588  0.4807393262783465  0.9390942130207878  1.0000
  C   C7        1.0  0.5219131228806617  0.26038751454786546  0.04670074447539461  1.0000
  C   C8        1.0  0.4816602505040136  0.5366227483285897  0.152303981028858  1.0000
  C   C9        1.0  0.06125264420769128  0.5357851855716335  0.5310914497020534  1.0000
  C   C10       1.0  0.9225297717772636  0.4121429613753024  0.4564376602441911  1.0000
  C   C11       1.0  0.9206255492944636  0.5338586764731448  0.5312386657297381  1.0000
  C   C12       1.0  0.0668231442493408  0.41053766419182847  0.45749572278275963  1.0000
  C   C13       1.0  0.06877665476596209  0.6179948857685958  0.5805718589173098  1.0000
  C   C14       1.0  0.9077775843067926  0.6124639598597598  0.581735244257203  1.0000
  C   C15       1.0  0.5036630512560621  0.860850841891015  0.5039788916360521  1.0000
  C   C16       1.0  0.4984131785628279  0.12257049093920361  0.5055947976255268  1.0000
  C   C17       1.0  0.3835726273542051  0.9265163214619108  0.5050159113144589  1.0000
  C   C18       1.0  0.6224582752321268  0.05826810436850852  0.5089188032913157  1.0000
  C   C19       1.0  0.3808825352961803  0.052155471956417905  0.5044796104524778  1.0000
  C   C20       1.0  0.6256305687786323  0.9303289484761381  0.5042122291158507  1.0000
  C   C21       1.0  0.23049808378321765  0.9145549526300842  0.5056295665749105  1.0000
  C   C22       1.0  0.22737793221349287  0.05716484280257112  0.5036361910380478  1.0000
  C   C23       1.0  0.42062862709324383  0.484856122287816  0.8419150477597483  1.0000
  C   C24       1.0  0.6609620676807566  0.47907180645053443  0.8536990701986157  1.0000
  C   C25       1.0  0.6810735345121657  0.48072151865881807  0.7979733242458806  1.0000
  C   C26       1.0  0.5721963732836955  0.4828754778187871  0.7603798490035559  1.0000
  C   C27       1.0  0.5883529683429244  0.48181551185179244  0.7022185931104732  1.0000
  C   C28       1.0  0.3479276229967923  0.48444214642184147  0.6906309071628128  1.0000
  C   C29       1.0  0.32794422136454676  0.48626341995553446  0.7463054657170077  1.0000
  C   C30       1.0  0.4369798709225493  0.485059492618177  0.7838017338936184  1.0000
  C   C31       1.0  0.5291192681400148  0.4812107222434891  0.8773274573163052  1.0000
  C   C32       1.0  0.4796662777209946  0.4823961675156809  0.6668788818332275  1.0000
  C   C33       1.0  0.4764312627694736  0.5620584504568387  0.21312227309112333  1.0000
  C   C34       1.0  0.4861332276569996  0.5630269307051279  0.3323330835548077  1.0000
  C   C35       1.0  0.5967481883014327  0.5529847741813898  0.24211078983440612  1.0000
  C   C36       1.0  0.36431939395789203  0.5900961779647177  0.3043860555460611  1.0000
  C   C37       1.0  0.6016823245122325  0.5544310990566218  0.29924383867403753  1.0000
  C   C38       1.0  0.35895979259221633  0.5893735289580633  0.24591648020548723  1.0000
  C   C39       1.0  0.747518228651522  0.5315414311782476  0.2356386599442644  1.0000
  C   C40       1.0  0.753215747466882  0.5344051403766131  0.3002540213928953  1.0000
  C   C41       1.0  0.9388311213827406  0.543459532261146  0.014485839966077704  1.0000
  C   C42       1.0  0.0819347647248563  0.4168663795380781  0.08631049994239252  1.0000
  C   C43       1.0  0.0791430514347127  0.5378108112147545  0.011262252936255403  1.0000
  C   C44       1.0  0.9375837065141897  0.41885487229168233  0.08813886933045721  1.0000
  C   C45       1.0  0.928426533125119  0.6255245848059661  0.9651892633662131  1.0000
  C   C46       1.0  0.08884233950791301  0.6158997542198821  0.960467178170731  1.0000
  C   C47       1.0  0.5072027255722986  0.8641011302886669  0.04014963365596461  1.0000
  C   C48       1.0  0.5123724389609734  0.1260295796495896  0.040879240852660814  1.0000
  C   C49       1.0  0.6272896411414662  0.9310132271624952  0.03950022907278591  1.0000
  C   C50       1.0  0.3881111510741135  0.0603991742485235  0.037353284226597304  1.0000
  C   C51       1.0  0.6298120748096282  0.05662162883118781  0.04142569976627191  1.0000
  C   C52       1.0  0.3853404364169037  0.9322164431038477  0.0411352965235992  1.0000
  C   C53       1.0  0.780365106470157  0.9207470161846206  0.038327047777386304  1.0000
  C   C54       1.0  0.7833112678266403  0.0630894983591617  0.0423564841297122  1.0000
  C   C55       1.0  0.852441700902375  0.3424587926467382  0.4125940086082451  1.0000
  C   C56       1.0  0.1415556193464838  0.3346125945974095  0.4164709962568693  1.0000
  C   C57       1.0  0.754196143829404  0.1225103188856878  0.5208184040870948  1.0000
  C   C58       1.0  0.7629790225985076  0.8726400005295789  0.49714246941487533  1.0000
  C   C59       1.0  0.2386937594780179  0.626816669352863  0.33617920280255487  1.0000
  C   C60       1.0  0.22471803756355513  0.6205900829848191  0.220801060059074  1.0000
  C   C61       1.0  0.15475506016741755  0.3468102142763528  0.12913085010768552  1.0000
  C   C62       1.0  0.8648102341155947  0.3436873903228985  0.1300908300590464  1.0000
  C   C63       1.0  0.25573902152864747  0.12315362065527322  0.026448142083594906  1.0000
  C   C64       1.0  0.24879190638996826  0.8717077618599876  0.0485771870234331  1.0000
  N   N1        1.0  0.13808543475005314  0.47620350019014523  0.49486626287146157  1.0000
  N   N2        1.0  0.8474348153108764  0.4755622170762523  0.49397972448602456  1.0000
  N   N3        1.0  0.8642564432011427  0.48580335754091675  0.05234950523290391  1.0000
  N   N4        1.0  0.1545548673291037  0.47779191278613814  0.0469123010151833  1.0000
  O   O1        1.0  0.6030121521870911  0.667227363071554  0.5172073933575732  1.0000
  O   O2        1.0  0.38300050202167313  0.6776333751148941  0.49235209644457706  1.0000
  O   O3        1.0  0.38071791765355556  0.5087364863293119  0.5809474060806181  1.0000
  O   O4        1.0  0.6028818350106705  0.45625208878202994  0.5820230149770467  1.0000
  O   O5        1.0  0.3745911017922623  0.30524213035560177  0.5098947224539715  1.0000
  O   O6        1.0  0.5945541500590893  0.3143753302060262  0.4831414978494949  1.0000
  O   O7        1.0  0.6102465157720401  0.5458472058437565  0.4148554205524704  1.0000
  O   O8        1.0  0.389953011317445  0.48843135310160324  0.4157400690871356  1.0000
  O   O9        1.0  0.40754637161461466  0.6711634362633064  0.02292444437535581  1.0000
  O   O10       1.0  0.6248603016744596  0.6807966519409876  0.051660435214891706  1.0000
  O   O11       1.0  0.62416437166398  0.5043315944301839  0.9648087034223353  1.0000
  O   O12       1.0  0.4003775255319297  0.4563874296979408  0.9602929857816848  1.0000
  O   O13       1.0  0.6384512671315151  0.3094136823013471  0.0406008570627421  1.0000
  O   O14       1.0  0.4145504381697265  0.3185200202007651  0.05941881150651081  1.0000
  O   O15       1.0  0.3759593337354232  0.549153740731434  0.12347262298240481  1.0000
  O   O16       1.0  0.595400528706719  0.49960350253471125  0.13306722099107302  1.0000
  F   F1        1.0  0.19796120236819803  0.48859258696342783  0.7656518783768078  1.0000
  F   F2        1.0  0.2923534225439682  0.489755224006423  0.8621789243310191  1.0000
  F   F3        1.0  0.8110600459243358  0.47943751655904543  0.7786104504461308  1.0000
  F   F4        1.0  0.7166154667390642  0.48109818993018666  0.681718047404239  1.0000
