data_image0
_chemical_formula_structural       Zn16H32C112S8Br8O52F16
_chemical_formula_sum              "Zn16 H32 C112 S8 Br8 O52 F16"
_cell_length_a       18.57291680920589
_cell_length_b       19.740570662524686
_cell_length_c       32.86171639687148
_cell_angle_alpha    86.06947830972393
_cell_angle_beta     73.58533195368454
_cell_angle_gamma    61.93272208953449

_space_group_name_H-M_alt    "P 1"
_space_group_IT_number       1

loop_
  _space_group_symop_operation_xyz
  'x, y, z'

loop_
  _atom_site_type_symbol
  _atom_site_label
  _atom_site_symmetry_multiplicity
  _atom_site_fract_x
  _atom_site_fract_y
  _atom_site_fract_z
  _atom_site_occupancy
  Zn  Zn1       1.0  0.8742097714431837  0.5555035618736356  0.518649300560547  1.0000
  Zn  Zn2       1.0  0.03821710711674333  0.4853245169963856  0.43845659809291965  1.0000
  Zn  Zn3       1.0  0.04194437559398521  0.398118458835981  0.5236002117934575  1.0000
  Zn  Zn4       1.0  0.04683726432212143  0.560129475800693  0.518405122179594  1.0000
  Zn  Zn5       1.0  0.6243161469887398  0.1920870789566891  0.7326842574206366  1.0000
  Zn  Zn6       1.0  0.4650321805380886  0.34983038546733514  0.7254764376985391  1.0000
  Zn  Zn7       1.0  0.4578123219149433  0.2657049179515737  0.8127468654914907  1.0000
  Zn  Zn8       1.0  0.4528457786956253  0.1924280260223341  0.7291199417492891  1.0000
  Zn  Zn9       1.0  0.46320366205642227  0.7614271560669504  0.312767469339768  1.0000
  Zn  Zn10      1.0  0.45324608484214907  0.6928548986738579  0.2308099836833009  1.0000
  Zn  Zn11      1.0  0.625603468672011  0.692710254222483  0.22903964462391008  1.0000
  Zn  Zn12      1.0  0.4582207715317281  0.8520051909338804  0.22653253846284122  1.0000
  Zn  Zn13      1.0  0.03469732217985918  0.9003193734866172  0.024686027332904818  1.0000
  Zn  Zn14      1.0  0.051906176579812814  0.05551176924143421  0.018282724741197895  1.0000
  Zn  Zn15      1.0  0.8759747034941157  0.05967323533081981  0.019852029963466595  1.0000
  Zn  Zn16      1.0  0.036471223136914074  0.9843544686311317  0.9372389444993203  1.0000
  H   H1        1.0  0.5430829009542606  0.4823887067525803  0.6217564414739059  1.0000
  H   H2        1.0  0.5482735709036531  0.5226503169885817  0.6670636312428329  1.0000
  H   H3        1.0  0.6442769230075669  0.570712257120789  0.6189811367910565  1.0000
  H   H4        1.0  0.638898333587214  0.530570276351142  0.5736574112384715  1.0000
  H   H5        1.0  0.3528733482837865  0.6739429810918481  0.4309848073109279  1.0000
  H   H6        1.0  0.2622778632633499  0.7622542821044077  0.4283872143284597  1.0000
  H   H7        1.0  0.16596403035807578  0.7143880383537892  0.476374215760238  1.0000
  H   H8        1.0  0.2565258303933503  0.6260865928202008  0.4788906402619943  1.0000
  H   H9        1.0  0.5472774637432991  0.7624514071160249  0.428057618252133  1.0000
  H   H10       1.0  0.5423834910596598  0.6741676105042131  0.4305100109047828  1.0000
  H   H11       1.0  0.638225809170727  0.6261499795856765  0.4785718330456987  1.0000
  H   H12       1.0  0.6433692167335748  0.7143026856963105  0.4761446100049582  1.0000
  H   H13       1.0  0.3336652100962354  0.1792991792240741  0.6310776118151296  1.0000
  H   H14       1.0  0.24305900780502304  0.21961146243532428  0.676444660478225  1.0000
  H   H15       1.0  0.14690257817188263  0.2676178941658876  0.6284303711516301  1.0000
  H   H16       1.0  0.2376194858957916  0.22731390846168859  0.5831025210564106  1.0000
  H   H17       1.0  0.9567304276983962  0.07656781781251712  0.8194056230967915  1.0000
  H   H18       1.0  0.9517722217595761  0.9883931385278402  0.8219033697696857  1.0000
  H   H19       1.0  0.8555908509490067  0.0363419352666483  0.7739759462119622  1.0000
  H   H20       1.0  0.860452552525615  0.12459830584762702  0.7714635353443455  1.0000
  H   H21       1.0  0.16608315818924527  0.21359184316990112  0.9759198785514869  1.0000
  H   H22       1.0  0.256956391778374  0.1254718725093369  0.978372779655615  1.0000
  H   H23       1.0  0.35275923141651333  0.17365917758604607  0.9303625441766882  1.0000
  H   H24       1.0  0.26199346788718003  0.2618292018042254  0.92799899822446  1.0000
  H   H25       1.0  0.2567974974423919  0.031105099994995604  0.07351665367453107  1.0000
  H   H26       1.0  0.16586200233911802  0.07150032086510551  0.11879725332242688  1.0000
  H   H27       1.0  0.2617049744029174  0.023487788632429805  0.1669381770902021  1.0000
  H   H28       1.0  0.3525344388919507  0.9832141224876665  0.12166646220191518  1.0000
  H   H29       1.0  0.9518056558570862  0.7271634309242215  0.08308154447346539  1.0000
  H   H30       1.0  0.956867536352732  0.7673747538541278  0.1284461179188483  1.0000
  H   H31       1.0  0.8607392969842564  0.7194549027427044  0.1764222468970685  1.0000
  H   H32       1.0  0.8559489964166219  0.6789317783689981  0.13108704636763946  1.0000
  C   C1        1.0  0.8623093371461861  0.5681419240166433  0.4310953437317124  1.0000
  C   C2        1.0  0.12344589419176802  0.3158009326775754  0.4385829161230959  1.0000
  C   C3        1.0  0.8635418772337148  0.4301130252086979  0.5684289227645396  1.0000
  C   C4        1.0  0.13810406882308968  0.43221187315367626  0.5684199158325001  1.0000
  C   C5        1.0  0.8757997583330591  0.683785606549442  0.5607396983114016  1.0000
  C   C6        1.0  0.1373889796844026  0.5691984679909226  0.4310134297909869  1.0000
  C   C7        1.0  0.6391254164594784  0.31777209949135704  0.681428166221842  1.0000
  C   C8        1.0  0.37757156124009567  0.43438555124412664  0.8107719913861757  1.0000
  C   C9        1.0  0.6359387570036433  0.18180863931255695  0.8195896320769194  1.0000
  C   C10       1.0  0.36172788355237634  0.1813050566071297  0.8181240500250269  1.0000
  C   C11       1.0  0.6235308822977856  0.06605360920729451  0.688714447277846  1.0000
  C   C12       1.0  0.3636308462984629  0.3192243224856099  0.680588141434754  1.0000
  C   C13       1.0  0.3631374821865592  0.680579388129587  0.31886774229528214  1.0000
  C   C14       1.0  0.6226222968078973  0.5660759599808003  0.18829317150525784  1.0000
  C   C15       1.0  0.6381553928768466  0.6806047169007529  0.3183222513940009  1.0000
  C   C16       1.0  0.6362376523659705  0.8194765141509136  0.1808357729318075  1.0000
  C   C17       1.0  0.3770646565580691  0.932426542541421  0.3120780174752937  1.0000
  C   C18       1.0  0.36182590760844846  0.8186927247904592  0.18122910893425367  1.0000
  C   C19       1.0  0.13740602808338312  0.9307783673484097  0.0687084168263752  1.0000
  C   C20       1.0  0.8804827666139374  0.1836092892214793  0.06118590609420239  1.0000
  C   C21       1.0  0.8611392778496025  0.9322833884327011  0.06908576702821992  1.0000
  C   C22       1.0  0.8616918078471727  0.06927881719148132  0.9315043779237158  1.0000
  C   C23       1.0  0.12098233584402611  0.8157600424816351  0.9393193511964881  1.0000
  C   C24       1.0  0.13788936708846222  0.0677758065134597  0.9307110337539228  1.0000
  C   C25       1.0  0.7368348460478772  0.8031371016052374  0.6009216474326564  1.0000
  C   C26       1.0  0.7625539367485104  0.946313082112766  0.6489977757405967  1.0000
  C   C27       1.0  0.8246836271525595  0.758399466749431  0.5859173401045792  1.0000
  C   C28       1.0  0.6746597415359331  0.9911728254624638  0.6638306442003453  1.0000
  C   C29       1.0  0.7852639049902236  0.8778138611752482  0.6260064262472226  1.0000
  C   C30       1.0  0.7140637078698118  0.8716774077570192  0.6238552637452841  1.0000
  C   C31       1.0  0.20225197635978984  0.2263799940857893  0.3690246787454114  1.0000
  C   C32       1.0  0.29824967117535556  0.022198375485451997  0.3816084365992509  1.0000
  C   C33       1.0  0.17288785063854556  0.24175857508620163  0.4130133394624664  1.0000
  C   C34       1.0  0.3276753409800293  0.0065945380720791  0.337680463727871  1.0000
  C   C35       1.0  0.2525460878306163  0.1022130025711405  0.3930933603939835  1.0000
  C   C36       1.0  0.24799120930973123  0.14628273250171023  0.35758020940609464  1.0000
  C   C37       1.0  0.6971524432938949  0.3446831045320237  0.652914559151192  1.0000
  C   C38       1.0  0.8083011750104276  0.4004256927657082  0.5970180634946658  1.0000
  C   C39       1.0  0.6665527510963827  0.417013965646845  0.6364725763062111  1.0000
  C   C40       1.0  0.8399838895764162  0.3273635355180531  0.6134217814706915  1.0000
  C   C41       1.0  0.7194930011296635  0.4435462544928015  0.6098573083836384  1.0000
  C   C42       1.0  0.7866220383586364  0.30059593660097755  0.6402351711849975  1.0000
  C   C43       1.0  0.5858607419653266  0.48992521217773816  0.6360628896799199  1.0000
  C   C44       1.0  0.6459416479635111  0.520077449756968  0.6059180915397917  1.0000
  C   C45       1.0  0.3059079667693112  0.6520219950540777  0.3464351392029883  1.0000
  C   C46       1.0  0.1941357442160054  0.59674063887595  0.4019871264534983  1.0000
  C   C47       1.0  0.28017409609381616  0.6637338504263965  0.3907896250850911  1.0000
  C   C48       1.0  0.2195873174470222  0.584454210595986  0.35724062319999916  1.0000
  C   C49       1.0  0.22691295665045896  0.6374486612727991  0.4172452595604028  1.0000
  C   C50       1.0  0.27322793551362395  0.6111021783198539  0.3305363965400332  1.0000
  C   C51       1.0  0.2882960370519214  0.699403805281996  0.4275240544034844  1.0000
  C   C52       1.0  0.22790343653249315  0.6694334187262072  0.45756836389523414  1.0000
  C   C53       1.0  0.696230146197408  0.6521479020950663  0.3460586165445036  1.0000
  C   C54       1.0  0.8072597473571436  0.5963502300079994  0.4019322274367099  1.0000
  C   C55       1.0  0.6656394318442692  0.6638607722354166  0.39044423713866655  1.0000
  C   C56       1.0  0.8390950691840543  0.5843069805900143  0.3571897082485974  1.0000
  C   C57       1.0  0.718517345790218  0.6373165643466693  0.41701864163867713  1.0000
  C   C58       1.0  0.7857115833515705  0.6111858851492613  0.33037912794657853  1.0000
  C   C59       1.0  0.58496140630767  0.6995953914281685  0.4271390096490535  1.0000
  C   C60       1.0  0.6450862772022173  0.669453803961666  0.4572862544805929  1.0000
  C   C61       1.0  0.30611475143992806  0.3493827841809889  0.6526110251317617  1.0000
  C   C62       1.0  0.1944667485467804  0.40530186404580354  0.597002169105238  1.0000
  C   C63       1.0  0.27285662728937154  0.3064390832477102  0.64000965033361  1.0000
  C   C64       1.0  0.22726991749022574  0.4493652560283935  0.6096260457473051  1.0000
  C   C65       1.0  0.21971465471573026  0.333024710393282  0.6135215370675411  1.0000
  C   C66       1.0  0.2808279760099097  0.4225512160178794  0.6363174542401637  1.0000
  C   C67       1.0  0.2717254020153205  0.2300072399167945  0.6441396448553576  1.0000
  C   C68       1.0  0.211492756582473  0.26011421452800926  0.614071322979882  1.0000
  C   C69       1.0  0.29812807966320787  0.5834897681970259  0.8208880842652562  1.0000
  C   C70       1.0  0.2017500177313778  0.6666487283600162  0.929275680120881  1.0000
  C   C71       1.0  0.327799185657696  0.5097795033255608  0.8350650165629077  1.0000
  C   C72       1.0  0.17171978444543606  0.7403190214840548  0.9150548788727022  1.0000
  C   C73       1.0  0.2478122089071419  0.6094449612962834  0.8949553870936385  1.0000
  C   C74       1.0  0.2521590998088216  0.6406956464168515  0.8551785099378577  1.0000
  C   C75       1.0  0.8033281086886247  0.0982445161774592  0.903959682398245  1.0000
  C   C76       1.0  0.69149438706593  0.15399490220842438  0.8485264308047604  1.0000
  C   C77       1.0  0.833525778177254  0.0867521367723185  0.8595770985655166  1.0000
  C   C78       1.0  0.660183110443377  0.1658895277957768  0.8932538122517003  1.0000
  C   C79       1.0  0.780320397457885  0.11331392399785763  0.8331421128659784  1.0000
  C   C80       1.0  0.7138454730586687  0.13916959864710077  0.9199002127726955  1.0000
  C   C81       1.0  0.9140443210683671  0.051224969447567  0.8228270651252956  1.0000
  C   C82       1.0  0.8537244864379261  0.0813160806670794  0.7927985852505515  1.0000
  C   C83       1.0  0.1942205795115157  0.0958527380332299  0.9015948289379736  1.0000
  C   C84       1.0  0.30517719994147535  0.1520400283626131  0.845844136877787  1.0000
  C   C85       1.0  0.2270338728067856  0.1366512107489655  0.9167742582852725  1.0000
  C   C86       1.0  0.27250649961016643  0.11095202598446721  0.8301117792428414  1.0000
  C   C87       1.0  0.2798454891946065  0.1634263821430721  0.890247316291493  1.0000
  C   C88       1.0  0.21921213786117721  0.08404181652218062  0.8568553878651386  1.0000
  C   C89       1.0  0.22808264422972965  0.1687365140190167  0.9570685467983254  1.0000
  C   C90       1.0  0.2881400873807323  0.19898124911443923  0.9269880445229007  1.0000
  C   C91       1.0  0.6430149770473647  0.4463332302526056  0.1488404510589021  1.0000
  C   C92       1.0  0.8600558090184479  0.30307527151067853  0.10102506376812671  1.0000
  C   C93       1.0  0.6713291636561035  0.49116550990547136  0.1636235419359764  1.0000
  C   C94       1.0  0.831897187276283  0.2582850107267021  0.08615115502798429  1.0000
  C   C95       1.0  0.7913453502245602  0.3716180906012951  0.12389821332898521  1.0000
  C   C96       1.0  0.7118890480385148  0.3777142177110164  0.1260263275807532  1.0000
  C   C97       1.0  0.19404237262891405  0.901089298348566  0.09709271113689512  1.0000
  C   C98       1.0  0.3052690103998259  0.8455324071897508  0.15281291027373098  1.0000
  C   C99       1.0  0.22686899502180333  0.944290552326727  0.10982491403296989  1.0000
  C   C100      1.0  0.27272643425116877  0.8012161838765266  0.14016772832020766  1.0000
  C   C101      1.0  0.2797596799680448  0.9178447995043939  0.1364040225260439  1.0000
  C   C102      1.0  0.21920022772007286  0.8279765645696386  0.11345588688291032  1.0000
  C   C103      1.0  0.227858573893272  0.020800657803540904  0.10579001663796818  1.0000
  C   C104      1.0  0.2879303822859569  0.9907305710742874  0.1359501874859816  1.0000
  C   C105      1.0  0.8030052851102385  0.9051944615641859  0.09721962525163254  1.0000
  C   C106      1.0  0.6916275488900395  0.8493382773142883  0.1526207085485609  1.0000
  C   C107      1.0  0.833507398077202  0.8327621876046294  0.11355126806324026  1.0000
  C   C108      1.0  0.6600639694708973  0.9225250931882697  0.13636306626393951  1.0000
  C   C109      1.0  0.7804600119594269  0.8061567073957717  0.1399667415399577  1.0000
  C   C110      1.0  0.7135341724092398  0.9493808189069027  0.10974468182961772  1.0000
  C   C111      1.0  0.9141427409026902  0.7598885028784252  0.11407641344164429  1.0000
  C   C112      1.0  0.8539618979981752  0.7297408097503963  0.14411858015614604  1.0000
  S   S1        1.0  0.8795761130993257  0.8002398623232094  0.6000005969177309  1.0000
  S   S2        1.0  0.6197585684112282  0.9493815885387917  0.6496925020172101  1.0000
  S   S3        1.0  0.201191249136393  0.1582929624053548  0.4403269076041738  1.0000
  S   S4        1.0  0.2994210492592657  0.0900606976201814  0.3103626920007301  1.0000
  S   S5        1.0  0.29949795967232967  0.5105483716384851  0.8904880015145835  1.0000
  S   S6        1.0  0.20009049956207997  0.7396193763137758  0.8596567996427567  1.0000
  S   S7        1.0  0.7821542714548213  0.4493490835685847  0.14964635735640294  1.0000
  S   S8        1.0  0.7210718575232775  0.30006724914144906  0.100184005057038  1.0000
  Br  Br1       1.0  0.6533409639519406  0.7808761068415393  0.593435117279185  1.0000
  Br  Br2       1.0  0.8459904374743701  0.9685841262300269  0.6564339917026629  1.0000
  Br  Br3       1.0  0.1870585961235491  0.29799397845082604  0.3275021376875173  1.0000
  Br  Br4       1.0  0.3133466738205897  0.9506719985876514  0.4233263162522363  1.0000
  Br  Br5       1.0  0.3128766267197207  0.6101958861614561  0.7642856888861473  1.0000
  Br  Br6       1.0  0.18698818209923465  0.6400415541704731  0.9858686562931708  1.0000
  Br  Br7       1.0  0.5300199311189643  0.46855600915265694  0.1561798766399392  1.0000
  Br  Br8       1.0  0.973327704303905  0.2807802252311902  0.09345255999262041  1.0000
  O   O1        1.0  0.9993054111866045  0.5002327879552055  0.500844647793528  1.0000
  O   O2        1.0  0.8234056873388836  0.583283594301662  0.47089672518949743  1.0000
  O   O3        1.0  0.1021899646103889  0.37644645157583073  0.41849156852275377  1.0000
  O   O4        1.0  0.9436309233384678  0.3872055274792388  0.5587604662869906  1.0000
  O   O5        1.0  0.9423137972004837  0.5317668457430145  0.4143321118287062  1.0000
  O   O6        1.0  0.8241317575686508  0.4972661413629638  0.5561093340944225  1.0000
  O   O7        1.0  0.1062693622539683  0.3123058508610299  0.4790782207382946  1.0000
  O   O8        1.0  0.11570146554503681  0.3841914194742273  0.559496626686041  1.0000
  O   O9        1.0  0.9566626386247492  0.6571965208919508  0.551043271029755  1.0000
  O   O10       1.0  0.117356091566073  0.4992360479947706  0.5554200083507581  1.0000
  O   O11       1.0  0.8358816157275015  0.6527196403830046  0.5509107956512337  1.0000
  O   O12       1.0  0.1123494390433493  0.5311105223328738  0.4142475065709235  1.0000
  O   O13       1.0  0.11884748257826062  0.5865949925733317  0.47074393589567626  1.0000
  O   O14       1.0  0.49939963315890173  0.24973102727658872  0.7502148235695785  1.0000
  O   O15       1.0  0.6723588640688619  0.2512782151389245  0.6950168515266811  1.0000
  O   O16       1.0  0.4001726501894823  0.4340965458379316  0.7703899735803077  1.0000
  O   O17       1.0  0.5558219152542136  0.2187174372389435  0.8360987144753267  1.0000
  O   O18       1.0  0.5596965486519067  0.36521573558783166  0.6897022715565697  1.0000
  O   O19       1.0  0.675241993145903  0.16545933387631354  0.7798769392283803  1.0000
  O   O20       1.0  0.39364882344177937  0.3755709152372403  0.8328369505603631  1.0000
  O   O21       1.0  0.3841431141478111  0.2187036425022839  0.8376659720475461  1.0000
  O   O22       1.0  0.5426284891017373  0.09463327978667019  0.6967812222193289  1.0000
  O   O23       1.0  0.38274049288394  0.1670620318119234  0.7781094202019999  1.0000
  O   O24       1.0  0.6635960413293631  0.0955194048135084  0.6999233918877295  1.0000
  O   O25       1.0  0.3906340577193532  0.3624927906171465  0.6903952151324119  1.0000
  O   O26       1.0  0.38087034758678584  0.25140418685317195  0.6921905916664173  1.0000
  O   O27       1.0  0.500650667655961  0.7507399887460551  0.2502790312647321  1.0000
  O   O28       1.0  0.3875950164407485  0.7162591103717943  0.3383108895765474  1.0000
  O   O29       1.0  0.5418717928722004  0.5959387002424918  0.1987694256583836  1.0000
  O   O30       1.0  0.6715027238729688  0.667842053540653  0.2783049387773957  1.0000
  O   O31       1.0  0.38280842105852725  0.6673070807856265  0.2788852545490599  1.0000
  O   O32       1.0  0.5586464462121157  0.7157194734125482  0.33798296827890084  1.0000
  O   O33       1.0  0.6664367932592511  0.5945693275086085  0.19700337895571352  1.0000
  O   O34       1.0  0.6754266850036147  0.7514388697321194  0.19216492975743898  1.0000
  O   O35       1.0  0.39393199429139975  0.9365656493275053  0.2716622766921475  1.0000
  O   O36       1.0  0.5561612964625411  0.8630201164381007  0.19116149466054824  1.0000
  O   O37       1.0  0.39826666498642266  0.8715989277054491  0.3320433434396861  1.0000
  O   O38       1.0  0.3833317368464931  0.7512406456384113  0.193643834168995  1.0000
  O   O39       1.0  0.3838664244468646  0.8666673104286673  0.1906390522138395  1.0000
  O   O40       1.0  0.0008097717092923002  0.00015640211226039964  0.999664703843365  1.0000
  O   O41       1.0  0.10893270934749211  0.8881836648412715  0.0596784542755415  1.0000
  O   O42       1.0  0.9613452031254397  0.15272188887556132  0.050785870374326685  1.0000
  O   O43       1.0  0.8281340466033672  0.9996642454347294  0.056510312171653254  1.0000
  O   O44       1.0  0.1224897436713305  0.9975411015085242  0.05592042970513942  1.0000
  O   O45       1.0  0.9405058206956554  0.8841934346804338  0.06008545565522636  1.0000
  O   O46       1.0  0.8356919376818865  0.15657165519581176  0.05220088763000055  1.0000
  O   O47       1.0  0.828560285319  0.08477440683542169  0.9714332836246485  1.0000
  O   O48       1.0  0.10224726121984405  0.8744946911968016  0.9171439899930576  1.0000
  O   O49       1.0  0.9410199766783479  0.030975183264757802  0.9120114235822426  1.0000
  O   O50       1.0  0.10022008666484794  0.8160863231872567  0.9796940737940361  1.0000
  O   O51       1.0  0.12255871803390052  0.08278630533778401  0.9704363130441109  1.0000
  O   O52       1.0  0.11022584088489397  0.03194236757073551  0.9140939480371415  1.0000
  F   F1        1.0  0.9242138149256788  0.2784995117654248  0.6042005424172174  1.0000
  F   F2        1.0  0.8264378259809319  0.2294805015819179  0.6533050996179242  1.0000
  F   F3        1.0  0.19365684491680904  0.5461793626963145  0.3373601845031687  1.0000
  F   F4        1.0  0.29180093612713875  0.5950017581346075  0.2884810381614002  1.0000
  F   F5        1.0  0.9232278993314932  0.5458591661773299  0.33741380086746636  1.0000
  F   F6        1.0  0.825570288564613  0.5951338865043354  0.2883226800174583  1.0000
  F   F7        1.0  0.2091184209397667  0.5204498225474906  0.5964886087728232  1.0000
  F   F8        1.0  0.30708107701384774  0.4714326440723938  0.6454381966168228  1.0000
  F   F9        1.0  0.575990994829155  0.2039007793950276  0.913171368030433  1.0000
  F   F10       1.0  0.6743320365020509  0.15489652926819994  0.961982152501001  1.0000
  F   F11       1.0  0.29067452861436754  0.0951264109245784  0.788000607936425  1.0000
  F   F12       1.0  0.1930998423659886  0.045799294103034106  0.8369882613650859  1.0000
  F   F13       1.0  0.2910675981371185  0.7301296943190962  0.15318309748675318  1.0000
  F   F14       1.0  0.1931502770929824  0.7790381149366895  0.10423854226429802  1.0000
  F   F15       1.0  0.5758342828642498  0.9713758528870928  0.1454880653198245  1.0000
  F   F16       1.0  0.6739463126255388  0.020432770796588805  0.09665672289534652  1.0000
