data_image0
_chemical_formula_structural       Zn8H24C48N6O26
_chemical_formula_sum              "Zn8 H24 C48 N6 O26"
_cell_length_a       18.36954875997024
_cell_length_b       18.424645139782566
_cell_length_c       18.553043499664295
_cell_angle_alpha    90.96157010796699
_cell_angle_beta     119.37518887682624
_cell_angle_gamma    119.05136751414545

_space_group_name_H-M_alt    "P 1"
_space_group_IT_number       1

loop_
  _space_group_symop_operation_xyz
  'x, y, z'

loop_
  _atom_site_type_symbol
  _atom_site_label
  _atom_site_symmetry_multiplicity
  _atom_site_fract_x
  _atom_site_fract_y
  _atom_site_fract_z
  _atom_site_occupancy
  Zn  Zn1       1.0  0.9122533020384009  0.4517525595925988  0.045196140481856176  1.0000
  Zn  Zn2       1.0  0.907379064977249  0.4575087576216672  0.871177974394918  1.0000
  Zn  Zn3       1.0  0.09086624157043832  0.4660144430161066  0.04684537391376145  1.0000
  Zn  Zn4       1.0  0.08282382769121448  0.6322227605803618  0.04271540860833061  1.0000
  Zn  Zn5       1.0  0.0896469292113267  0.04485379251108409  0.4549557070693453  1.0000
  Zn  Zn6       1.0  0.9139242667085341  0.043591595349688796  0.45422591167481846  1.0000
  Zn  Zn7       1.0  0.08835127931634189  0.04598460812824359  0.6243703940007138  1.0000
  Zn  Zn8       1.0  0.912854124979006  0.8690620542851447  0.4534559062062016  1.0000
  H   H1        1.0  0.045440368890403544  0.7219503488153048  0.3920496976019692  1.0000
  H   H2        1.0  0.12951703834961137  0.22336156500949034  0.811393779853539  1.0000
  H   H3        1.0  0.166373686750397  0.7718952711714521  0.3232453782247049  1.0000
  H   H4        1.0  0.9619658712359324  0.2297783655294693  0.6543319023808679  1.0000
  H   H5        1.0  0.9295600338335246  0.264022350260511  0.7466332744922539  1.0000
  H   H6        1.0  0.39552886827833317  0.19538049591231746  0.8028187760825177  1.0000
  H   H7        1.0  0.4234499335134813  0.18245432310702364  0.6533704456100368  1.0000
  H   H8        1.0  0.5764974785181493  0.3131471338413049  0.7471812425961845  1.0000
  H   H9        1.0  0.12194904515880715  0.21046778819874123  0.3089154487177623  1.0000
  H   H10       1.0  0.964406762222154  0.23061725342594022  0.3078805228314607  1.0000
  H   H11       1.0  0.5231486373480791  0.1922508427139604  0.9257687429996936  1.0000
  H   H12       1.0  0.9381690548093005  0.2674617126389832  0.1899166621292069  1.0000
  H   H13       1.0  0.6484202754497801  0.2417799890823388  0.9524935379633774  1.0000
  H   H14       1.0  0.6142726666709278  0.30837397436704345  0.9757417192841727  1.0000
  H   H15       1.0  0.2384555544675137  0.33616092671686454  0.30296721190639897  1.0000
  H   H16       1.0  0.1699067068440385  0.3109696289350978  0.18707444034386367  1.0000
  H   H17       1.0  0.2116546908008842  0.4102052378088529  0.2533047906086309  1.0000
  H   H18       1.0  0.5889910716007872  0.6887902681341556  0.2700914215825064  1.0000
  H   H19       1.0  0.5839835567202768  0.8482278822778464  0.3129350257189287  1.0000
  H   H20       1.0  0.4037278455060901  0.6000058422396536  0.19853325037002637  1.0000
  H   H21       1.0  0.41893878946165575  0.7737897607911106  0.19264277963824836  1.0000
  H   H22       1.0  0.8849117030325288  0.6971368408913817  0.5997229312194889  1.0000
  H   H23       1.0  0.8968644967887297  0.5977051720948621  0.6861050639702453  1.0000
  H   H24       1.0  0.04286993403723462  0.7659318831747867  0.8479237324149196  1.0000
  C   C1        1.0  0.9913988308623586  0.6364295314436955  0.8613374447494522  1.0000
  C   C2        1.0  0.006528549947141451  0.3038275247763379  0.19080430391634448  1.0000
  C   C3        1.0  0.5535514083263275  0.7233156878079323  0.2665549567198155  1.0000
  C   C4        1.0  0.005441483461844133  0.3614772948361704  0.13713383985786723  1.0000
  C   C5        1.0  0.6145299451834347  0.8103424883973389  0.31225326521130387  1.0000
  C   C6        1.0  0.4436570049137741  0.6714817202522523  0.2147947563838457  1.0000
  C   C7        1.0  0.3863750816181905  0.7039916339093394  0.18391825706164872  1.0000
  C   C8        1.0  0.9492698929609631  0.7256596955086465  0.6684442296962275  1.0000
  C   C9        1.0  0.024051265097845994  0.8121146140324312  0.6938941881772751  1.0000
  C   C10       1.0  0.9463336246904105  0.6686693833595213  0.721040139222616  1.0000
  C   C11       1.0  0.996170772964298  0.6965578640859318  0.8092353035952585  1.0000
  C   C12       1.0  0.07092080714714652  0.8331171385716374  0.26636045880437115  1.0000
  C   C13       1.0  0.07647393066513784  0.24225659095100127  0.7790270721898552  1.0000
  C   C14       1.0  0.01257387094673131  0.2095840362605159  0.6909138821770071  1.0000
  C   C15       1.0  0.08096017157965453  0.30311825918659707  0.8356397578105402  1.0000
  C   C16       1.0  0.7218771005970692  0.3645366305534665  0.8681149993127589  1.0000
  C   C17       1.0  0.0003665736872165139  0.3071567223389664  0.8108948193970776  1.0000
  C   C18       1.0  0.43970969695008927  0.20922001346808367  0.775203111134225  1.0000
  C   C19       1.0  0.38724803344511827  0.17678811976711017  0.6871236407659539  1.0000
  C   C20       1.0  0.5495912978814984  0.25861016355929667  0.8381660263034548  1.0000
  C   C21       1.0  0.6105345517945435  0.3101646174966603  0.8134859229079723  1.0000
  C   C22       1.0  0.7261542247937594  0.8618804720597235  0.36409220174865436  1.0000
  C   C23       1.0  0.9734537972597719  0.7617759773205036  0.17286034858343408  1.0000
  C   C24       1.0  0.27589357720945873  0.12952625148656685  0.6309389909998799  1.0000
  C   C25       1.0  0.008098186836591009  0.14567619185622496  0.3687730651124923  1.0000
  C   C26       1.0  0.011107104363979704  0.8640865243097551  0.6326633472757095  1.0000
  C   C27       1.0  0.007354481187441255  0.14509591014893886  0.6365113177878925  1.0000
  C   C28       1.0  0.27480726115158655  0.6464785036548618  0.13449986703258796  1.0000
  C   C29       1.0  0.002342093140093529  0.8623595821194597  0.35940274981867054  1.0000
  C   C30       1.0  5.570670268177929e-05  0.3665580824012834  0.8651479244040277  1.0000
  C   C31       1.0  0.9968624999985136  0.6330657220550007  0.14282995260343492  1.0000
  C   C32       1.0  0.09212463707918048  0.760995355751646  0.29231577149683824  1.0000
  C   C33       1.0  0.02601072412014091  0.7331771644468004  0.32945450239365937  1.0000
  C   C34       1.0  0.9064129420312453  0.7336982584708948  0.210695862227901  1.0000
  C   C35       1.0  0.00401737842827985  0.8041706749734059  0.30368625708213415  1.0000
  C   C36       1.0  0.11791770579183944  0.8596875656571397  0.7782533758788831  1.0000
  C   C37       1.0  0.17634039920408634  0.3567722363592337  0.9194019894658466  1.0000
  C   C38       1.0  0.5853977058610338  0.2491078629919342  0.9275717679093204  1.0000
  C   C39       1.0  0.14424027473246048  0.9210963669530371  0.2801570588178208  1.0000
  C   C40       1.0  0.9444320123595559  0.7745366940670306  0.09011588394564267  1.0000
  C   C41       1.0  0.810490436240883  0.7214564663857813  0.16926869893021754  1.0000
  C   C42       1.0  0.8543828244474836  0.5737406169636043  0.22209804306910289  1.0000
  C   C43       1.0  0.18152851681494298  0.340715702152579  0.24689365011925452  1.0000
  C   C44       1.0  0.9290549999412007  0.6616909240002327  0.23726844937134217  1.0000
  C   C45       1.0  0.9963113677439493  0.6905941459410838  0.2003279077856633  1.0000
  C   C46       1.0  0.07355820810158058  0.2345981340101203  0.2909011121407232  1.0000
  C   C47       1.0  0.012895392976830055  0.20801370138300251  0.3194306521735299  1.0000
  C   C48       1.0  0.08363993268415727  0.2943746300161791  0.24026353063332812  1.0000
  N   N1        1.0  0.1966018226246575  0.8987830628439539  0.8461680577460698  1.0000
  N   N2        1.0  0.257884645257505  0.3972194211126308  0.9843203233659424  1.0000
  N   N3        1.0  0.20570730058248884  0.9920820440308584  0.29077370841214634  1.0000
  N   N4        1.0  0.9196098825802462  0.783945403098144  0.021744204560874784  1.0000
  N   N5        1.0  0.7323864152549291  0.7124291523663473  0.13625011104680604  1.0000
  N   N6        1.0  0.7929135976019736  0.5027179477526856  0.21139890057105495  1.0000
  O   O1        1.0  0.997109647443281  0.5028635376280022  0.000783551249746504  1.0000
  O   O2        1.0  0.07473710800983448  0.9471173731921494  0.6690828731163379  1.0000
  O   O3        1.0  0.9460926370069911  0.12313482518865018  0.5537232123898903  1.0000
  O   O4        1.0  0.04352977212753472  0.6753246975488664  0.9439272734552376  1.0000
  O   O5        1.0  0.9494589993371388  0.8217445101357653  0.38854618451449596  1.0000
  O   O6        1.0  0.0628948784279117  0.1170322282365888  0.6757192367658292  1.0000
  O   O7        1.0  0.05228615161785633  0.9438183586081833  0.3707761217712502  1.0000
  O   O8        1.0  0.07183514473608446  0.12509808065689748  0.392693966051965  1.0000
  O   O9        1.0  0.9386597443513052  0.8215640646224425  0.551845175420297  1.0000
  O   O10       1.0  0.7712764516104472  0.9454575395100449  0.39252988756489066  1.0000
  O   O11       1.0  0.231032411620987  0.12287896767639947  0.6681617901712897  1.0000
  O   O12       1.0  0.768430196793865  0.37945613916547666  0.9510291508772041  1.0000
  O   O13       1.0  0.9394842167256099  0.37920833819165267  0.11565339350006093  1.0000
  O   O14       1.0  0.7639231953404034  0.3936333197475931  0.8271406558844775  1.0000
  O   O15       1.0  0.23310985847862742  0.5642441202575909  0.12336611640600374  1.0000
  O   O16       1.0  0.9260399985807978  0.3746854534920487  0.8246485653609242  1.0000
  O   O17       1.0  0.059759895281473394  0.6757232194092492  0.12349570742859575  1.0000
  O   O18       1.0  0.07230700842337968  0.4033115983573551  0.9463184372891149  1.0000
  O   O19       1.0  0.9366585047488413  0.5506113876658532  0.12085774786233118  1.0000
  O   O20       1.0  0.22861976967600828  0.684805904702898  0.10716858206825457  1.0000
  O   O21       1.0  0.9384800315741088  0.5536655750505304  0.8216742599454534  1.0000
  O   O22       1.0  0.06794781757446343  0.38895407550116795  0.11525973668280903  1.0000
  O   O23       1.0  0.999806481670063  0.9980728633753625  0.4953583012422343  1.0000
  O   O24       1.0  0.7686676389412597  0.820681925257773  0.3769158198198923  1.0000
  O   O25       1.0  0.23274598400059426  0.09899809545269989  0.5481417468289963  1.0000
  O   O26       1.0  0.9393745546503707  0.11736260897500729  0.3833915654588082  1.0000
