data_image0
_chemical_formula_structural       Cd4H28C20N8O20
_chemical_formula_sum              "Cd4 H28 C20 N8 O20"
_cell_length_a       8.300510412034908
_cell_length_b       8.930718891074028
_cell_length_c       12.326949732996372
_cell_angle_alpha    99.85317703415438
_cell_angle_beta     89.99969552823035
_cell_angle_gamma    90.00018748726723

_space_group_name_H-M_alt    "P 1"
_space_group_IT_number       1

loop_
  _space_group_symop_operation_xyz
  'x, y, z'

loop_
  _atom_site_type_symbol
  _atom_site_label
  _atom_site_symmetry_multiplicity
  _atom_site_fract_x
  _atom_site_fract_y
  _atom_site_fract_z
  _atom_site_occupancy
  Cd  Cd1       1.0  0.1786626191423295  0.07965550282787599  0.6156280147852087  1.0000
  Cd  Cd2       1.0  0.6786576011991697  0.9203325850933907  0.8843708190489182  1.0000
  Cd  Cd3       1.0  0.8213387596674123  0.9203371189050602  0.3843740112350106  1.0000
  Cd  Cd4       1.0  0.32134016338613247  0.07966126919784237  0.11562895003633862  1.0000
  H   H1        1.0  0.16352147934817654  0.9434235976690815  0.3699221072864773  1.0000
  H   H2        1.0  0.6635250464197711  0.056573301138541886  0.13008120884692434  1.0000
  H   H3        1.0  0.8364762852393426  0.05657476860381649  0.6300791239515888  1.0000
  H   H4        1.0  0.3364811513686732  0.9434282802142344  0.8699253553042682  1.0000
  H   H5        1.0  0.3208606008518232  0.5879378296736064  0.3621333969893357  1.0000
  H   H6        1.0  0.8208701877312663  0.4120481574621735  0.13786534319067562  1.0000
  H   H7        1.0  0.6791383684875782  0.41205274519964524  0.6378626530002336  1.0000
  H   H8        1.0  0.17914082903623554  0.5879466720107233  0.8621386242650716  1.0000
  H   H9        1.0  0.0387335630196617  0.2331267505239154  0.4589955220743676  1.0000
  H   H10       1.0  0.5387307205364137  0.7668719801567506  0.041012566392808515  1.0000
  H   H11       1.0  0.9612605873119123  0.7668680467556684  0.5410092523257434  1.0000
  H   H12       1.0  0.4612694535301786  0.23313300930635714  0.9589944891954051  1.0000
  H   H13       1.0  0.22925810519741674  0.2002992808868882  0.415509072601104  1.0000
  H   H14       1.0  0.7292562395073717  0.7996976685363961  0.08449644824434438  1.0000
  H   H15       1.0  0.7707324309151886  0.7997012931070842  0.5844941001002084  1.0000
  H   H16       1.0  0.27074513931142974  0.2003051453733278  0.9155078589738751  1.0000
  H   H17       1.0  0.0765556800969662  0.056833461724423294  0.2924910324648167  1.0000
  H   H18       1.0  0.5765557587558449  0.9431666827063054  0.2075122540023884  1.0000
  H   H19       1.0  0.9234348560129036  0.943164840191507  0.7075118126184137  1.0000
  H   H20       1.0  0.4234492342971663  0.0568349951684368  0.7924918894008501  1.0000
  H   H21       1.0  0.5282039095733283  0.15837991651129357  0.616836889693694  1.0000
  H   H22       1.0  0.0281950570564575  0.8416206527921233  0.8831561713700469  1.0000
  H   H23       1.0  0.4717998787442497  0.8416218578854143  0.38316483296159026  1.0000
  H   H24       1.0  0.9718015028067628  0.15837904256508037  0.1168403821791628  1.0000
  H   H25       1.0  0.4349336413760909  0.28621625569859793  0.6994512748346368  1.0000
  H   H26       1.0  0.9349321681814544  0.7137733810312951  0.8005509151379683  1.0000
  H   H27       1.0  0.565061713710435  0.7137786381056515  0.30055107881355536  1.0000
  H   H28       1.0  0.0650631868906899  0.28622024803617313  0.19945450236776452  1.0000
  C   C1        1.0  0.3375001624630585  0.7920430134932348  0.549284970492053  1.0000
  C   C2        1.0  0.837496907768923  0.20795458263351915  0.9507130379504077  1.0000
  C   C3        1.0  0.6625072401012203  0.20795999346986344  0.4507144952163885  1.0000
  C   C4        1.0  0.16249483312655144  0.7920452414160408  0.04928028794013527  1.0000
  C   C5        1.0  0.421438199471531  0.6411559860045201  0.5257400861872839  1.0000
  C   C6        1.0  0.9214292703766775  0.3588393972272286  0.9742605464463028  1.0000
  C   C7        1.0  0.5785704078329844  0.3588402369002068  0.4742575897482979  1.0000
  C   C8        1.0  0.07856247048866291  0.6411567613097516  0.025738743350281364  1.0000
  C   C9        1.0  0.5585254958378131  0.688058669428095  0.7130862629081136  1.0000
  C   C10       1.0  0.058532391215941  0.3119628347350343  0.7868991571226048  1.0000
  C   C11       1.0  0.44147588302329405  0.31194456274933197  0.2869075543937072  1.0000
  C   C12       1.0  0.9414677829136551  0.6880517578312961  0.21309629827160143  1.0000
  C   C13       1.0  0.5202401537788788  0.5897814001733507  0.604573664022901  1.0000
  C   C14       1.0  0.0202320814246946  0.4102213590340186  0.8954213646642161  1.0000
  C   C15       1.0  0.47976604405752  0.41021728785336364  0.3954194980348475  1.0000
  C   C16       1.0  0.9797644784320171  0.5897782719743105  0.1045768027182774  1.0000
  C   C17       1.0  0.4017480931640165  0.5503285717068283  0.4221492586556296  1.0000
  C   C18       1.0  0.9017510606621714  0.44966772430825586  0.07785311072563418  1.0000
  C   C19       1.0  0.5982532856717526  0.4496643074216139  0.5778463120314186  1.0000
  C   C20       1.0  0.09825272764597769  0.550339569411392  0.9221534655580755  1.0000
  N   N1        1.0  0.12987243628250414  0.1548918636733845  0.4492750453796149  1.0000
  N   N2        1.0  0.6298709994024776  0.845106095847548  0.05072854516036779  1.0000
  N   N3        1.0  0.8701217140661868  0.8451064704210297  0.550726992781037  1.0000
  N   N4        1.0  0.3701279699245745  0.15489558202045833  0.9492755982527684  1.0000
  N   N5        1.0  0.07771910466006911  0.025985788066698497  0.3693576701746153  1.0000
  N   N6        1.0  0.5777211066451998  0.974013222931369  0.13064544865672903  1.0000
  N   N7        1.0  0.9222762504291921  0.9740113778155997  0.6306450110916586  1.0000
  N   N8        1.0  0.4222826816621038  0.025990694845638998  0.8693598292832123  1.0000
  O   O1        1.0  0.33509714363330545  0.8726782879616336  0.4723875024338255  1.0000
  O   O2        1.0  0.8350945453578831  0.12732477161301153  0.027613648112677004  1.0000
  O   O3        1.0  0.6649138731442861  0.12732225388082702  0.527616477150474  1.0000
  O   O4        1.0  0.1649116524952916  0.8726718373822847  0.9723743448271166  1.0000
  O   O5        1.0  0.2710256449649505  0.8343870794272519  0.6420008801341552  1.0000
  O   O6        1.0  0.7710205649812919  0.16560803147377356  0.8579986329984595  1.0000
  O   O7        1.0  0.7289877813211805  0.1656125194255083  0.3579980941372725  1.0000
  O   O8        1.0  0.22897238067032083  0.8344008808893407  0.1419960033624221  1.0000
  O   O9        1.0  0.6302213471385941  0.8137869826323866  0.7037506169478718  1.0000
  O   O10       1.0  0.130249407461811  0.1862462354755152  0.7962313640064665  1.0000
  O   O11       1.0  0.3697691890098015  0.18621394528041446  0.2962436796703329  1.0000
  O   O12       1.0  0.8697543809066134  0.8137683892692991  0.20376328446514688  1.0000
  O   O13       1.0  0.5296750311015187  0.6446529811111645  0.802589494696811  1.0000
  O   O14       1.0  0.029643033147813507  0.35537138392996337  0.6974086153931652  1.0000
  O   O15       1.0  0.47033598571049856  0.3553467786110929  0.1974054449953471  1.0000
  O   O16       1.0  0.9703475030019177  0.6446520073678316  0.3025954127389952  1.0000
  O   O17       1.0  0.43569254531606566  0.1772146596867543  0.6721806796289584  1.0000
  O   O18       1.0  0.9356840147395149  0.8227775082075224  0.8278153801459853  1.0000
  O   O19       1.0  0.5643088335135362  0.8227837709390611  0.32781893776987664  1.0000
  O   O20       1.0  0.0643089308636533  0.1772152100392859  0.1721842251381531  1.0000
