data_image0
_chemical_formula_structural       Cu4H28C36N4Cl4
_chemical_formula_sum              "Cu4 H28 C36 N4 Cl4"
_cell_length_a       3.735892526193401
_cell_length_b       13.898264809079649
_cell_length_c       15.337547600151625
_cell_angle_alpha    89.99878795403549
_cell_angle_beta     89.99938570276522
_cell_angle_gamma    90.00090329623445

_space_group_name_H-M_alt    "P 1"
_space_group_IT_number       1

loop_
  _space_group_symop_operation_xyz
  'x, y, z'

loop_
  _atom_site_type_symbol
  _atom_site_label
  _atom_site_symmetry_multiplicity
  _atom_site_fract_x
  _atom_site_fract_y
  _atom_site_fract_z
  _atom_site_occupancy
  Cu  Cu1       1.0  0.8319900830058417  0.0764908337096415  0.23360411832410224  1.0000
  Cu  Cu2       1.0  0.33195595323088156  0.923511517757312  0.2663880604201624  1.0000
  Cu  Cu3       1.0  0.1680192134099343  0.4235288183817118  0.7335993738717053  1.0000
  Cu  Cu4       1.0  0.6680044959157881  0.576494784826188  0.7663842075730829  1.0000
  H   H1        1.0  0.14110088473620414  0.04008731650704079  0.06493030775686753  1.0000
  H   H2        1.0  0.6410515131153076  0.9599213030728109  0.4350694786420705  1.0000
  H   H3        1.0  0.858841821203548  0.45990968351036793  0.5649474182343611  1.0000
  H   H4        1.0  0.35887648570204783  0.5400630412516065  0.9350461599501687  1.0000
  H   H5        1.0  0.3214188149093217  0.1330747666862493  0.932293437455137  1.0000
  H   H6        1.0  0.8213000118135979  0.8669373491263241  0.5677126138576514  1.0000
  H   H7        1.0  0.6786475525035769  0.3669330133412672  0.43230213853959054  1.0000
  H   H8        1.0  0.1785632134552415  0.6330283006355089  0.06768843471268582  1.0000
  H   H9        1.0  0.18993676810126917  0.3105297693651039  0.9258417170898599  1.0000
  H   H10       1.0  0.689883703573834  0.689475952165182  0.574154854430397  1.0000
  H   H11       1.0  0.8100763842724136  0.18947528435150224  0.4258495795607687  1.0000
  H   H12       1.0  0.30999793868453906  0.8104837895289376  0.07416090552129623  1.0000
  H   H13       1.0  0.9155188645032553  0.45377518290095503  0.9979403631136707  1.0000
  H   H14       1.0  0.4154816097280687  0.5462258778986708  0.5020576494663231  1.0000
  H   H15       1.0  0.0844987441782479  0.0462137832457259  0.4979636890632336  1.0000
  H   H16       1.0  0.5843393652419734  0.9537693781144653  0.0020453548386001  1.0000
  H   H17       1.0  0.6269713232808983  0.527267993244429  0.12814383426319867  1.0000
  H   H18       1.0  0.12685317180896757  0.47273911852271044  0.37185663647774464  1.0000
  H   H19       1.0  0.3732636506156197  0.9727523565997058  0.6281585496443967  1.0000
  H   H20       1.0  0.872959224476915  0.027267925156699797  0.8718480354478405  1.0000
  H   H21       1.0  0.49659779856394687  0.426921239617741  0.2586984029284167  1.0000
  H   H22       1.0  0.996573447291219  0.5730876671952175  0.24130057192370916  1.0000
  H   H23       1.0  0.5035440907858729  0.0730999805114294  0.7587054223050205  1.0000
  H   H24       1.0  0.0033588010955938005  0.926922823388196  0.7412993986308579  1.0000
  H   H25       1.0  0.6327161811218787  0.2510787688414524  0.2575758800521656  1.0000
  H   H26       1.0  0.13266646236554894  0.748931249036822  0.24242522946361336  1.0000
  H   H27       1.0  0.3672946035188503  0.24893528221603836  0.7575857355687037  1.0000
  H   H28       1.0  0.8672336094887357  0.7510777760044433  0.7424208629402715  1.0000
  C   C1        1.0  0.09026634665236338  0.11725299293689768  0.06052606000484671  1.0000
  C   C2        1.0  0.5902289513473987  0.882755379894071  0.4394686264682834  1.0000
  C   C3        1.0  0.9097434964370237  0.38275562322640877  0.5605360452363257  1.0000
  C   C4        1.0  0.40977377770266094  0.6172324584134259  0.9394639365579069  1.0000
  C   C5        1.0  0.1874343651228756  0.16995611330628438  0.9858298299949697  1.0000
  C   C6        1.0  0.687361872157176  0.8300531935895348  0.5141673992204903  1.0000
  C   C7        1.0  0.8126186421678625  0.3300547235662065  0.4858408823074216  1.0000
  C   C8        1.0  0.3126057223759987  0.669923070204504  0.014168292729110004  1.0000
  C   C9        1.0  0.11631332239874581  0.2672055323456703  0.9822958274487876  1.0000
  C   C10       1.0  0.6162759331118294  0.7327983927130788  0.5176996081461669  1.0000
  C   C11       1.0  0.8837345065552215  0.23280035115723047  0.4823020462210296  1.0000
  C   C12       1.0  0.38369148617812937  0.7671727513066955  0.017703054585425107  1.0000
  C   C13       1.0  0.946845794678417  0.3116117813547206  0.05437818474131721  1.0000
  C   C14       1.0  0.446817770937905  0.6884033595640631  0.445615035675374  1.0000
  C   C15       1.0  0.05324197864037221  0.18840417485656497  0.5543879519809567  1.0000
  C   C16       1.0  0.5531498556734958  0.811585772871048  0.9456219716700718  1.0000
  C   C17       1.0  0.8594902726496018  0.4109491322648111  0.05587040814933182  1.0000
  C   C18       1.0  0.3594573459104993  0.5890533527772347  0.44411844784226423  1.0000
  C   C19       1.0  0.14058671917705814  0.08905383741084448  0.5558909924367088  1.0000
  C   C20       1.0  0.6404514667455032  0.9109336562630191  0.9441200358888866  1.0000
  C   C21       1.0  0.6993537287145203  0.4512263027389593  0.12810405074912984  1.0000
  C   C22       1.0  0.19930898004991351  0.5487768436292839  0.3718929947401934  1.0000
  C   C23       1.0  0.30079195551235227  0.04878144253623871  0.6281165590944369  1.0000
  C   C24       1.0  0.8006221493387145  0.9512154631555632  0.8718927994809749  1.0000
  C   C25       1.0  0.622407674048695  0.39405048308138646  0.20199002730212365  1.0000
  C   C26       1.0  0.12235874493038068  0.6059580458529299  0.29799936985389053  1.0000
  C   C27       1.0  0.3777289952498961  0.1059648766954098  0.7020006210315233  1.0000
  C   C28       1.0  0.8776135209122414  0.894042475960603  0.7980046497851776  1.0000
  C   C29       1.0  0.6986922309993132  0.297006897703227  0.20212191356715445  1.0000
  C   C30       1.0  0.19863478612418112  0.7029904893232342  0.29787382951201397  1.0000
  C   C31       1.0  0.30141498739623523  0.20299622717452337  0.7021308367924706  1.0000
  C   C32       1.0  0.801337485663268  0.797003559762402  0.7978837361856963  1.0000
  C   C33       1.0  0.8607747166864143  0.2536610183503072  0.12863060010599275  1.0000
  C   C34       1.0  0.3607452451917296  0.7463400336936343  0.3713765088152671  1.0000
  C   C35       1.0  0.1393040233971661  0.24634311701299785  0.6286247254635245  1.0000
  C   C36       1.0  0.6392555049219695  0.7536522854075114  0.8713771776899579  1.0000
  N   N1        1.0  0.9320537376101895  0.15631736854678732  0.13002149673408786  1.0000
  N   N2        1.0  0.4320292124521856  0.843690505426636  0.3699704535250207  1.0000
  N   N3        1.0  0.0679821054614393  0.3436874533377078  0.6300282782331694  1.0000
  N   N4        1.0  0.567987667974947  0.6563090419679581  0.8699698756909984  1.0000
  Cl  Cl1       1.0  0.35145497431734907  0.08804900926761408  0.3265327118989348  1.0000
  Cl  Cl2       1.0  0.8514215179386754  0.9119498391460394  0.17345942244410406  1.0000
  Cl  Cl3       1.0  0.648539009467811  0.4119605407000577  0.8265283943215993  1.0000
  Cl  Cl4       1.0  0.1485462135016391  0.588067284986863  0.673461099479191  1.0000
