data_image0
_chemical_formula_structural       Zn8C80Br8Cl32O26
_chemical_formula_sum              "Zn8 C80 Br8 Cl32 O26"
_cell_length_a       24.002567510453403
_cell_length_b       24.004276412580055
_cell_length_c       24.002399494415673
_cell_angle_alpha    66.55917286217863
_cell_angle_beta     72.4829366195981
_cell_angle_gamma    107.52760696887786

_space_group_name_H-M_alt    "P 1"
_space_group_IT_number       1

loop_
  _space_group_symop_operation_xyz
  'x, y, z'

loop_
  _atom_site_type_symbol
  _atom_site_label
  _atom_site_symmetry_multiplicity
  _atom_site_fract_x
  _atom_site_fract_y
  _atom_site_fract_z
  _atom_site_occupancy
  Zn  Zn1       1.0  0.05681253803894031  0.9576534804710375  0.485548819438705  1.0000
  Zn  Zn2       1.0  0.0568098110556221  0.09915937721806498  0.457654794028521  1.0000
  Zn  Zn3       1.0  0.9431850335371695  0.9855448071759554  0.45764613373648905  1.0000
  Zn  Zn4       1.0  0.9432031927161048  0.9576492440362397  0.5991615656720767  1.0000
  Zn  Zn5       1.0  0.9431912591531602  0.5423483533420637  0.014451240743220196  1.0000
  Zn  Zn6       1.0  0.05681819636173201  0.5144595690441207  0.04235225588622888  1.0000
  Zn  Zn7       1.0  0.9431914809617794  0.4008417361994318  0.042349522976920205  1.0000
  Zn  Zn8       1.0  0.056795092096450624  0.5423468347902655  0.9008391517145641  1.0000
  C   C1        1.0  0.1809907608950212  0.09050614831801339  0.40950868247272615  1.0000
  C   C2        1.0  6.416904482886049e-07  0.13684930326921568  0.3631551155303256  1.0000
  C   C3        1.0  0.9999935002842691  0.9095068705322759  0.4095075288323001  1.0000
  C   C4        1.0  0.819015108567953  0.9095018745984685  0.5905082597948808  1.0000
  C   C5        1.0  5.281134413382434e-06  0.8631550996810514  0.636848597054872  1.0000
  C   C6        1.0  0.999995831743874  0.09049090663977936  0.5905022838487497  1.0000
  C   C7        1.0  0.9999981908302402  0.5904823890759231  0.09050457024279984  1.0000
  C   C8        1.0  4.306531771181396e-06  0.36315436852493826  0.13684576669822232  1.0000
  C   C9        1.0  0.8190107712768441  0.40949470512774877  0.09048316645637285  1.0000
  C   C10       1.0  0.999988671613551  0.4094937392286226  0.9095174902385351  1.0000
  C   C11       1.0  0.9999974139687356  0.6368443551096165  0.8631511177201431  1.0000
  C   C12       1.0  0.18098666839340175  0.5904873428004435  0.9094895429730417  1.0000
  C   C13       1.0  4.004370566631104e-06  0.8050915782071468  0.6949086591120521  1.0000
  C   C14       1.0  0.9999986471908144  0.6949088687643364  0.8050910918900345  1.0000
  C   C15       1.0  0.9572199708135968  0.7769003428451521  0.7658771802621307  1.0000
  C   C16       1.0  0.0427831174218909  0.723100540643159  0.7341226825324795  1.0000
  C   C17       1.0  0.9572184842936693  0.7230965998144895  0.8196809147817845  1.0000
  C   C18       1.0  0.04278484404976268  0.7769040058418282  0.6803189857955588  1.0000
  C   C19       1.0  0.9999987860334728  0.19490872864248837  0.30509144093495894  1.0000
  C   C20       1.0  5.126042530960653e-06  0.30509500923405136  0.19490979506792877  1.0000
  C   C21       1.0  0.9572198447344888  0.1803205509285134  0.27689641995304026  1.0000
  C   C22       1.0  0.04278426390924043  0.31968390189218343  0.22310447319767954  1.0000
  C   C23       1.0  0.957220567393506  0.23412612142198702  0.22309135772635375  1.0000
  C   C24       1.0  0.04278314811477911  0.2658769015103885  0.2769102211287092  1.0000
  C   C25       1.0  0.9999995613759299  0.6282104072153558  0.12823231726254378  1.0000
  C   C26       1.0  0.9568359333160931  0.6577828019225508  0.13550593722667506  1.0000
  C   C27       1.0  0.957163594869293  0.6927692601394995  0.1706105249234114  1.0000
  C   C28       1.0  0.999989828591353  0.6997081142558982  0.19973961831525613  1.0000
  C   C29       1.0  0.042824374141254305  0.6705943113245565  0.1928040785898375  1.0000
  C   C30       1.0  0.04316047255905161  0.6354972139827024  0.15781233043816215  1.0000
  C   C31       1.0  0.9999851441753548  0.7347786433737223  0.23481818562887477  1.0000
  C   C32       1.0  0.9999803674927038  0.7651786952004825  0.26522530205055955  1.0000
  C   C33       1.0  0.9999731725162563  0.8002493045231274  0.3003029282109679  1.0000
  C   C34       1.0  0.9571557990064932  0.8293849040634383  0.3072170770506091  1.0000
  C   C35       1.0  0.9568282810789982  0.8644890377143921  0.34220219671463803  1.0000
  C   C36       1.0  0.9999770202281439  0.8717595734321643  0.3717982347121382  1.0000
  C   C37       1.0  0.043117317646768225  0.8421606369019443  0.36455044337153464  1.0000
  C   C38       1.0  0.04278469962606113  0.8071676597540997  0.32945201923556083  1.0000
  C   C39       1.0  2.417744362024872e-06  0.3717616014384361  0.8717950831766929  1.0000
  C   C40       1.0  0.04317021035929256  0.4076356890868026  0.7990630757618647  1.0000
  C   C41       1.0  0.04283651147905944  0.3722044242796869  0.7644054564876441  1.0000
  C   C42       1.0  3.002743888214664e-06  0.30025939990043327  0.8002931569143925  1.0000
  C   C43       1.0  0.9571748049300693  0.264368231429472  0.8722417397179428  1.0000
  C   C44       1.0  0.9568433671021026  0.2990260489924593  0.9076750378000683  1.0000
  C   C45       1.0  0.9999958884341141  0.26519008582217646  0.7652148171718098  1.0000
  C   C46       1.0  0.9999899025403141  0.23479118414327635  0.7348067408228757  1.0000
  C   C47       1.0  0.9999768599730958  0.19971949623669621  0.6997310630252259  1.0000
  C   C48       1.0  0.042786589363615214  0.2356160247885697  0.6277784248811074  1.0000
  C   C49       1.0  0.043118180220638194  0.20095991554124026  0.5923439864499401  1.0000
  C   C50       1.0  0.9999781877095087  0.12822114963285697  0.6282257172714624  1.0000
  C   C51       1.0  0.9568269202490713  0.09233923910608167  0.7009629262948208  1.0000
  C   C52       1.0  0.9571586323156327  0.1277690321058317  0.7356225617880128  1.0000
  C   C53       1.0  0.7435571206270811  0.3717689099186431  0.1282158028810229  1.0000
  C   C54       1.0  0.7067021294082637  0.40764997256210456  0.13548748192621937  1.0000
  C   C55       1.0  0.6366120070102  0.37222041620788804  0.17058219875256952  1.0000
  C   C56       1.0  0.6005526820955255  0.3002702474898553  0.19971313066248805  1.0000
  C   C57       1.0  0.6366089368979007  0.26437557636681674  0.19279481283426475  1.0000
  C   C58       1.0  0.7066985937988193  0.29903130971315034  0.1578067620980548  1.0000
  C   C59       1.0  0.5304047513815249  0.2652024094668234  0.23478096989062192  1.0000
  C   C60       1.0  0.46959798271986136  0.2348074643433478  0.2651756918859718  1.0000
  C   C61       1.0  0.3994498989845568  0.19973792098137005  0.3002425871533063  1.0000
  C   C62       1.0  0.3633944515259273  0.23562974983778412  0.30717803721632464  1.0000
  C   C63       1.0  0.29330372469356564  0.20097242256021267  0.34217037583933774  1.0000
  C   C64       1.0  0.25644515435610776  0.1282358270377202  0.3717526171820822  1.0000
  C   C65       1.0  0.2933009543302277  0.092362339986785  0.3644568582379577  1.0000
  C   C66       1.0  0.3633903999555558  0.12779174122821502  0.3293594906645366  1.0000
  C   C67       1.0  0.2564423705086796  0.62820792988105  0.8717633530585758  1.0000
  C   C68       1.0  0.29330696777233106  0.6354683478300912  0.907646120446316  1.0000
  C   C69       1.0  0.36339694166565556  0.6705641939171441  0.8722176045892098  1.0000
  C   C70       1.0  0.3994498433676271  0.6997049678322682  0.800264504596896  1.0000
  C   C71       1.0  0.36338526560223994  0.6927867802439635  0.7643680173131743  1.0000
  C   C72       1.0  0.29329353932534014  0.6577995563096904  0.7990240510666096  1.0000
  C   C73       1.0  0.4695977093972133  0.734779473288988  0.7651969567409651  1.0000
  C   C74       1.0  0.5304046534575803  0.7651807984886925  0.7348092336920475  1.0000
  C   C75       1.0  0.6005535234637804  0.8002532016273133  0.6997409670160339  1.0000
  C   C76       1.0  0.6366173834369063  0.8071929465055798  0.7356332867343345  1.0000
  C   C77       1.0  0.7067098748482437  0.8421887078507451  0.700974469269461  1.0000
  C   C78       1.0  0.7435585529751305  0.871764374952974  0.6282376655356503  1.0000
  C   C79       1.0  0.7066947817190582  0.8644747359320702  0.5923616561478582  1.0000
  C   C80       1.0  0.6366064226342021  0.82937325174845  0.6277919212409556  1.0000
  Br  Br1       1.0  0.8969567894249333  0.8087617202169421  0.7942716337586481  1.0000
  Br  Br2       1.0  0.10304562203006636  0.6912390051818773  0.7057276625987401  1.0000
  Br  Br3       1.0  0.896953972423873  0.6912258141879589  0.9118084683089336  1.0000
  Br  Br4       1.0  0.10304998916138422  0.8087759429293438  0.5881912012087654  1.0000
  Br  Br5       1.0  0.8969551052287342  0.0881989516002335  0.30874683363921923  1.0000
  Br  Br6       1.0  0.10304817360388797  0.41180363421997157  0.19125505028527817  1.0000
  Br  Br7       1.0  0.8969611319729508  0.2057396197766294  0.19121089187349577  1.0000
  Br  Br8       1.0  0.1030434568881944  0.29426427797542226  0.30878965998071806  1.0000
  Cl  Cl1       1.0  0.9017940235932186  0.6540775430327128  0.10330438388590585  1.0000
  Cl  Cl2       1.0  0.09820004821410327  0.6033010893364334  0.15412208960512438  1.0000
  Cl  Cl3       1.0  0.09434371905826584  0.6795160410297427  0.228484791617241  1.0000
  Cl  Cl4       1.0  0.9056417800343796  0.7284410271635905  0.17952095265889056  1.0000
  Cl  Cl5       1.0  0.9056552535744589  0.8204866657557872  0.2715147108539711  1.0000
  Cl  Cl6       1.0  0.09429306456964087  0.7714803465796365  0.3205588965760242  1.0000
  Cl  Cl7       1.0  0.09812405187660282  0.8458208171535018  0.39679631665812565  1.0000
  Cl  Cl8       1.0  0.9017963914342462  0.8966970050563814  0.34588292258631975  1.0000
  Cl  Cl9       1.0  0.0982346123377908  0.4948664083071178  0.7477311041520451  1.0000
  Cl  Cl10      1.0  0.901819393021988  0.24768559080919753  0.9949108911632935  1.0000
  Cl  Cl11      1.0  0.905653360152563  0.17717750873415358  0.9148392518055105  1.0000
  Cl  Cl12      1.0  0.09436125598713117  0.4148035178415696  0.6772153960014365  1.0000
  Cl  Cl13      1.0  0.0942944773684786  0.32280925320745973  0.5851752583996942  1.0000
  Cl  Cl14      1.0  0.9056580541369144  0.08516457792891419  0.822817875772529  1.0000
  Cl  Cl15      1.0  0.9017903521644826  0.0051026844681346245  0.7522996502490074  1.0000
  Cl  Cl16      1.0  0.098123162133774  0.2523072870082926  0.505100286650027  1.0000
  Cl  Cl17      1.0  0.7426006152486552  0.4948886446241474  0.10327211645471125  1.0000
  Cl  Cl18      1.0  0.742594575973257  0.2476862883188673  0.15414349787906192  1.0000
  Cl  Cl19      1.0  0.5920146031746755  0.17718006767435665  0.22849013610706242  1.0000
  Cl  Cl20      1.0  0.5920230335065214  0.41482558798617925  0.17948251572857996  1.0000
  Cl  Cl21      1.0  0.4079881295089508  0.32281938589529346  0.27150940525113737  1.0000
  Cl  Cl22      1.0  0.4079789157401806  0.0851918456925347  0.32043305473706607  1.0000
  Cl  Cl23      1.0  0.2574003301020796  0.005130922330451441  0.396622496008618  1.0000
  Cl  Cl24      1.0  0.25740946675285414  0.25231448254070427  0.34585095965111634  1.0000
  Cl  Cl25      1.0  0.25741597244913106  0.6032381538103947  0.9948914362774347  1.0000
  Cl  Cl26      1.0  0.25738906005576473  0.6541174513953293  0.7476808967519305  1.0000
  Cl  Cl27      1.0  0.4079713216800585  0.7284818618446491  0.6771715069026529  1.0000
  Cl  Cl28      1.0  0.4079914645144528  0.6794644784326707  0.914826051972426  1.0000
  Cl  Cl29      1.0  0.5920303694588894  0.7715197000268572  0.8228255917966936  1.0000
  Cl  Cl30      1.0  0.5920091030359558  0.8204535906798467  0.5851886696759507  1.0000
  Cl  Cl31      1.0  0.7425862957368066  0.8966619345189879  0.5051244880896066  1.0000
  Cl  Cl32      1.0  0.7426128052502395  0.8458801417529286  0.7523160570391453  1.0000
  O   O1        1.0  9.337739115001002e-07  1.3307761647997134e-06  0.5000000463664805  1.0000
  O   O2        1.0  0.15158685804065902  0.025803416614152766  0.43424862897595773  1.0000
  O   O3        1.0  0.03948665304243088  0.15381884201625698  0.3856622140971453  1.0000
  O   O4        1.0  0.9600059303183529  0.9342162322367074  0.41419579874827417  1.0000
  O   O5        1.0  0.1515899927481357  0.12579562686926235  0.41419693941627145  1.0000
  O   O6        1.0  0.03999007285268878  0.9142178677686911  0.4342042018620944  1.0000
  O   O7        1.0  0.9604987522818649  0.0748492925036076  0.38566568095340154  1.0000
  O   O8        1.0  0.8484118524075726  0.9342279050645099  0.525806603691109  1.0000
  O   O9        1.0  0.9605312944548957  0.8856701864533177  0.653824964107706  1.0000
  O   O10       1.0  0.8484209393650204  0.9141849005721807  0.6258019241335548  1.0000
  O   O11       1.0  0.03948392456293708  0.8856557743905352  0.5748530876345584  1.0000
  O   O12       1.0  0.0399836207417437  0.12578101907957517  0.5258102103436499  1.0000
  O   O13       1.0  0.9600239713287806  0.025794377559819306  0.6257949805939874  1.0000
  O   O14       1.0  1.7553645504762859e-06  0.5000003601653872  0.99999943159051  1.0000
  O   O15       1.0  0.9600256900460168  0.5858021731535814  0.06577711218866249  1.0000
  O   O16       1.0  0.03950874029223429  0.425155961480712  0.11433054086801062  1.0000
  O   O17       1.0  0.8484107755891728  0.37420706416013166  0.08578649515231972  1.0000
  O   O18       1.0  0.03997858716824254  0.5657626640568123  0.0858270896233293  1.0000
  O   O19       1.0  0.8484153719426788  0.4741918768035942  0.06577354530701744  1.0000
  O   O20       1.0  0.960513875103196  0.346184094696653  0.11434369323504966  1.0000
  O   O21       1.0  0.960016719620633  0.37419867542813284  0.9742137664638193  1.0000
  O   O22       1.0  0.03947445736699968  0.6143323239551464  0.8461755332150106  1.0000
  O   O23       1.0  0.03994956153712784  0.4741937414542859  0.874217907899535  1.0000
  O   O24       1.0  0.9605128536626781  0.6143382811320064  0.9251468035027346  1.0000
  O   O25       1.0  0.15158968824626126  0.5657926770480656  0.9741842462442848  1.0000
  O   O26       1.0  0.15157941681628978  0.5857899430967632  0.8741999250732847  1.0000
