data_image0
_chemical_formula_structural       La2H38C60N10O14
_chemical_formula_sum              "La2 H38 C60 N10 O14"
_cell_length_a       10.658790378773658
_cell_length_b       11.137102471318604
_cell_length_c       13.774
_cell_angle_alpha    110.43821466255031
_cell_angle_beta     100.6500330369956
_cell_angle_gamma    108.22073963267847

_space_group_name_H-M_alt    "P 1"
_space_group_IT_number       1

loop_
  _space_group_symop_operation_xyz
  'x, y, z'

loop_
  _atom_site_type_symbol
  _atom_site_label
  _atom_site_symmetry_multiplicity
  _atom_site_fract_x
  _atom_site_fract_y
  _atom_site_fract_z
  _atom_site_occupancy
  La  La1       1.0  0.4991397492073091  0.9164430326869208  0.6173222168701643  1.0000
  La  La2       1.0  0.5008549877536126  0.0835587919284464  0.3826725361883306  1.0000
  H   H1        1.0  0.43066600988065323  0.5831742147182482  0.01040774853129283  1.0000
  H   H2        1.0  0.5693399880025396  0.416831811417758  0.989595609303777  1.0000
  H   H3        1.0  0.2685449152183779  0.3367340221090629  0.9603176872286383  1.0000
  H   H4        1.0  0.7314616086637997  0.6632709536467799  0.039686175264691224  1.0000
  H   H5        1.0  0.9508573502549637  0.4445565956813269  0.3757574894672969  1.0000
  H   H6        1.0  0.049144166526019696  0.555443128173728  0.6242427220824779  1.0000
  H   H7        1.0  0.01812904951634659  0.3036691051235394  0.46588311057562487  1.0000
  H   H8        1.0  0.9818670315254109  0.6963243164505712  0.5341109141422536  1.0000
  H   H9        1.0  0.21888883902765596  0.2376495610690483  0.43425563543417683  1.0000
  H   H10       1.0  0.7811085279281968  0.7623470116455379  0.5657409149101014  1.0000
  H   H11       1.0  0.04313316390824439  0.6652551217647513  0.29469450945939  1.0000
  H   H12       1.0  0.9568669695976979  0.3347435517101474  0.7053066597051085  1.0000
  H   H13       1.0  0.7800039078512312  0.5501050962120857  0.2257202905228723  1.0000
  H   H14       1.0  0.21999823228969717  0.4498914765024935  0.7742827504881904  1.0000
  H   H15       1.0  0.6502364600941916  0.6835674494348112  0.3137926693790405  1.0000
  H   H16       1.0  0.3497597183085261  0.3164238713789871  0.6862036801418726  1.0000
  H   H17       1.0  0.8453749562206596  0.0900974084103865  0.7790374696515414  1.0000
  H   H18       1.0  0.15462241073518615  0.9098991643041927  0.22095980669825377  1.0000
  H   H19       1.0  0.021027422724607406  0.2385560391451733  0.9714212093998214  1.0000
  H   H20       1.0  0.9789727107813347  0.7614426343297253  0.028574877726057914  1.0000
  H   H21       1.0  0.9347180272672728  0.3194993844808493  0.12757504472754988  1.0000
  H   H22       1.0  0.06528401551269525  0.6804992889940493  0.8724234934639342  1.0000
  H   H23       1.0  0.7287706191097171  0.3122948269789063  0.1948152273003316  1.0000
  H   H24       1.0  0.27123366422135575  0.6877069976364678  0.8051837950255205  1.0000
  H   H25       1.0  0.4748863782531884  0.2429602831465871  0.15358695650881773  1.0000
  H   H26       1.0  0.5251169504408679  0.7570415414687872  0.8464126552980248  1.0000
  H   H27       1.0  0.2329702583672599  0.11471831930783338  0.016053459846681092  1.0000
  H   H28       1.0  0.7670326416887718  0.8852824549273776  0.983948698110446  1.0000
  H   H29       1.0  0.07812914754907746  0.9640336568738518  0.8182206894130533  1.0000
  H   H30       1.0  0.9218681220458151  0.0359650166010468  0.18178079618337514  1.0000
  H   H31       1.0  0.19108047854381033  0.902391046936664  0.674255684199281  1.0000
  H   H32       1.0  0.8089181743261236  0.0976086769183908  0.32574556978794794  1.0000
  H   H33       1.0  0.5028788520556304  0.7648857804868001  0.206268248393549  1.0000
  H   H34       1.0  0.4971224700034398  0.23511814488889368  0.7937345736053558  1.0000
  H   H35       1.0  0.27020012131263366  0.6274088743011887  0.5454402219046841  1.0000
  H   H36       1.0  0.7298019214673416  0.3725897991737099  0.45456049430335094  1.0000
  H   H37       1.0  0.3829059192274968  0.6437758979191059  0.6457781958341401  1.0000
  H   H38       1.0  0.6170937856404137  0.3562217251756294  0.3542211634475336  1.0000
  C   C1        1.0  0.4218973833099895  0.7271414198985368  0.36919836438426756  1.0000
  C   C2        1.0  0.5781044647480725  0.2728614550969937  0.6308049622728902  1.0000
  C   C3        1.0  0.37496259539754107  0.6195478292006555  0.25298734656032457  1.0000
  C   C4        1.0  0.6250415905725788  0.3804560961750312  0.7470151590066436  1.0000
  C   C5        1.0  0.3908508263554751  0.5566363600329183  0.07092853375284851  1.0000
  C   C6        1.0  0.6091514503406188  0.4433675653427683  0.929072972759549  1.0000
  C   C7        1.0  0.3003286271733074  0.41973401179359365  0.043303723349303866  1.0000
  C   C8        1.0  0.699674604159796  0.580269913582093  0.9566986456931376  1.0000
  C   C9        1.0  0.2834578634601925  0.47875697361737213  0.21702087684538182  1.0000
  C   C10       1.0  0.716544939234879  0.5212459013781511  0.7829804083197588  1.0000
  C   C11       1.0  0.21568780666633097  0.4303901184938752  0.2904035201746851  1.0000
  C   C12       1.0  0.7843144700297557  0.5696138068818113  0.7095979863377053  1.0000
  C   C13       1.0  0.03920186674618982  0.4170177287056802  0.3662343527893769  1.0000
  C   C14       1.0  0.9607977407607604  0.5829819951493818  0.6337655857113448  1.0000
  C   C15       1.0  0.0760936974947342  0.33755226825194734  0.4159807292914551  1.0000
  C   C16       1.0  0.9239040980991431  0.6624453548427949  0.5840161789246068  1.0000
  C   C17       1.0  0.1871833559473401  0.30184564516969903  0.39918931083462894  1.0000
  C   C18       1.0  0.8128153942835539  0.6981519779250432  0.6008091859170008  1.0000
  C   C19       1.0  0.2603520480867089  0.3505076571175252  0.33656478885831126  1.0000
  C   C20       1.0  0.7396485140572581  0.6494920667375367  0.663435286166937  1.0000
  C   C21       1.0  0.3846371205819635  0.3185099263722576  0.3229305500337958  1.0000
  C   C22       1.0  0.6153634415620033  0.6814897974827969  0.6770680729804184  1.0000
  C   C23       1.0  0.20831142609264933  0.9201624288254848  0.45154884642104776  1.0000
  C   C24       1.0  0.7916852201423054  0.07983939578988947  0.5484505357196099  1.0000
  C   C25       1.0  0.050883001200652665  0.859381130617649  0.4119255667930802  1.0000
  C   C26       1.0  0.9491119304821822  0.14061649247709337  0.5880731098659524  1.0000
  C   C27       1.0  0.9822415854568973  0.7222193384793627  0.3276360117166135  1.0000
  C   C28       1.0  0.0177600286850463  0.2777782846153798  0.672366524636189  1.0000
  C   C29       1.0  0.8366517898745798  0.6574381926308419  0.2899529604146167  1.0000
  C   C30       1.0  0.16334844099231557  0.3425583800837372  0.710047629530841  1.0000
  C   C31       1.0  0.7640024416476122  0.7324784014800159  0.33842447002161435  1.0000
  C   C32       1.0  0.2359917301201122  0.2675150200940948  0.6615729116748028  1.0000
  C   C33       1.0  0.9685815461794292  0.9276484882097049  0.45501838537664707  1.0000
  C   C34       1.0  0.031411144952294  0.0723459837445617  0.5449761771204252  1.0000
  C   C35       1.0  0.8122444587208689  0.1264185038849135  0.8503103262886996  1.0000
  C   C36       1.0  0.18775758405910636  0.8735801695899851  0.14968893790830856  1.0000
  C   C37       1.0  0.9094027972003715  0.2091170344641711  0.9569993988701528  1.0000
  C   C38       1.0  0.09059595303052251  0.7908805886305714  0.04299764587044308  1.0000
  C   C39       1.0  0.8615667527022948  0.2531899355028244  0.043999672037024554  1.0000
  C   C40       1.0  0.13843519271672022  0.7468108387323937  0.9559979933624663  1.0000
  C   C41       1.0  0.716216125304797  0.2117871008251484  0.02415460574449919  1.0000
  C   C42       1.0  0.283786346113203  0.7882126230299062  0.9758457423298098  1.0000
  C   C43       1.0  0.6256707071860389  0.12723149812700285  0.9135737229519449  1.0000
  C   C44       1.0  0.37432942631989613  0.8727671753478958  0.08642672020702948  1.0000
  C   C45       1.0  0.6584160109402432  0.2511542987571217  0.11008413841717869  1.0000
  C   C46       1.0  0.3415873177538202  0.7488475258582525  0.8899169254007051  1.0000
  C   C47       1.0  0.5173330052068364  0.21074197256819358  0.08748088226166567  1.0000
  C   C48       1.0  0.4826689402121787  0.7892588016670175  0.9125204131654173  1.0000
  C   C49       1.0  0.4230407114429866  0.126050870829701  0.9771862101937643  1.0000
  C   C50       1.0  0.5769607079770367  0.8739509537856733  0.022814580575058543  1.0000
  C   C51       1.0  0.4763277937291832  0.0828623898838643  0.8897116564322333  1.0000
  C   C52       1.0  0.5236731970528155  0.9171383843513466  0.11028950247032297  1.0000
  C   C53       1.0  0.2763995305923288  0.0821943481035419  0.9504589968393162  1.0000
  C   C54       1.0  0.723602843464718  0.9178074765118253  0.0495433824650746  1.0000
  C   C55       1.0  0.19165117576439167  0.0008823193325042999  0.8420716474758337  1.0000
  C   C56       1.0  0.8083474771055491  0.9991174045225505  0.157929606511395  1.0000
  C   C57       1.0  0.2538490779158522  0.9645199828868839  0.7608446708952812  1.0000
  C   C58       1.0  0.7461495749540816  0.0354797409681709  0.2391558570864234  1.0000
  C   C59       1.0  0.42909039425782675  0.6571524892279399  0.17802580014335936  1.0000
  C   C60       1.0  0.5709128370752694  0.3428514361477468  0.8219758428935648  1.0000
  N   N1        1.0  0.24742527782606769  0.3805611341908062  0.114120004124274  1.0000
  N   N2        1.0  0.7525770962309721  0.6194406904245682  0.8858823751801097  1.0000
  N   N3        1.0  0.10608530834257117  0.46173346240086477  0.30349379831073253  1.0000
  N   N4        1.0  0.8939166370764368  0.5382673118343462  0.6965074971163504  1.0000
  N   N5        1.0  0.8279217727674109  0.8638294905856795  0.4176361345800713  1.0000
  N   N6        1.0  0.17207378227536196  0.13616498136858718  0.5823595634961052  1.0000
  N   N7        1.0  0.6746978579086473  0.0876447707420596  0.8286398955346002  1.0000
  N   N8        1.0  0.32530270423532676  0.9123549531129953  0.17135800147409694  1.0000
  N   N9        1.0  0.391548539559615  0.0039473286327905  0.7832359554770748  1.0000
  N   N10       1.0  0.6084501133103258  0.9960523952222644  0.21676529851014692  1.0000
  O   O1        1.0  0.47075640803252117  0.8572247001538001  0.3890817972178411  1.0000
  O   O2        1.0  0.5292434333905475  0.14278027560204265  0.6109225616148208  1.0000
  O   O3        1.0  0.41540006343102215  0.68772800523962  0.4446318455901377  1.0000
  O   O4        1.0  0.5846011612670949  0.3122780208963789  0.5553708296222909  1.0000
  O   O5        1.0  0.4900013826679412  0.408441374717725  0.32094338836517977  1.0000
  O   O6        1.0  0.5099959842879116  0.5915551979968612  0.6790567920066837  1.0000
  O   O7        1.0  0.3737342473103027  0.19717526245081268  0.3148070681896514  1.0000
  O   O8        1.0  0.6262640742825595  0.8028213102637662  0.6851896186791606  1.0000
  O   O9        1.0  0.2639023344878595  0.8855881155532827  0.5214860148938385  1.0000
  O   O10       1.0  0.7360904931990291  0.1144137090620916  0.4785120951431879  1.0000
  O   O11       1.0  0.27022260245540514  0.9853742305386746  0.4032830638746888  1.0000
  O   O12       1.0  0.7297758556926226  0.014629694837019298  0.5967149925175192  1.0000
  O   O13       1.0  0.3184333335589499  0.6868824492126391  0.6238464508949306  1.0000
  O   O14       1.0  0.6815663713089605  0.3131151738821031  0.3761529083867429  1.0000
