data_image0
_chemical_formula_structural       Zn4H28C24N28O4
_chemical_formula_sum              "Zn4 H28 C24 N28 O4"
_cell_length_a       6.0195011528293
_cell_length_b       7.827213178635991
_cell_length_c       20.367811301201737
_cell_angle_alpha    90.000573544479
_cell_angle_beta     96.83415253338144
_cell_angle_gamma    90.00055400459318

_space_group_name_H-M_alt    "P 1"
_space_group_IT_number       1

loop_
  _space_group_symop_operation_xyz
  'x, y, z'

loop_
  _atom_site_type_symbol
  _atom_site_label
  _atom_site_symmetry_multiplicity
  _atom_site_fract_x
  _atom_site_fract_y
  _atom_site_fract_z
  _atom_site_occupancy
  Zn  Zn1       1.0  0.8867356474925073  0.8214558326335323  0.25181023743630965  1.0000
  Zn  Zn2       1.0  0.11326993865591822  0.32142233439751783  0.7481817343802817  1.0000
  Zn  Zn3       1.0  0.37682688026304595  0.9624191513375212  0.2261115974487211  1.0000
  Zn  Zn4       1.0  0.6231847285803412  0.46241888417127813  0.7738882601708355  1.0000
  H   H1        1.0  0.46864616974863793  0.4424880035327093  0.4471691281414252  1.0000
  H   H2        1.0  0.5313179793243351  0.9424699382200219  0.5528192296647276  1.0000
  H   H3        1.0  0.2794560672531432  0.560584354565073  0.5392498898125596  1.0000
  H   H4        1.0  0.7205378382711132  0.0605730020142374  0.4607468661000311  1.0000
  H   H5        1.0  0.8978218122135715  0.6933919972520217  0.5136669930031985  1.0000
  H   H6        1.0  0.1021597762361779  0.19339119017985246  0.4863215801546091  1.0000
  H   H7        1.0  0.7284463260696654  0.7075019799295817  0.3935973730533675  1.0000
  H   H8        1.0  0.2715406263705518  0.2075007016806154  0.6064014964708306  1.0000
  H   H9        1.0  0.20373955314254744  0.3457085023167395  0.2886069275705765  1.0000
  H   H10       1.0  0.7962268299299566  0.8457003475374166  0.7113879733379918  1.0000
  H   H11       1.0  0.47408218844887523  0.39240203746619784  0.3312793908717424  1.0000
  H   H12       1.0  0.5258878530524883  0.8923899849963918  0.6687185220680548  1.0000
  H   H13       1.0  0.3276851859690595  0.547215775740419  0.278278676055919  1.0000
  H   H14       1.0  0.672299865255532  0.04720920574651901  0.7217140497609194  1.0000
  H   H15       1.0  0.76370241131081  0.21674259223806303  0.00572289583492142  1.0000
  H   H16       1.0  0.23631671984605873  0.7167289869769321  0.9942778531170973  1.0000
  H   H17       1.0  0.05929472309425421  0.40485520557982124  0.0653203510914366  1.0000
  H   H18       1.0  0.9407075157337559  0.9048550084387587  0.9346839237534964  1.0000
  H   H19       1.0  0.0368991638551108  0.4712342057893367  0.18546020203555  1.0000
  H   H20       1.0  0.9631143805886921  0.9712192945598732  0.8145443189418629  1.0000
  H   H21       1.0  0.7113089853586985  0.35925279882648914  0.2383376888910789  1.0000
  H   H22       1.0  0.2887245604103584  0.8592538173448717  0.7616727639352093  1.0000
  H   H23       1.0  0.4080917878118413  0.9517533606953139  0.07628492265654778  1.0000
  H   H24       1.0  0.591939323019311  0.4517245817484153  0.9237193868553533  1.0000
  H   H25       1.0  0.4175061508135586  0.07201790518534784  0.002586569440779802  1.0000
  H   H26       1.0  0.5825248314077243  0.5720045493531957  0.9974201484856096  1.0000
  H   H27       1.0  0.23536905557650561  0.13364718342224793  0.0618965489349819  1.0000
  H   H28       1.0  0.7646446778665991  0.6336515867349065  0.938105813659469  1.0000
  C   C1        1.0  0.2055977791650747  0.5120516976071843  0.37192221877832315  1.0000
  C   C2        1.0  0.7943855729637903  0.012045570902365901  0.6280756492178554  1.0000
  C   C3        1.0  0.3046214838877717  0.5024182648776474  0.4372706644882954  1.0000
  C   C4        1.0  0.6953513002441625  0.0024167199251082004  0.5627305467174466  1.0000
  C   C5        1.0  0.197954922804243  0.5676006235050721  0.4887621781275868  1.0000
  C   C6        1.0  0.8020173491981238  0.06761026606042012  0.511240776309208  1.0000
  C   C7        1.0  0.9871566195788759  0.6422205588348647  0.47466262973453877  1.0000
  C   C8        1.0  0.012829127595125604  0.14224396353248642  0.5253359034481093  1.0000
  C   C9        1.0  0.8909782154083317  0.65112190438947  0.40974605255861724  1.0000
  C   C10       1.0  0.1089912167318161  0.15114333423692733  0.5902510596125623  1.0000
  C   C11       1.0  0.30882239494818003  0.4454144134882442  0.3143875065268986  1.0000
  C   C12       1.0  0.6911518935591587  0.9454038515099299  0.685602271145541  1.0000
  C   C13       1.0  0.5818581588389763  0.18927023789881764  0.08867665967574112  1.0000
  C   C14       1.0  0.41814120484492173  0.6892443609221744  0.9113287028811001  1.0000
  C   C15       1.0  0.759422258850286  0.2511371827494955  0.057368506845769204  1.0000
  C   C16       1.0  0.2405883226965955  0.751127718928295  0.9426330829498326  1.0000
  C   C17       1.0  0.9240550228283554  0.3541848019172704  0.0906152376818952  1.0000
  C   C18       1.0  0.07597173142356442  0.8541866618618246  0.9093904423954983  1.0000
  C   C19       1.0  0.9116554488548303  0.39229150936826346  0.15701211185121622  1.0000
  C   C20       1.0  0.088354565607311  0.8922782113149809  0.8429936827535869  1.0000
  C   C21       1.0  0.7350584900738825  0.3303798786836937  0.18750668241881396  1.0000
  C   C22       1.0  0.2649522199200263  0.8303449974361001  0.812495966574268  1.0000
  C   C23       1.0  0.3999914474772551  0.0812221724671716  0.05529925589451779  1.0000
  C   C24       1.0  0.6000133710373349  0.5812116885278016  0.9446992943236339  1.0000
  N   N1        1.0  0.2019497637289831  0.9253931241584753  0.3042270057293877  1.0000
  N   N2        1.0  0.7980569086210066  0.4253917347816625  0.6957709623543309  1.0000
  N   N3        1.0  0.2801018068492738  0.9364749803952536  0.3616627826711536  1.0000
  N   N4        1.0  0.7198986842526055  0.4364684676341001  0.638334187428903  1.0000
  N   N5        1.0  0.3541102679273039  0.9465118673417551  0.4168611713829051  1.0000
  N   N6        1.0  0.6458688977035294  0.4465038589069579  0.5831356846754971  1.0000
  N   N7        1.0  0.062429452780719395  0.8686812197668631  0.175653444085782  1.0000
  N   N8        1.0  0.9375896233035165  0.3686711847031745  0.8243502663581808  1.0000
  N   N9        1.0  0.9853707412299855  0.8560172989346031  0.11799432216509588  1.0000
  N   N10       1.0  0.014647917586764  0.3560119165631194  0.8820042157795243  1.0000
  N   N11       1.0  0.9121511146187731  0.8439285865318809  0.0629762675253076  1.0000
  N   N12       1.0  0.08787697333283973  0.3439285517582604  0.9370253346740894  1.0000
  N   N13       1.0  0.6949014778690882  0.9942774300379612  0.2928764090197973  1.0000
  N   N14       1.0  0.3051015112491058  0.4942780473323937  0.70712276434773  1.0000
  N   N15       1.0  0.7631450446546494  0.11145967616207028  0.3282548176549582  1.0000
  N   N16       1.0  0.23685946256434684  0.6114567588608895  0.6717428377618262  1.0000
  N   N17       1.0  0.8248012800347768  0.22495572337822273  0.3625010072423862  1.0000
  N   N18       1.0  0.17518144235934588  0.7249380483613734  0.6374970617387987  1.0000
  N   N19       1.0  0.5680524982211992  0.7732747007267023  0.1928546391448975  1.0000
  N   N20       1.0  0.4319591045432887  0.27325755290653575  0.8071454567619155  1.0000
  N   N21       1.0  0.49171792487771177  0.6810612852393021  0.14798340866544632  1.0000
  N   N22       1.0  0.5083062857638865  0.1810528404234617  0.852018799066613  1.0000
  N   N23       1.0  0.41488753811957224  0.5938623466208242  0.10511402037942473  1.0000
  N   N24       1.0  0.5851361282076084  0.09386148586148832  0.8948894121154538  1.0000
  N   N25       1.0  8.207104275469961e-05  0.5881028368928939  0.3601693497323524  1.0000
  N   N26       1.0  0.9999096766514557  0.08808432277481158  0.6398283528110085  1.0000
  N   N27       1.0  0.5735317261803347  0.23301502328935444  0.15338729999130152  1.0000
  N   N28       1.0  0.42648298769076126  0.7329943178493683  0.8466175283057424  1.0000
  O   O1        1.0  0.8991771372836085  0.5946950625101621  0.2980450131419516  1.0000
  O   O2        1.0  0.10080149983732409  0.09466920093101554  0.7019528165885234  1.0000
  O   O3        1.0  0.3942386806341673  0.18925549167885697  0.1829746077432475  1.0000
  O   O4        1.0  0.6057676058740853  0.6892361107572074  0.8170226677663095  1.0000
