data_image0
_chemical_formula_structural       Cd4H32C36O32
_chemical_formula_sum              "Cd4 H32 C36 O32"
_cell_length_a       5.667964018341682
_cell_length_b       9.84042879337096
_cell_length_c       19.766432532167105
_cell_angle_alpha    89.99994925168895
_cell_angle_beta     89.9995175438583
_cell_angle_gamma    88.99031364579263

_space_group_name_H-M_alt    "P 1"
_space_group_IT_number       1

loop_
  _space_group_symop_operation_xyz
  'x, y, z'

loop_
  _atom_site_type_symbol
  _atom_site_label
  _atom_site_symmetry_multiplicity
  _atom_site_fract_x
  _atom_site_fract_y
  _atom_site_fract_z
  _atom_site_occupancy
  Cd  Cd1       1.0  0.25877551610410165  0.7640268162331053  0.2940328872487825  1.0000
  Cd  Cd2       1.0  0.24123278320259087  0.7359616006058545  0.7940310788216962  1.0000
  Cd  Cd3       1.0  0.7412191230228231  0.23597486016628724  0.7059645693548049  1.0000
  Cd  Cd4       1.0  0.7587653548364345  0.2640298746552219  0.2059684014119156  1.0000
  H   H1        1.0  0.8021223198732486  0.8680064575157403  0.1320879493840437  1.0000
  H   H2        1.0  0.6979127092731262  0.6319872773738453  0.6320867878481237  1.0000
  H   H3        1.0  0.19787759480710318  0.13198906282977418  0.8679125426630775  1.0000
  H   H4        1.0  0.30209078285456303  0.36802446261039984  0.3679157278247017  1.0000
  H   H5        1.0  0.041427870790919  0.8667378999681926  0.027316828549174898  1.0000
  H   H6        1.0  0.4585933151635757  0.6332560676556084  0.5273205830196375  1.0000
  H   H7        1.0  0.9585685268250685  0.1332617244112342  0.9726836635016696  1.0000
  H   H8        1.0  0.5413960452815302  0.3667507486064067  0.4726814267633658  1.0000
  H   H9        1.0  0.7826501700195647  0.8257076002501619  0.3097937952154766  1.0000
  H   H10       1.0  0.7173603787344405  0.6742788851598931  0.8097915599545331  1.0000
  H   H11       1.0  0.21734621852747438  0.17428897557756784  0.6902072027440482  1.0000
  H   H12       1.0  0.2826448175980047  0.3257125115032266  0.1902079202703035  1.0000
  H   H13       1.0  0.8990204373423367  0.9596906425164845  0.2812128520957486  1.0000
  H   H14       1.0  0.600982100520916  0.540295997804364  0.7812149963782744  1.0000
  H   H15       1.0  0.1009671433977388  0.04031111247434889  0.718791181323013  1.0000
  H   H16       1.0  0.3990213372434113  0.45969745087320757  0.21878701338934553  1.0000
  H   H17       1.0  0.49078352902454725  0.013652575567846301  0.3291887839924144  1.0000
  H   H18       1.0  0.0092247000847365  0.48633722214207603  0.8291854492821926  1.0000
  H   H19       1.0  0.5092040547792323  0.986350195609731  0.6708122139770722  1.0000
  H   H20       1.0  0.9907875515349145  0.5136530797403508  0.1708130191176735  1.0000
  H   H21       1.0  0.24825281440126187  0.05393203365343882  0.2911746323645517  1.0000
  H   H22       1.0  0.25174767190303265  0.4460579376754978  0.7911707071085488  1.0000
  H   H23       1.0  0.7517312312012406  0.9460677282724245  0.7088258597016335  1.0000
  H   H24       1.0  0.748261056632643  0.5539344358748793  0.20882624357081883  1.0000
  H   H25       1.0  0.9928041260532152  0.5336885831307897  0.2920463212506235  1.0000
  H   H26       1.0  0.5071840237199582  0.9663103871145752  0.7920450216158129  1.0000
  H   H27       1.0  0.007195797732016699  0.46630998576893024  0.7079511353468889  1.0000
  H   H28       1.0  0.49280177139608844  0.033684274246148484  0.20795243499990332  1.0000
  H   H29       1.0  0.9026195007138256  0.6184250126064795  0.3546733000123083  1.0000
  H   H30       1.0  0.5973721664384185  0.8815747907023023  0.8546728148471416  1.0000
  H   H31       1.0  0.0973733647995445  0.3815736348927175  0.6453226388694233  1.0000
  H   H32       1.0  0.4026207020452333  0.11842487297710846  0.14532666539172112  1.0000
  C   C1        1.0  0.5825954416715292  0.7023504012136642  0.1004963063938789  1.0000
  C   C2        1.0  0.9174193312460162  0.7976507453880257  0.6005001108504189  1.0000
  C   C3        1.0  0.4174079991421351  0.2976440636496349  0.8995036797408389  1.0000
  C   C4        1.0  0.08258944248346009  0.20235687091030738  0.3995049343574166  1.0000
  C   C5        1.0  0.7655684848740235  0.7949684724568938  0.09222142973699479  1.0000
  C   C6        1.0  0.7344553399670133  0.7050305599360696  0.5922257189589004  1.0000
  C   C7        1.0  0.23444024967407975  0.20502593345894138  0.9077775445747777  1.0000
  C   C8        1.0  0.2655552165096466  0.2949831338186825  0.4077757848884502  1.0000
  C   C9        1.0  0.8994249653343331  0.7942066029298189  0.0332121326821806  1.0000
  C   C10       1.0  0.6005987655313872  0.7057905337485905  0.5332111897003458  1.0000
  C   C11       1.0  0.1005749704829313  0.20579603070132885  0.9667888652719655  1.0000
  C   C12       1.0  0.39940472365477575  0.29422019005744454  0.46678576098260993  1.0000
  C   C13       1.0  0.8554435897466276  0.7008872281095792  0.9814475487265498  1.0000
  C   C14       1.0  0.6445638948794041  0.7991151562495984  0.4814471005732557  1.0000
  C   C15       1.0  0.1445563551252107  0.29911845407225707  0.0185539551352818  1.0000
  C   C16       1.0  0.35544310840084137  0.20089044734230294  0.5185463087488529  1.0000
  C   C17       1.0  0.6821345627919085  0.602045945023349  0.9911207445767688  1.0000
  C   C18       1.0  0.8178532487465587  0.8979607010339804  0.4911223632701791  1.0000
  C   C19       1.0  0.317860076277519  0.39795573137202916  0.0088807592922961  1.0000
  C   C20       1.0  0.1821326067740259  0.1020542840008858  0.5088755992504019  1.0000
  C   C21       1.0  0.5423790217004978  0.6045951092582624  0.0502278170603887  1.0000
  C   C22       1.0  0.9576230658891589  0.895407310391981  0.5502304784730255  1.0000
  C   C23       1.0  0.45761736989587826  0.39540248275520895  0.9497711572662267  1.0000
  C   C24       1.0  0.0423645420721215  0.10460359025495339  0.44977102540331526  1.0000
  C   C25       1.0  0.6514152400338417  0.492369337725691  0.941394072996509  1.0000
  C   C26       1.0  0.8485925224228835  0.007626466797212594  0.4413972574862725  1.0000
  C   C27       1.0  0.3485917360180153  0.5076271202096122  0.058602371776203206  1.0000
  C   C28       1.0  0.1514162423095158  0.9923781009544398  0.5586032345484  1.0000
  C   C29       1.0  0.44077408216072206  0.7128601042558954  0.1646036485790177  1.0000
  C   C30       1.0  0.0592449708627427  0.7871345877059994  0.6646037943428951  1.0000
  C   C31       1.0  0.5592417106376786  0.2871342230589703  0.8353983611730983  1.0000
  C   C32       1.0  0.9407443835843097  0.2128701961915596  0.3353951799913304  1.0000
  C   C33       1.0  0.9927287897720801  0.7149534282438096  0.9168267114566645  1.0000
  C   C34       1.0  0.5072734332225934  0.7850359524442254  0.4168311625325742  1.0000
  C   C35       1.0  0.007278186215089  0.2850430296869746  0.083174286489708  1.0000
  C   C36       1.0  0.49271590003724  0.21496171816419013  0.583170847251921  1.0000
  O   O1        1.0  0.49871632264000704  0.6331429546977176  0.21466978089724617  1.0000
  O   O2        1.0  0.0012871973489367989  0.8668538275599075  0.7146710572223682  1.0000
  O   O3        1.0  0.5012976844696836  0.3668442789825193  0.7853302052254847  1.0000
  O   O4        1.0  0.9987180200844888  0.13314468238632315  0.2853314584504218  1.0000
  O   O5        1.0  0.2884632099092528  0.8054293677765969  0.1708462243752038  1.0000
  O   O6        1.0  0.2115415944347134  0.6945807117573395  0.670849056192793  1.0000
  O   O7        1.0  0.7115490658104093  0.1945690635711799  0.8291567971970011  1.0000
  O   O8        1.0  0.7884548424345184  0.3054321230096022  0.3291524476722572  1.0000
  O   O9        1.0  0.8848560400682004  0.7690528880756062  0.8656754722810759  1.0000
  O   O10       1.0  0.6151423757894393  0.7309478310037179  0.3656761308791516  1.0000
  O   O11       1.0  0.11514742488140682  0.23094970625555789  0.1343265374850589  1.0000
  O   O12       1.0  0.3848434464903221  0.269055976009092  0.6343228434596213  1.0000
  O   O13       1.0  0.20803645856553032  0.6819035336896349  0.9159423535450558  1.0000
  O   O14       1.0  0.2919719332817508  0.8180937477850209  0.41594861530739985  1.0000
  O   O15       1.0  0.7919634742383366  0.31809808375827225  0.0840581385010708  1.0000
  O   O16       1.0  0.7080544741348618  0.1819096072859878  0.5840539003382546  1.0000
  O   O17       1.0  0.7921910515768643  0.47748323225194167  0.8934535347599564  1.0000
  O   O18       1.0  0.7078145137252321  0.022502544792906996  0.39344846430978453  1.0000
  O   O19       1.0  0.2078247291104418  0.5225070303259897  0.106550498625559  1.0000
  O   O20       1.0  0.2921836605823884  0.9775011246744613  0.6065494981972748  1.0000
  O   O21       1.0  0.888378314412833  0.8606405685465075  0.2740234199214839  1.0000
  O   O22       1.0  0.6116297244930919  0.63934704326671  0.7740229765794453  1.0000
  O   O23       1.0  0.1116180861878036  0.13936007201414208  0.7259796016701188  1.0000
  O   O24       1.0  0.3883719456988572  0.36064540887812047  0.2259775154659778  1.0000
  O   O25       1.0  0.39440454141556097  0.9935555696094267  0.2890449331236979  1.0000
  O   O26       1.0  0.1055968503851474  0.506435984268954  0.7890425235528511  1.0000
  O   O27       1.0  0.605583036368607  0.0064451692021947  0.7109545471215668  1.0000
  O   O28       1.0  0.8944154102962615  0.49355736616466567  0.2109559448465248  1.0000
  O   O29       1.0  0.04780362825300699  0.5821053632779397  0.3332400512087688  1.0000
  O   O30       1.0  0.45218946167011603  0.9178902463072801  0.8332376598732125  1.0000
  O   O31       1.0  0.9521892311688873  0.4178912518502713  0.666759429030584  1.0000
  O   O32       1.0  0.5478051532921171  0.0821033006222507  0.1667597967317107  1.0000
