data_image0
_chemical_formula_structural       Cu4H56C52S4N12
_chemical_formula_sum              "Cu4 H56 C52 S4 N12"
_cell_length_a       7.863207790560626
_cell_length_b       8.849543295154863
_cell_length_c       22.13698271228338
_cell_angle_alpha    85.70895441822381
_cell_angle_beta     80.3042072322552
_cell_angle_gamma    63.623223714051456

_space_group_name_H-M_alt    "P 1"
_space_group_IT_number       1

loop_
  _space_group_symop_operation_xyz
  'x, y, z'

loop_
  _atom_site_type_symbol
  _atom_site_label
  _atom_site_symmetry_multiplicity
  _atom_site_fract_x
  _atom_site_fract_y
  _atom_site_fract_z
  _atom_site_occupancy
  Cu  Cu1       1.0  0.15157594440243116  0.6073029437526287  0.094700553136839  1.0000
  Cu  Cu2       1.0  0.8504454582450908  0.3923483970236247  0.9060307091573351  1.0000
  Cu  Cu3       1.0  0.4935840202974687  0.1081590140684483  0.40576606549563377  1.0000
  Cu  Cu4       1.0  0.010062084305836412  0.8918581080290691  0.5944584416300671  1.0000
  H   H1        1.0  0.2637329487652096  0.5201864461761614  0.23646020097309156  1.0000
  H   H2        1.0  0.012087644290090772  0.4799984308031781  0.7644293645031652  1.0000
  H   H3        1.0  0.7423569002165352  0.020245365474600895  0.2640159891588212  1.0000
  H   H4        1.0  0.03478023732746751  0.979714997452376  0.7363087236699073  1.0000
  H   H5        1.0  0.8394857120237732  0.8887842836155355  0.04976863931727142  1.0000
  H   H6        1.0  0.7788075215814061  0.11038271223875998  0.9512858890420902  1.0000
  H   H7        1.0  0.14034529749028465  0.3900956886105859  0.45132703029843674  1.0000
  H   H8        1.0  0.9797178792472039  0.6101270278157782  0.5496650727551611  1.0000
  H   H9        1.0  0.166996940532819  0.7299292397345807  0.20916799495282853  1.0000
  H   H10       1.0  0.09951260191353856  0.2707589018902254  0.7922497448486823  1.0000
  H   H11       1.0  0.6207569204671304  0.22952904040908345  0.29183911207712754  1.0000
  H   H12       1.0  0.14778458212078496  0.7699003089446064  0.7090031834407499  1.0000
  H   H13       1.0  0.7969837271828911  0.9115447110025696  0.1301065336329614  1.0000
  H   H14       1.0  0.8340818167342334  0.087764813435534  0.8709148769174603  1.0000
  H   H15       1.0  0.17285425938930393  0.4125836719790214  0.37095742107828755  1.0000
  H   H16       1.0  0.9595077075432884  0.5878484227208955  0.6300404023204891  1.0000
  H   H17       1.0  0.10905297507154899  0.6875553656383033  0.2884412843593651  1.0000
  H   H18       1.0  0.07688902509284654  0.3114501819086755  0.7126919362515096  1.0000
  H   H19       1.0  0.6383955161400297  0.18886929326315985  0.21232057964846973  1.0000
  H   H20       1.0  0.04725276096053941  0.8123952692713627  0.7882849303246289  1.0000
  H   H21       1.0  0.7127464765832984  0.09551433218675948  0.08330380382732018  1.0000
  H   H22       1.0  0.8904704394499848  0.9037094228380766  0.9177049233082286  1.0000
  H   H23       1.0  0.04528851059964731  0.5967293409382461  0.41770622128093743  1.0000
  H   H24       1.0  0.059526633191076435  0.40358419016098407  0.5833507349897005  1.0000
  H   H25       1.0  0.8151601732177411  0.6685877121583343  0.3195235708443533  1.0000
  H   H26       1.0  0.7948875775959797  0.3307861393397217  0.6804699864971511  1.0000
  H   H27       1.0  0.37506786037790374  0.17012615383554663  0.1802960979447192  1.0000
  H   H28       1.0  0.7337696805802028  0.8329206466539674  0.8194206641249977  1.0000
  H   H29       1.0  0.9046804821059666  0.24445544094652394  0.0673677959845662  1.0000
  H   H30       1.0  0.21746702512459862  0.7547014643885672  0.9321363067668145  1.0000
  H   H31       1.0  0.22338970200936373  0.7454989108714825  0.4323862702492463  1.0000
  H   H32       1.0  0.4002430212311055  0.2546128098435999  0.5676882938151735  1.0000
  H   H33       1.0  0.5414783684408704  0.6250382925744089  0.2946190034932172  1.0000
  H   H34       1.0  0.4542652642060646  0.37356741814898686  0.7042185084629722  1.0000
  H   H35       1.0  0.07729521721665127  0.1272527990385086  0.204274680949311  1.0000
  H   H36       1.0  0.4166169763905926  0.8764133070673523  0.794493127147561  1.0000
  H   H37       1.0  0.223388411670129  0.24907311479877584  0.0631214880476847  1.0000
  H   H38       1.0  0.5368763490362553  0.750641291722516  0.9357498134633033  1.0000
  H   H39       1.0  0.5388667299357978  0.7494947564775882  0.4358276944906835  1.0000
  H   H40       1.0  0.7235640709917492  0.2501994690052952  0.563218843856042  1.0000
  H   H41       1.0  0.5543833851216107  0.5478344688042398  0.18495117537700884  1.0000
  H   H42       1.0  0.28320522290037764  0.4493901021026473  0.813696911909851  1.0000
  H   H43       1.0  0.9828847066608191  0.05085495549003129  0.31375102769804647  1.0000
  H   H44       1.0  0.3530582857508693  0.9521123821607274  0.6846860954438512  1.0000
  H   H45       1.0  0.5104369294572778  0.9735131120845677  0.07714641470056448  1.0000
  H   H46       1.0  0.5602335133621213  0.02687862053851829  0.9224401930310719  1.0000
  H   H47       1.0  0.838468869330555  0.473283190270699  0.4222153278899441  1.0000
  H   H48       1.0  0.7350604354882645  0.5258913734730015  0.5768580695730563  1.0000
  H   H49       1.0  0.8295349547456543  0.5324565175322744  0.10750324030758661  1.0000
  H   H50       1.0  0.4668790987325624  0.4646028211225967  0.8920394477620803  1.0000
  H   H51       1.0  0.18247369567983188  0.0353912348047984  0.391921789991919  1.0000
  H   H52       1.0  0.6134245694741267  0.9662264959019777  0.6071958642508122  1.0000
  H   H53       1.0  0.46526431562072906  0.7108796007860434  0.09320416430420411  1.0000
  H   H54       1.0  0.26630700351610387  0.2895915946758051  0.9075238081662037  1.0000
  H   H55       1.0  0.8071337236795771  0.21067112132548965  0.4072148412675816  1.0000
  H   H56       1.0  0.42724273147017283  0.7885753373675681  0.5928671573338065  1.0000
  C   C1        1.0  0.017115855018396273  0.5853510192170857  0.9719260249278179  1.0000
  C   C2        1.0  0.5745888579306  0.41535604213123617  0.02806144610292449  1.0000
  C   C3        1.0  0.2406074671679477  0.08480324604818178  0.5278033738675418  1.0000
  C   C4        1.0  0.8530256907415963  0.9144331221256647  0.4717572827836777  1.0000
  C   C5        1.0  0.9665276520699354  0.6218610403389986  0.22716142013199908  1.0000
  C   C6        1.0  0.8092602742165841  0.3768644952999835  0.7732013192074021  1.0000
  C   C7        1.0  0.436351732371655  0.12348651274437827  0.2729386527392137  1.0000
  C   C8        1.0  0.8391735248809346  0.8781930223925511  0.7269578936979926  1.0000
  C   C9        1.0  0.8135466153291019  0.6370611462099374  0.2730138119723052  1.0000
  C   C10       1.0  0.7165519839639746  0.3617413296380008  0.7268725564576286  1.0000
  C   C11       1.0  0.32809109704393796  0.1389048260931744  0.22669992379841367  1.0000
  C   C12       1.0  0.700969291337401  0.8638758369522532  0.7728607337398685  1.0000
  C   C13       1.0  0.661363773586139  0.6124642443271708  0.2590871362623375  1.0000
  C   C14       1.0  0.5266121213097321  0.385899293935239  0.740164949564182  1.0000
  C   C15       1.0  0.16236045303454472  0.11466361501246777  0.2401250736058458  1.0000
  C   C16       1.0  0.5241787055320375  0.8884475125369915  0.758929030848755  1.0000
  C   C17       1.0  0.6667914404202054  0.5713201522592966  0.1989673363209334  1.0000
  C   C18       1.0  0.43242020473822174  0.42637993436523647  0.8001605596758097  1.0000
  C   C19       1.0  0.10903451368940865  0.07396350578971317  0.3001285602842714  1.0000
  C   C20       1.0  0.4888933585084129  0.9287931922725929  0.6987411060120651  1.0000
  C   C21       1.0  0.821156507989244  0.560682222384969  0.15537936965405663  1.0000
  C   C22       1.0  0.5333530817751967  0.4368387575236311  0.8442418752879632  1.0000
  C   C23       1.0  0.22076605105709043  0.0633697219369225  0.3441148514802848  1.0000
  C   C24       1.0  0.6329481258321511  0.938671810576565  0.6551210283595665  1.0000
  C   C25       1.0  0.13487161090392888  0.6422287533589921  0.2414272639430237  1.0000
  C   C26       1.0  0.011237955676037255  0.3573797027106309  0.7595616684371082  1.0000
  C   C27       1.0  0.6188607216720999  0.14288931986516926  0.2591944759272735  1.0000
  C   C28       1.0  0.027941884489699555  0.8576588158056351  0.7412503016942936  1.0000
  C   C29       1.0  0.017289480704640536  0.9773777809409763  0.0840454918380971  1.0000
  C   C30       1.0  0.07733057216977092  0.022247072222356192  0.9165072632500042  1.0000
  C   C31       1.0  0.3507762335931446  0.4781001518772996  0.41646433050085824  1.0000
  C   C32       1.0  0.24582510153182108  0.5218261555473518  0.5840662631040843  1.0000
  C   C33       1.0  0.03237916370747483  0.12932261679091533  0.0739209277640782  1.0000
  C   C34       1.0  0.2356223952808139  0.8701748435674259  0.925862340948612  1.0000
  C   C35       1.0  0.35700609982426845  0.6300747229737667  0.4259680628876765  1.0000
  C   C36       1.0  0.41279574952943016  0.36981626763365927  0.5740872066875085  1.0000
  C   C37       1.0  0.20955355753572044  0.1314983849949982  0.0712487606443943  1.0000
  C   C38       1.0  0.41247817691201794  0.8682866551607515  0.9281864730103777  1.0000
  C   C39       1.0  0.5320738140510741  0.631892277745983  0.42819891398621485  1.0000
  C   C40       1.0  0.592099569971779  0.3677552790855643  0.5712784372200304  1.0000
  C   C41       1.0  0.368531573198986  0.979440030803971  0.0790292372941153  1.0000
  C   C42       1.0  0.4260560697064549  0.020688087004820895  0.9207989873284603  1.0000
  C   C43       1.0  0.6980386152109122  0.4795027340471164  0.42063871934271907  1.0000
  C   C44       1.0  0.5990609021834459  0.5199152634724624  0.5788461264512748  1.0000
  C   C45       1.0  0.3443731421224572  0.8329156013943687  0.0882264069630381  1.0000
  C   C46       1.0  0.2633232318505848  0.1673058537170959  0.9122708854217124  1.0000
  C   C47       1.0  0.6818510652467684  0.33295055570969356  0.41204031691908233  1.0000
  C   C48       1.0  0.4283892056208815  0.6664762710141969  0.5880034511584001  1.0000
  C   C49       1.0  0.830322085038354  0.9693911349883775  0.0868438334342017  1.0000
  C   C50       1.0  0.8849856722504372  0.029927218654030693  0.9141017469211762  1.0000
  C   C51       1.0  0.1660271658257386  0.47049063908007577  0.4141142611167297  1.0000
  C   C52       1.0  0.050908225021572835  0.5297749620529257  0.5868308004384772  1.0000
  S   S1        1.0  0.4615899677335661  0.40273027997306327  0.0962465913410426  1.0000
  S   S2        1.0  0.9590506024599825  0.596444283770637  0.90338410385354  1.0000
  S   S3        1.0  0.8061690294186552  0.9037914083066381  0.4031628843093316  1.0000
  S   S4        1.0  0.11523049210578745  0.09668861635951487  0.5959880687574853  1.0000
  N   N1        1.0  0.06094376378685958  0.5804041421756949  0.021001939656358104  1.0000
  N   N2        1.0  0.6612039396658744  0.4208969984909601  0.979279246164147  1.0000
  N   N3        1.0  0.3328575557676033  0.07961924180541757  0.47906315818212164  1.0000
  N   N4        1.0  0.8920434925403248  0.9189814236583655  0.5208426688434713  1.0000
  N   N5        1.0  0.968052308663026  0.5869554117710505  0.1682188887379041  1.0000
  N   N6        1.0  0.7185044221394964  0.41128199500127477  0.832001571134441  1.0000
  N   N7        1.0  0.38036078710652543  0.08899207283412378  0.33176263143545986  1.0000
  N   N8        1.0  0.8061236263562183  0.9124150182841999  0.6679678494770585  1.0000
  N   N9        1.0  0.1733130007046242  0.8297282586397543  0.0908002752519579  1.0000
  N   N10       1.0  0.09142551413918895  0.17022832034252383  0.9100309027325794  1.0000
  N   N11       1.0  0.5128275928743878  0.33013403953594167  0.4098344123472232  1.0000
  N   N12       1.0  0.25413289384739857  0.6695891961896618  0.590653125732409  1.0000
