data_image0
_chemical_formula_structural       Zn2H34C34N2O8
_chemical_formula_sum              "Zn2 H34 C34 N2 O8"
_cell_length_a       6.5416224924051765
_cell_length_b       7.360398316013133
_cell_length_c       16.85398112165556
_cell_angle_alpha    91.77976400134379
_cell_angle_beta     101.22977516486202
_cell_angle_gamma    90.01067864458075

_space_group_name_H-M_alt    "P 1"
_space_group_IT_number       1

loop_
  _space_group_symop_operation_xyz
  'x, y, z'

loop_
  _atom_site_type_symbol
  _atom_site_label
  _atom_site_symmetry_multiplicity
  _atom_site_fract_x
  _atom_site_fract_y
  _atom_site_fract_z
  _atom_site_occupancy
  Zn  Zn1       1.0  0.6503702454183866  0.7337638623168203  0.4654624462419577  1.0000
  Zn  Zn2       1.0  0.1846188293310504  0.2661311527289881  0.5342941906418657  1.0000
  H   H1        1.0  0.6597389548737739  0.6352531460411368  0.3156784261711677  1.0000
  H   H2        1.0  0.3445353786813357  0.3646788254807163  0.6840509683928386  1.0000
  H   H3        1.0  0.079543476008169  0.7682381797561177  0.9851612949797895  1.0000
  H   H4        1.0  0.09680785805884538  0.2331785904851955  0.014863997084816595  1.0000
  H   H5        1.0  0.8734148090214616  0.904749694548414  0.08261714831642304  1.0000
  H   H6        1.0  0.7923021580750601  0.09697476042847339  0.9175648540390923  1.0000
  H   H7        1.0  0.014056647826791398  0.9021512243395831  0.22987774307534176  1.0000
  H   H8        1.0  0.7850036976203897  0.0987842455586829  0.7702789634693089  1.0000
  H   H9        1.0  0.5650518758260007  0.6280137583064231  0.1839894389049093  1.0000
  H   H10       1.0  0.38330651685286193  0.37099824161865763  0.8158590325736268  1.0000
  H   H11       1.0  0.4232447323594074  0.6278939782778606  0.0378646078398859  1.0000
  H   H12       1.0  0.38832800230137815  0.37195500273147536  0.9619876978231968  1.0000
  H   H13       1.0  0.47422835653508605  0.9132664786058272  0.3195484552290465  1.0000
  H   H14       1.0  0.15548631063416  0.08651379207584138  0.6803965437755009  1.0000
  H   H15       1.0  0.2610311237864167  0.7910632989883055  0.34101072365672985  1.0000
  H   H16       1.0  0.9205690355808612  0.2085077782027653  0.6590620848347867  1.0000
  H   H17       1.0  0.3078237888317616  0.4401861055002669  0.2906971955001793  1.0000
  H   H18       1.0  0.0175421519955137  0.5594208314391552  0.7091051827053005  1.0000
  H   H19       1.0  0.7350034718854914  0.33613233330832054  0.3887269415206092  1.0000
  H   H20       1.0  0.34679541624368676  0.6637991548787737  0.6113315999418416  1.0000
  H   H21       1.0  0.5260882443224233  0.18209070867074933  0.3555453056439077  1.0000
  H   H22       1.0  0.17096555324835802  0.8177041365402714  0.644425700958706  1.0000
  H   H23       1.0  0.9524722338928199  0.4293157163342371  0.2966018190173542  1.0000
  H   H24       1.0  0.6569777150772537  0.5715265530085389  0.7038111730871464  1.0000
  H   H25       1.0  0.03168533058720159  0.43237934661822647  0.15748374863572676  1.0000
  H   H26       1.0  0.874588326633642  0.568339769927121  0.843161033559319  1.0000
  H   H27       1.0  0.7833332470851103  0.28838264694844895  0.041730664878493  1.0000
  H   H28       1.0  0.7405890606740116  0.7111774237157035  0.9587306184867896  1.0000
  H   H29       1.0  0.4612529646712318  0.13583185088336336  0.0659796690392369  1.0000
  H   H30       1.0  0.39393058310329815  0.8629953297384317  0.9340432370759045  1.0000
  H   H31       1.0  0.3770546331796966  0.14483490470469462  0.20264337905130245  1.0000
  H   H32       1.0  0.17386843804671773  0.8541427447705415  0.7971334878338607  1.0000
  H   H33       1.0  0.7176056611428906  0.9966634241634721  0.5933795600792066  1.0000
  H   H34       1.0  0.12391795265749288  0.0032820891831519985  0.4063384619040632  1.0000
  C   C1        1.0  0.1396517352654882  0.7666441753158111  0.05019243144203499  1.0000
  C   C2        1.0  0.09163822043409202  0.23431827519883794  0.9498368399751269  1.0000
  C   C3        1.0  0.0248392060183562  0.8431597700539513  0.10448564061297817  1.0000
  C   C4        1.0  0.9220589745400716  0.1579125885411087  0.8956397781947697  1.0000
  C   C5        1.0  0.10406403632429569  0.8418459828812885  0.18761440529907955  1.0000
  C   C6        1.0  0.9177278069906619  0.158847074293071  0.8124950727718385  1.0000
  C   C7        1.0  0.29955029896294155  0.7658644557219746  0.21746606266297863  1.0000
  C   C8        1.0  0.0834978514553413  0.23412210056780938  0.7825301778302105  1.0000
  C   C9        1.0  0.4129141807464762  0.6886859862708263  0.16268143957046274  1.0000
  C   C10       1.0  0.2523086729247268  0.3108974506636386  0.8372346276393257  1.0000
  C   C11       1.0  0.3330080459383211  0.6885873900459882  0.07966938294443077  1.0000
  C   C12       1.0  0.25578914754993326  0.3114648976454503  0.9202613435961025  1.0000
  C   C13       1.0  0.38837820282994057  0.7835698217817109  0.3071065720117332  1.0000
  C   C14       1.0  0.08206042720478023  0.21617437561099  0.6928624470141571  1.0000
  C   C15       1.0  0.4369235313471336  0.46087278825885386  0.34302559452694936  1.0000
  C   C16       1.0  0.09428345024434041  0.5388894007298503  0.656827909748145  1.0000
  C   C17       1.0  0.3488596694200011  0.4431716438910199  0.4201850975133822  1.0000
  C   C18       1.0  0.9289538118151198  0.5567591559460537  0.5796432562759364  1.0000
  C   C19       1.0  0.598150479820319  0.3080645770570171  0.3405711977415676  1.0000
  C   C20       1.0  0.2580152223922099  0.6917383340033112  0.65943058545038  1.0000
  C   C21       1.0  0.6578704951325633  0.2912945150965455  0.25881865504752705  1.0000
  C   C22       1.0  0.39930259643093535  0.7086120449029637  0.7412827213268898  1.0000
  C   C23       1.0  0.8433902430257589  0.3689607329243785  0.24522583864690964  1.0000
  C   C24       1.0  0.5986840869501363  0.6314587713714487  0.7550796391301018  1.0000
  C   C25       1.0  0.8887888746437155  0.36822631215034113  0.16746825019362174  1.0000
  C   C26       1.0  0.7214388447282045  0.6321011626746937  0.8329689885476481  1.0000
  C   C27       1.0  0.7498796984816353  0.28688300780153503  0.1025985945985752  1.0000
  C   C28       1.0  0.646752990697948  0.7128885330295559  0.8977486314843616  1.0000
  C   C29       1.0  0.5681324840430192  0.2032485790026541  0.11599248360019487  1.0000
  C   C30       1.0  0.45135242766439626  0.7960350369054225  0.8841352707395698  1.0000
  C   C31       1.0  0.5217461116945473  0.207038150786822  0.19333593528663326  1.0000
  C   C32       1.0  0.3280478696628321  0.7923021931751604  0.806677666314499  1.0000
  C   C33       1.0  0.5703624004880012  0.045502552461982794  0.556774870859243  1.0000
  C   C34       1.0  0.0133781954891745  0.9542887249984414  0.44292499805148106  1.0000
  N   N1        1.0  0.5327595350478163  0.6410577917792893  0.3427194936918737  1.0000
  N   N2        1.0  0.19037673890530024  0.35876651258634956  0.6571050370617257  1.0000
  O   O1        1.0  0.4105788257895711  0.5503280370648086  0.48025645922497506  1.0000
  O   O2        1.0  0.9303816189079798  0.44982259652017825  0.519503669872222  1.0000
  O   O3        1.0  0.22256446615950412  0.3115976366004958  0.4198701399688644  1.0000
  O   O4        1.0  0.8029841081714223  0.6882842533239496  0.5799568803645626  1.0000
  O   O5        1.0  0.5019619718137776  0.964631911398939  0.48893481695390756  1.0000
  O   O6        1.0  0.012447106902612899  0.0353669187714942  0.5106804619365092  1.0000
  O   O7        1.0  0.4822244587680942  0.17772336344788187  0.5861534223564248  1.0000
  O   O8        1.0  0.8962410173141252  0.8216856986283786  0.4135866587882545  1.0000
