data_image0
_chemical_formula_structural       Gd2Cu6H42C48O42
_chemical_formula_sum              "Gd2 Cu6 H42 C48 O42"
_cell_length_a       9.653439028293082
_cell_length_b       12.21260617499475
_cell_length_c       12.61872242980619
_cell_angle_alpha    116.54981577486822
_cell_angle_beta     96.14119902000137
_cell_angle_gamma    90.65936824196368

_space_group_name_H-M_alt    "P 1"
_space_group_IT_number       1

loop_
  _space_group_symop_operation_xyz
  'x, y, z'

loop_
  _atom_site_type_symbol
  _atom_site_label
  _atom_site_symmetry_multiplicity
  _atom_site_fract_x
  _atom_site_fract_y
  _atom_site_fract_z
  _atom_site_occupancy
  Gd  Gd1       1.0  0.251115759604943  0.7012055989857586  0.2246498864694361  1.0000
  Gd  Gd2       1.0  0.7488866775521928  0.29879321658604135  0.7753520756101651  1.0000
  Cu  Cu1       1.0  0.3247149831526741  0.09763032027231586  0.13008639269048666  1.0000
  Cu  Cu2       1.0  0.6752869194075047  0.9023419833853695  0.869921631718654  1.0000
  Cu  Cu3       1.0  0.2713427320988018  0.32514403569904726  0.10172803611829549  1.0000
  Cu  Cu4       1.0  0.7286728693626188  0.6748949829878866  0.8982874876927838  1.0000
  Cu  Cu5       1.0  0.0324447768536231  0.8823973681403601  0.007353453026432483  1.0000
  Cu  Cu6       1.0  0.9675432911152416  0.11759145314432119  0.9926303135853729  1.0000
  H   H1        1.0  0.3579016778473091  0.2956189699774043  0.5971249002145314  1.0000
  H   H2        1.0  0.6420872678888473  0.7043799944785221  0.4028712008704077  1.0000
  H   H3        1.0  0.3039932535678034  0.6265489704667644  0.5622232606841138  1.0000
  H   H4        1.0  0.6959679762733942  0.3734329771350459  0.43777267779663026  1.0000
  H   H5        1.0  0.2563087162728621  0.1303794044080107  0.6382924650222394  1.0000
  H   H6        1.0  0.743695193255853  0.8696249699909441  0.3617223020679958  1.0000
  H   H7        1.0  0.3421853017217487  0.8038855035886314  0.6743842137835685  1.0000
  H   H8        1.0  0.6578199559735155  0.19614358208966115  0.3256309247654698  1.0000
  H   H9        1.0  0.3287870029469246  0.5203767775231752  0.6921828784086443  1.0000
  H   H10       1.0  0.6711869004105041  0.4796058354768531  0.3078017629798069  1.0000
  H   H11       1.0  0.29787558851855783  0.9072448650644489  0.5433934248409003  1.0000
  H   H12       1.0  0.7021155426559815  0.0927679615244017  0.45662622292223176  1.0000
  H   H13       1.0  0.9987710651881802  0.2841780490181307  0.5722834940410806  1.0000
  H   H14       1.0  0.0012365329539463028  0.7158297614808049  0.4277045306888921  1.0000
  H   H15       1.0  0.05613689065894081  0.06484088478661217  0.473760370918427  1.0000
  H   H16       1.0  0.9438712459165971  0.9351623891904094  0.526235272434043  1.0000
  H   H17       1.0  0.9674277877677611  0.39771222308373666  0.45041946289859414  1.0000
  H   H18       1.0  0.0325652015911047  0.6022838170254943  0.5495583043379995  1.0000
  H   H19       1.0  0.01571765337079972  0.5415744541235341  0.2433884871433563  1.0000
  H   H20       1.0  0.9842762412697182  0.4584206973133006  0.7565953189368811  1.0000
  H   H21       1.0  0.17760043270893533  0.5002254652096949  0.9787350327150931  1.0000
  H   H22       1.0  0.822426949614254  0.4997730432089114  0.02127292317760516  1.0000
  H   H23       1.0  0.34872340343614633  0.8428400035323235  0.08232339053712673  1.0000
  H   H24       1.0  0.6512639968195586  0.15716546280112456  0.9176832793185524  1.0000
  H   H25       1.0  0.5650427276585718  0.31969277505509547  0.10876774281631899  1.0000
  H   H26       1.0  0.4349773673398971  0.6803168412881675  0.8912427418382265  1.0000
  H   H27       1.0  0.4882433830722095  0.8577699888491496  0.427967344336196  1.0000
  H   H28       1.0  0.5117495463036547  0.14222808241427026  0.5720406080458815  1.0000
  H   H29       1.0  0.5356166380609296  0.3424785778740116  0.9962608656996395  1.0000
  H   H30       1.0  0.4643961596799286  0.6575311464317153  0.003750617477251831  1.0000
  H   H31       1.0  0.9338982356932419  0.6441553728486795  0.22696356380641447  1.0000
  H   H32       1.0  0.06610133952161591  0.35585724154189086  0.7730416677733486  1.0000
  H   H33       1.0  0.4892007411221186  0.520020394261543  0.1453484062026718  1.0000
  H   H34       1.0  0.5108027572264363  0.4799903884062643  0.8546651004606218  1.0000
  H   H35       1.0  0.12586108882673838  0.6200686068378474  0.9657409799728924  1.0000
  H   H36       1.0  0.8741784042579113  0.37992510583185174  0.03425963695912063  1.0000
  H   H37       1.0  0.5710244694898989  0.6492331522083035  0.20513640916263406  1.0000
  H   H38       1.0  0.4289820404694781  0.3507766927227181  0.7948801279722132  1.0000
  H   H39       1.0  0.39924468422604065  0.950347633227473  0.3955689291292401  1.0000
  H   H40       1.0  0.6007522431780216  0.049648542550293905  0.6044377675563978  1.0000
  H   H41       1.0  0.43944041076080254  0.8666284493543516  0.20184642232817415  1.0000
  H   H42       1.0  0.5605508426883717  0.13339528155234598  0.7981604595044871  1.0000
  C   C1        1.0  0.3478009942664713  0.2756092658935572  0.4194397477194869  1.0000
  C   C2        1.0  0.6522075970572415  0.7244005512273759  0.5805769579699316  1.0000
  C   C3        1.0  0.3665714179504748  0.14252643287839814  0.3757130967391261  1.0000
  C   C4        1.0  0.6334276818865235  0.8574806459749881  0.6242849737289405  1.0000
  C   C5        1.0  0.23751735298420582  0.27897480970822386  0.8574817057108675  1.0000
  C   C6        1.0  0.7624875704762247  0.7210175750982161  0.14252247958189207  1.0000
  C   C7        1.0  0.3124539541425406  0.4644234925499901  0.39992399115583044  1.0000
  C   C8        1.0  0.6875469400836566  0.5355708143099847  0.6000854209916895  1.0000
  C   C9        1.0  0.267888243222906  0.1481587263328237  0.8154327125003531  1.0000
  C   C10       1.0  0.732116095566127  0.851849242779906  0.18457253249438585  1.0000
  C   C11       1.0  0.3156160625097684  0.9612484389817838  0.8352995814579529  1.0000
  C   C12       1.0  0.6843892234637539  0.0387466073217411  0.1646922997573697  1.0000
  C   C13       1.0  0.3476253934314216  0.34448483590210077  0.5430843596647748  1.0000
  C   C14       1.0  0.6523719320269165  0.6555149611573013  0.45691678608369574  1.0000
  C   C15       1.0  0.337728074337612  0.8845968542861087  0.8991331574768253  1.0000
  C   C16       1.0  0.6622592111472585  0.11540672967325351  0.10086556571997822  1.0000
  C   C17       1.0  0.325923300796113  0.3353046915417154  0.3450500238382617  1.0000
  C   C18       1.0  0.6740947483792041  0.6647059123961938  0.6549670454019818  1.0000
  C   C19       1.0  0.316303969710674  0.5284517749003327  0.5243098343705057  1.0000
  C   C20       1.0  0.683681028570426  0.47153902360930994  0.4756895683849862  1.0000
  C   C21       1.0  0.28750498449218753  0.0873977132098602  0.8888740048307324  1.0000
  C   C22       1.0  0.7124969479870986  0.9125946017266316  0.11111324876522854  1.0000
  C   C23       1.0  0.29086597066346803  0.5384042721191661  0.33465721977034957  1.0000
  C   C24       1.0  0.7091323418556925  0.46158454826802126  0.6653480396375642  1.0000
  C   C25       1.0  0.2731021305537524  0.0814498577215375  0.6921020488781835  1.0000
  C   C26       1.0  0.7269041817134722  0.9185461769701034  0.30790302360800575  1.0000
  C   C27       1.0  0.042068948777902904  0.05255032223037399  0.2986264627455668  1.0000
  C   C28       1.0  0.9579274508895423  0.9474383825003725  0.7013571838528421  1.0000
  C   C29       1.0  0.32015830812683543  0.9000787386360615  0.7116935698802964  1.0000
  C   C30       1.0  0.6798450898393541  0.09992915936449982  0.2882988831305369  1.0000
  C   C31       1.0  0.08297372669947829  0.9240642447215703  0.2523642837371368  1.0000
  C   C32       1.0  0.9170233567347807  0.07593179821680711  0.7476225571568946  1.0000
  C   C33       1.0  0.33151015705617937  0.4696997184394505  0.5964518291742279  1.0000
  C   C34       1.0  0.6684729876166244  0.5302828756866803  0.403549455343061  1.0000
  C   C35       1.0  0.2973073637919513  0.9578023646483942  0.6392839840873351  1.0000
  C   C36       1.0  0.7026849460147987  0.04220031221341709  0.3607266746838889  1.0000
  C   C37       1.0  0.005632985497953801  0.2377713917060973  0.47701677042073237  1.0000
  C   C38       1.0  0.9943697224602134  0.7622291734004135  0.522973282526138  1.0000
  C   C39       1.0  0.0357950981506363  0.11553396769947707  0.42200616309118283  1.0000
  C   C40       1.0  0.9642067837555149  0.8844684086689513  0.5779790445306646  1.0000
  C   C41       1.0  0.9907892139483253  0.2433007156518627  0.2849108630584496  1.0000
  C   C42       1.0  0.009202463927337597  0.7566935888277015  0.7150787290335856  1.0000
  C   C43       1.0  0.015380948485528699  0.11619303748154407  0.22814194817050998  1.0000
  C   C44       1.0  0.9846069110943817  0.883793981132676  0.7718457852573832  1.0000
  C   C45       1.0  0.9861229315862161  0.3005431503003066  0.4086479067114865  1.0000
  C   C46       1.0  0.013873734426667296  0.6994593062204969  0.5913384679872777  1.0000
  C   C47       1.0  0.9746754968426573  0.32544948490320275  0.22516465408696726  1.0000
  C   C48       1.0  0.02531148242043461  0.6745384011291123  0.7748138635706213  1.0000
  O   O1        1.0  0.2631540960319114  0.490765339892654  0.21841186254534506  1.0000
  O   O2        1.0  0.7368611649534742  0.5092369832360006  0.7815935022411223  1.0000
  O   O3        1.0  0.36157473357020103  0.0665262649478251  0.26350629073952087  1.0000
  O   O4        1.0  0.6384236519374014  0.9334634833424715  0.7365009564186664  1.0000
  O   O5        1.0  0.20924982038801693  0.34871193299823483  0.9645015902570363  1.0000
  O   O6        1.0  0.7907652253237389  0.6512986116968803  0.035500135749742895  1.0000
  O   O7        1.0  0.2792932732327458  0.14884523523963367  0.006286435171176725  1.0000
  O   O8        1.0  0.7206988052467198  0.8511416799322331  0.9936944872808694  1.0000
  O   O9        1.0  0.3881388902278289  0.100464005165847  0.45118029129580606  1.0000
  O   O10       1.0  0.6118609696778493  0.8995173216778128  0.5488028808110955  1.0000
  O   O11       1.0  0.3262415176046574  0.9298720370773166  0.013728762879168122  1.0000
  O   O12       1.0  0.6737310112140165  0.0701189123521431  0.9862672458539378  1.0000
  O   O13       1.0  0.2356389322316659  0.3230673864842614  0.7833262355095698  1.0000
  O   O14       1.0  0.7643604202057617  0.6769444275290082  0.21669606987985898  1.0000
  O   O15       1.0  0.317183031399324  0.27209993986419073  0.2260944132858782  1.0000
  O   O16       1.0  0.6828567866307296  0.7279094547918277  0.7739240264903486  1.0000
  O   O17       1.0  0.2961568924189707  0.6545499952485585  0.3906903796666654  1.0000
  O   O18       1.0  0.7038162809336513  0.3454363273282084  0.6092997457506399  1.0000
  O   O19       1.0  0.07849751532718588  0.8488895271646085  0.13949012228240315  1.0000
  O   O20       1.0  0.9215063917724393  0.1511128692159076  0.8605024019789836  1.0000
  O   O21       1.0  0.12748370495068434  0.8830691879776823  0.32540011896198706  1.0000
  O   O22       1.0  0.8725107068501003  0.11693245346730656  0.6745968071385562  1.0000
  O   O23       1.0  0.41646945934395774  0.8607159098693343  0.36683907991761794  1.0000
  O   O24       1.0  0.5835226670386718  0.13928494306772168  0.6331723687430255  1.0000
  O   O25       1.0  0.3805384698864742  0.8026588194787081  0.13379844286691173  1.0000
  O   O26       1.0  0.6194628011208607  0.19735013519297692  0.8662109197412561  1.0000
  O   O27       1.0  0.018002104649760004  0.0572544735650666  0.1092716193002161  1.0000
  O   O28       1.0  0.9819775174931635  0.9427225629761223  0.8907127204935463  1.0000
  O   O29       1.0  0.4755912115105189  0.6102725412775527  0.1795456701438881  1.0000
  O   O30       1.0  0.5244124140912733  0.3897401131371865  0.8204741947149685  1.0000
  O   O31       1.0  0.9767676558442419  0.4389533383729968  0.2898003701668658  1.0000
  O   O32       1.0  0.023214353361780102  0.5610363986006988  0.7101705823615773  1.0000
  O   O33       1.0  0.029339270770947206  0.6148316714241489  0.22795863014524545  1.0000
  O   O34       1.0  0.9706607549773879  0.3851735111501072  0.7720315779412203  1.0000
  O   O35       1.0  0.960819708042351  0.2830046967265858  0.1087376054169981  1.0000
  O   O36       1.0  0.03916958403280549  0.7169859345778062  0.891245455582677  1.0000
  O   O37       1.0  0.18308791970900984  0.5911246708441381  0.016558970245498027  1.0000
  O   O38       1.0  0.8169528286879669  0.408870825277404  0.9834369699160561  1.0000
  O   O39       1.0  0.5102161383173183  0.37053058975028114  0.07731092864715819  1.0000
  O   O40       1.0  0.48980088889945256  0.6294800121519443  0.9227036736208162  1.0000
  O   O41       1.0  0.3648104329912698  0.7748726826439521  0.8416845702857215  1.0000
  O   O42       1.0  0.6352032194581129  0.225146214421315  0.15833090576070677  1.0000
