data_image0
_chemical_formula_structural       Cd2H14C22S4N6O2
_chemical_formula_sum              "Cd2 H14 C22 S4 N6 O2"
_cell_length_a       8.255393310257496
_cell_length_b       8.305772936993185
_cell_length_c       11.15827204094429
_cell_angle_alpha    106.99433296102637
_cell_angle_beta     92.2885049742088
_cell_angle_gamma    117.39392283958462

_space_group_name_H-M_alt    "P 1"
_space_group_IT_number       1

loop_
  _space_group_symop_operation_xyz
  'x, y, z'

loop_
  _atom_site_type_symbol
  _atom_site_label
  _atom_site_symmetry_multiplicity
  _atom_site_fract_x
  _atom_site_fract_y
  _atom_site_fract_z
  _atom_site_occupancy
  Cd  Cd1       1.0  0.74747099299109  0.37781290968564457  0.02009748471342479  1.0000
  Cd  Cd2       1.0  0.2525282738042662  0.6221854921140634  0.9799038470953859  1.0000
  H   H1        1.0  0.0025220742503861567  0.8982669997563733  0.1286350481344911  1.0000
  H   H2        1.0  0.997479627478931  0.1017314057099838  0.8713636720683623  1.0000
  H   H3        1.0  0.085222417556551  0.19419754116012913  0.3180702945949463  1.0000
  H   H4        1.0  0.9147768616713774  0.8058008686845282  0.6819283507552285  1.0000
  H   H5        1.0  0.23759145160784806  0.2307222744395929  0.533642973418118  1.0000
  H   H6        1.0  0.7624060869120938  0.7692775821146399  0.46635772506176926  1.0000
  H   H7        1.0  0.3523993833306136  0.08946738974529471  0.6619980391439029  1.0000
  H   H8        1.0  0.6476000565218102  0.9105339123143497  0.3380030337722958  1.0000
  H   H9        1.0  0.40260899637990377  0.8219269696839434  0.6724492340147563  1.0000
  H   H10       1.0  0.5973916547232179  0.1780743301865613  0.3275518763277816  1.0000
  H   H11       1.0  0.30668622256666106  0.5328160536431739  0.4775796477050774  1.0000
  H   H12       1.0  0.6933187606587053  0.46718669271775337  0.5224201209540312  1.0000
  H   H13       1.0  0.16045206656035296  0.5108096987352582  0.26843340531969057  1.0000
  H   H14       1.0  0.8395522224390388  0.48919159724944444  0.7315669218156627  1.0000
  C   C1        1.0  0.6569734136638061  0.0016758749020766997  0.1044145026183116  1.0000
  C   C2        1.0  0.34303985668488207  0.9983340958118135  0.8955888917684404  1.0000
  C   C3        1.0  0.4243377605260504  0.4382307981140769  0.13282267062800912  1.0000
  C   C4        1.0  0.5756497833161089  0.5617633022499504  0.8671692913642488  1.0000
  C   C5        1.0  0.06596231607090156  0.9209534370952425  0.22374825551267458  1.0000
  C   C6        1.0  0.9340369631570268  0.0790449727494149  0.7762503898375002  1.0000
  C   C7        1.0  0.11561376836824878  0.08546254662949339  0.3313105081221224  1.0000
  C   C8        1.0  0.884384295464798  0.9145358627226584  0.6686889952879226  1.0000
  C   C9        1.0  0.19670573569023014  0.103753673110468  0.4484458692364512  1.0000
  C   C10       1.0  0.8032918069739023  0.8962461861254097  0.5515539337572264  1.0000
  C   C11       1.0  0.22741009041670415  0.9541194268900739  0.459512738330595  1.0000
  C   C12       1.0  0.7725891888112243  0.04587898295458361  0.5404859070195727  1.0000
  C   C13       1.0  0.30932819848835885  0.9621958059022475  0.5767507588011256  1.0000
  C   C14       1.0  0.6906705512822809  0.0378040484628315  0.423249977105101  1.0000
  C   C15       1.0  0.33673115553851557  0.81271944645529  0.5823446484337467  1.0000
  C   C16       1.0  0.6632694955646059  0.18728185341520742  0.4176564619087912  1.0000
  C   C17       1.0  0.2823428065940163  0.6487935924954372  0.4713942356207994  1.0000
  C   C18       1.0  0.7176609612364685  0.3512091533729845  0.5286063910981796  1.0000
  C   C19       1.0  0.2020485214057216  0.634736477478647  0.35514089583150366  1.0000
  C   C20       1.0  0.7979564576754541  0.36526626620062785  0.6448597683138146  1.0000
  C   C21       1.0  0.17511116632629614  0.7876231501102711  0.34874072648459287  1.0000
  C   C22       1.0  0.8248907001717071  0.21237815025273227  0.6512595257980748  1.0000
  S   S1        1.0  0.8635677708164093  0.1616195553040072  0.09876971210562147  1.0000
  S   S2        1.0  0.1364328719983305  0.838381739203193  0.9012331892093428  1.0000
  S   S3        1.0  0.5968021764168795  0.45553584725428214  0.2229418406957535  1.0000
  S   S4        1.0  0.40319537453563464  0.5444640173448931  0.7770561713254907  1.0000
  N   N1        1.0  0.5078028131695261  0.8886600228648476  0.1129339689134312  1.0000
  N   N2        1.0  0.4921890130645963  0.1113354918098182  0.8870673972299484  1.0000
  N   N3        1.0  0.2983557077134265  0.42272393719208884  0.06675498936413499  1.0000
  N   N4        1.0  0.7016449619641633  0.5772672227414689  0.9332430161277614  1.0000
  N   N5        1.0  0.09689253623245977  0.7793701408488048  0.23268500425719912  1.0000
  N   N6        1.0  0.9031074289330617  0.22062971400877274  0.7673148735891572  1.0000
  O   O1        1.0  0.05241924545586583  0.625588833549152  0.1292209414940757  1.0000
  O   O2        1.0  0.9475793354018972  0.37440812323763584  0.8707791578185535  1.0000
