data_image0
_chemical_formula_structural       Sm2Fe4H50C72N4O16
_chemical_formula_sum              "Sm2 Fe4 H50 C72 N4 O16"
_cell_length_a       11.529390585445865
_cell_length_b       12.00011358617924
_cell_length_c       13.7652
_cell_angle_alpha    94.75683258074228
_cell_angle_beta     109.33036065078159
_cell_angle_gamma    117.28912878053862

_space_group_name_H-M_alt    "P 1"
_space_group_IT_number       1

loop_
  _space_group_symop_operation_xyz
  'x, y, z'

loop_
  _atom_site_type_symbol
  _atom_site_label
  _atom_site_symmetry_multiplicity
  _atom_site_fract_x
  _atom_site_fract_y
  _atom_site_fract_z
  _atom_site_occupancy
  Sm  Sm1       1.0  0.800546735940074  0.3594103555777365  0.38356609603169284  1.0000
  Sm  Sm2       1.0  0.19945359588307807  0.6405888249589538  0.616433864077301  1.0000
  Fe  Fe1       1.0  0.8503821448286502  0.7608799828309998  0.25048540569319033  1.0000
  Fe  Fe2       1.0  0.14961837739080147  0.239121151134313  0.7495140219535656  1.0000
  Fe  Fe3       1.0  0.7723441285024747  0.6534443387249951  0.7495056336899566  1.0000
  Fe  Fe4       1.0  0.2276582320487393  0.3465567952403177  0.2504957565726826  1.0000
  H   H1        1.0  0.5236063986878676  0.321143665573203  0.11670225077855179  1.0000
  H   H2        1.0  0.4763922851998216  0.6788574683921169  0.8832944877826774  1.0000
  H   H3        1.0  0.6887567907526132  0.5913282386658167  0.34496620520594223  1.0000
  H   H4        1.0  0.31124354107053154  0.4086709418708807  0.6550330284334152  1.0000
  H   H5        1.0  0.608116853365999  0.7565013725732044  0.2634596195838768  1.0000
  H   H6        1.0  0.39188422363454817  0.2435007381064267  0.736541485425029  1.0000
  H   H7        1.0  0.8479623190236653  0.9908405304391293  0.3147653688234371  1.0000
  H   H8        1.0  0.1520380127994798  0.009158650097567998  0.6852338648159203  1.0000
  H   H9        1.0  0.07765731682157902  0.9726033208175267  0.4278733057775951  1.0000
  H   H10       1.0  0.9223439341674506  0.0273958597191708  0.5721261827000532  1.0000
  H   H11       1.0  0.6200530314981165  0.6347812816636419  0.045126821629274595  1.0000
  H   H12       1.0  0.37994695234805675  0.36522375915891553  0.9548720127243511  1.0000
  H   H13       1.0  0.8364448436646796  0.8802178675351726  0.08165726952964288  1.0000
  H   H14       1.0  0.1635571525017454  0.1197842431444585  0.9183426373782593  1.0000
  H   H15       1.0  0.08781097425192286  0.8990655236013722  0.20120027561122802  1.0000
  H   H16       1.0  0.912189357571229  0.10093365693532519  0.7987982315584786  1.0000
  H   H17       1.0  0.024056955004759607  0.661618460796717  0.23947925697860475  1.0000
  H   H18       1.0  0.9759391453737649  0.33837974302566204  0.7605180064150756  1.0000
  H   H19       1.0  0.5755840537400161  0.3953163270917344  0.6236290662407526  1.0000
  H   H20       1.0  0.4244164684794427  0.6046848068735784  0.3763725408149483  1.0000
  H   H21       1.0  0.566206191413535  0.4748238021788822  0.8101959860690113  1.0000
  H   H22       1.0  0.43379616913767893  0.5251773317864306  0.18980613066327826  1.0000
  H   H23       1.0  0.8380603718205819  0.6266667391649179  0.9601986743037756  1.0000
  H   H24       1.0  0.16194327228130587  0.3733334180860907  0.03980372768224777  1.0000
  H   H25       1.0  0.01780606789182563  0.6433412058883475  0.8680248522398911  1.0000
  H   H26       1.0  0.9821949927009043  0.3566560212197203  0.13197444223035149  1.0000
  H   H27       1.0  0.5688179618745437  0.6335144832018145  0.5580722275982026  1.0000
  H   H28       1.0  0.43118604661213317  0.3664846973348759  0.44192947833361984  1.0000
  H   H29       1.0  0.8452782612905381  0.737589253362458  0.5824242200660733  1.0000
  H   H30       1.0  0.15472630197722737  0.2624109038885507  0.4175784367582479  1.0000
  H   H31       1.0  0.019033392155975465  0.8938449856071813  0.7847161304277676  1.0000
  H   H32       1.0  0.9809711711117971  0.10615517164382028  0.2152865263965538  1.0000
  H   H33       1.0  0.8502553837627147  0.8852733408107412  0.8872138433186193  1.0000
  H   H34       1.0  0.14974623161111109  0.1147248630116451  0.11278785498341648  1.0000
  H   H35       1.0  0.8369622224070454  0.2345413377283734  0.17620873655029357  1.0000
  H   H36       1.0  0.16303535191845944  0.765457842808317  0.8237904590438275  1.0000
  H   H37       1.0  0.7397609668908485  0.0336214367397361  0.028672150790832452  1.0000
  H   H38       1.0  0.26023789098532996  0.966376767082643  0.9713287829963233  1.0000
  H   H39       1.0  0.5265995955311736  0.8255736319578445  0.013314623401910844  1.0000
  H   H40       1.0  0.4733983431791203  0.1744245718645345  0.9866860555469543  1.0000
  H   H41       1.0  0.22781837246187556  0.8400973737676836  0.3623590182139437  1.0000
  H   H42       1.0  0.772179756644725  0.15990278348332504  0.6376411282726764  1.0000
  H   H43       1.0  0.3410181552156715  0.0517287433579341  0.4978327240989626  1.0000
  H   H44       1.0  0.6589832861696648  0.9482723906073858  0.5021691377950289  1.0000
  H   H45       1.0  0.5669025295377565  0.2441365791231149  0.5058511746828529  1.0000
  H   H46       1.0  0.4330992762323617  0.7558635781278866  0.4941492646872944  1.0000
  H   H47       1.0  0.3390339321812376  0.7083366597374052  0.0801933351609847  1.0000
  H   H48       1.0  0.6609636421442602  0.2916625207992922  0.919808766311732  1.0000
  H   H49       1.0  0.22872584670957954  0.7130151212887909  0.20579023679000832  1.0000
  H   H50       1.0  0.7712719180122249  0.2869860126765289  0.7942120586901069  1.0000
  C   C1        1.0  0.0014861436447616014  0.711258012242659  0.4624748454021911  1.0000
  C   C2        1.0  0.9985112402844365  0.2887392148654087  0.5375234297148737  1.0000
  C   C3        1.0  0.9136844997820857  0.7651882696583883  0.4076944628544508  1.0000
  C   C4        1.0  0.08631638682215478  0.23481188759262037  0.5923042687381042  1.0000
  C   C5        1.0  0.7589858883148536  0.6937689657835547  0.35296276372529417  1.0000
  C   C6        1.0  0.2410135243424136  0.3062302147531355  0.6470362150757651  1.0000
  C   C7        1.0  0.717232151813235  0.7807443984953223  0.3102429673576523  1.0000
  C   C8        1.0  0.28276873479100567  0.2192557587556863  0.6897572171741969  1.0000
  C   C9        1.0  0.8444667883945131  0.9048447421816519  0.3366061224363647  1.0000
  C   C10       1.0  0.15553557215670108  0.09515639178366798  0.6633930884173295  1.0000
  C   C11       1.0  0.9657769730656084  0.8957495785143195  0.39679171186673295  1.0000
  C   C12       1.0  0.03422335875754359  0.1042496020223709  0.6032067953029666  1.0000
  C   C13       1.0  0.7192953170284965  0.4697429343312223  0.15057043970619327  1.0000
  C   C14       1.0  0.2807024476933151  0.5302581996340905  0.8494260440167378  1.0000
  C   C15       1.0  0.7966251451529515  0.6021648839502873  0.14083202354204616  1.0000
  C   C16       1.0  0.20337206478776432  0.39783527330071417  0.8591649622276876  1.0000
  C   C17       1.0  0.7339470593884342  0.6734103326776975  0.0896779854788576  1.0000
  C   C18       1.0  0.26605015055227454  0.3265898245733112  0.910319000290869  1.0000
  C   C19       1.0  0.8489051300566643  0.8023795972061265  0.10874469763670193  1.0000
  C   C20       1.0  0.15109686610976775  0.19762251347350454  0.8912544828015496  1.0000
  C   C21       1.0  0.9820281792093295  0.8119211193137446  0.1715941464083882  1.0000
  C   C22       1.0  0.017970869063148605  0.18807903793726408  0.8284040755075778  1.0000
  C   C23       1.0  0.9500127420876511  0.688655866363618  0.19229424532571215  1.0000
  C   C24       1.0  0.04998611578852768  0.3113423374587612  0.8077045090524989  1.0000
  C   C25       1.0  0.8742269814426675  0.5096319468069197  0.6369175572165061  1.0000
  C   C26       1.0  0.12576542586452172  0.49036137344390335  0.3630783292246348  1.0000
  C   C27       1.0  0.8159742090786608  0.5132184417582124  0.7180390413853317  1.0000
  C   C28       1.0  0.18402575835970225  0.4867817154927891  0.28196088830822663  1.0000
  C   C29       1.0  0.6671443699102894  0.4555571356731178  0.6997687525248253  1.0000
  C   C30       1.0  0.332857071475047  0.544443998292202  0.3002323828995229  1.0000
  C   C31       1.0  0.6621434474630873  0.4967803398981232  0.798169583365663  1.0000
  C   C32       1.0  0.33785891308813376  0.5032207940671896  0.20183253336662682  1.0000
  C   C33       1.0  0.8065998699024914  0.5783994713264207  0.8779275775139792  1.0000
  C   C34       1.0  0.19340193586763377  0.42160068592458083  0.12207358832581146  1.0000
  C   C35       1.0  0.9014706642774897  0.5889616598894064  0.8290183875459645  1.0000
  C   C36       1.0  0.09853058671153994  0.4110375206472908  0.17098110093168367  1.0000
  C   C37       1.0  0.542107840775138  0.7136490088768568  0.755262113575881  1.0000
  C   C38       1.0  0.45789710328524075  0.2863550552313896  0.24474165773290216  1.0000
  C   C39       1.0  0.6668998773992313  0.7518434220223539  0.7291451130051029  1.0000
  C   C40       1.0  0.3331024831519827  0.24815771194295877  0.2708562772575362  1.0000
  C   C41       1.0  0.6649379141756667  0.7028992911660977  0.629042419593304  1.0000
  C   C42       1.0  0.3350672038731942  0.29710184279922197  0.3709597351842148  1.0000
  C   C43       1.0  0.810309003798906  0.7582838761914275  0.6421645379219356  1.0000
  C   C44       1.0  0.1896955594688592  0.24171628105958115  0.35783739243273516  1.0000
  C   C45       1.0  0.9026026896462438  0.8403737839177977  0.7499842295671468  1.0000
  C   C46       1.0  0.0974015092367395  0.159627350047522  0.2500183968417247  1.0000
  C   C47       1.0  0.8148439069265264  0.8365587378176471  0.8041375537714187  1.0000
  C   C48       1.0  0.18515937279057232  0.1634423961476728  0.1958655442688126  1.0000
  C   C49       1.0  0.7432036351474879  0.1419107291538708  0.16487728683233624  1.0000
  C   C50       1.0  0.2567944939591128  0.8580894280971306  0.8351228596542766  1.0000
  C   C51       1.0  0.6897233015855733  0.0293199869125331  0.08409277565243659  1.0000
  C   C52       1.0  0.3102746371247206  0.9706782169098458  0.9159057238874836  1.0000
  C   C53       1.0  0.5717126033038511  0.9145347248645946  0.07526412399232636  1.0000
  C   C54       1.0  0.4282844162405581  0.0854634789577844  0.9247363001182407  1.0000
  C   C55       1.0  0.5075633976229595  0.9131468138281632  0.14684827349427101  1.0000
  C   C56       1.0  0.4924332575366606  0.0868523667085341  0.8531513937312026  1.0000
  C   C57       1.0  0.5695376785995876  0.031591824400742  0.22648699964419441  1.0000
  C   C58       1.0  0.43046045050700593  0.9684083328502593  0.7735124203727749  1.0000
  C   C59       1.0  0.5069501608895308  0.033877335889315  0.3012106288350935  1.0000
  C   C60       1.0  0.49304796821706975  0.9661228213616936  0.6987895176515195  1.0000
  C   C61       1.0  0.3818162493369073  0.918586135828093  0.2917660419448537  1.0000
  C   C62       1.0  0.618182798935571  0.0814140214229155  0.7082343593800573  1.0000
  C   C63       1.0  0.32167856807794937  0.9263109693165887  0.3647165329206813  1.0000
  C   C64       1.0  0.6783215897567132  0.0736911413630352  0.6352857701892275  1.0000
  C   C65       1.0  0.3846050771461975  0.0432703974216082  0.44030633314903866  1.0000
  C   C66       1.0  0.6153941451147702  0.9567268296864668  0.5596939045839164  1.0000
  C   C67       1.0  0.5101516656159432  0.1509287323906037  0.4451337124834466  1.0000
  C   C68       1.0  0.4898492209883044  0.8490714248604049  0.5548679249876968  1.0000
  C   C69       1.0  0.38354662487353147  0.7983623712435274  0.1411322001408806  1.0000
  C   C70       1.0  0.6164509494519734  0.20163680929317  0.8588684483925348  1.0000
  C   C71       1.0  0.32273241061597685  0.8011547974596878  0.21061595446691672  1.0000
  C   C72       1.0  0.6772657184906166  0.1988453597913207  0.7893856449589973  1.0000
  N   N1        1.0  0.6856418511989091  0.1436795587717299  0.23407727797235367  1.0000
  N   N2        1.0  0.3143560875113848  0.8563186450506491  0.7659212215675666  1.0000
  N   N3        1.0  0.5701484176451856  0.1471097794332081  0.37823028460214647  1.0000
  N   N4        1.0  0.4298509950120815  0.852889401103482  0.6217694206685562  1.0000
  O   O1        1.0  0.9432325449073176  0.5870853916972932  0.44315640908979476  1.0000
  O   O2        1.0  0.05676705814625648  0.4129157422680194  0.5568413107793758  1.0000
  O   O3        1.0  0.13105610868523598  0.7884956032702277  0.5294729216844303  1.0000
  O   O4        1.0  0.8689447779190047  0.21150455398078088  0.4705279893170696  1.0000
  O   O5        1.0  0.781635231790716  0.42587967132262605  0.21374888350855056  1.0000
  O   O6        1.0  0.21836013981823033  0.5741204859283825  0.7862483190542447  1.0000
  O   O7        1.0  0.5811564516481553  0.40293567543460534  0.08749945999518616  1.0000
  O   O8        1.0  0.4188398391266758  0.5970644818163962  0.9124958179969551  1.0000
  O   O9        1.0  0.7917965311362349  0.4155147790505325  0.550661175034243  1.0000
  O   O10       1.0  0.20820399108321644  0.5844863549147803  0.4493397055518144  1.0000
  O   O11       1.0  0.0015369879110806572  0.6007642756278031  0.6598942775725404  1.0000
  O   O12       1.0  0.99846556303644  0.3992388117661321  0.34010512728855957  1.0000
  O   O13       1.0  0.4167008682567114  0.6295988355276023  0.6839523085537778  1.0000
  O   O14       1.0  0.5832998279512294  0.3703993682947838  0.31604768197066585  1.0000
  O   O15       1.0  0.568739746222846  0.7685813751760264  0.8504291243127964  1.0000
  O   O16       1.0  0.4312609663929122  0.2314217122179087  0.14956831793242026  1.0000
