data_image0
_chemical_formula_structural       Ca4H48C40O32
_chemical_formula_sum              "Ca4 H48 C40 O32"
_cell_length_a       6.930712985
_cell_length_b       7.604729751139956
_cell_length_c       23.24
_cell_angle_alpha    93.31557759375495
_cell_angle_beta     90.0
_cell_angle_gamma    90.0

_space_group_name_H-M_alt    "P 1"
_space_group_IT_number       1

loop_
  _space_group_symop_operation_xyz
  'x, y, z'

loop_
  _atom_site_type_symbol
  _atom_site_label
  _atom_site_symmetry_multiplicity
  _atom_site_fract_x
  _atom_site_fract_y
  _atom_site_fract_z
  _atom_site_occupancy
  Ca  Ca1       1.0  0.4136875969622906  0.6675750424511051  0.31637069095938136  1.0000
  Ca  Ca2       1.0  0.913692431601973  0.8324275097089214  0.18363084185037343  1.0000
  Ca  Ca3       1.0  0.5863119723460883  0.3324183168748647  0.6836288821593328  1.0000
  Ca  Ca4       1.0  0.0863056948534151  0.16757638702426195  0.8163685003988874  1.0000
  H   H1        1.0  0.319161968586414  0.637874043024816  0.5423473182110713  1.0000
  H   H2        1.0  0.8191567032551105  0.8621232404316006  0.9576575572278969  1.0000
  H   H3        1.0  0.6808376007219721  0.3621245850047644  0.457654506082207  1.0000
  H   H4        1.0  0.18084719461225518  0.1378911937088105  0.0423441359075127  1.0000
  H   H5        1.0  0.5529156968833817  0.7704938987716758  0.61268119354731  1.0000
  H   H6        1.0  0.052900762272727796  0.7295165564437696  0.8873204888298077  1.0000
  H   H7        1.0  0.4470766581600145  0.22950999796151456  0.38731900928715396  1.0000
  H   H8        1.0  0.9470915927706685  0.2705018292243438  0.11267869733369199  1.0000
  H   H9        1.0  0.8328666924302012  0.9398840370137338  0.5790909043378463  1.0000
  H   H10       1.0  0.3328690720555088  0.5601435414884437  0.920907659761106  1.0000
  H   H11       1.0  0.1671314340251797  0.0601093223122362  0.42091125053646294  1.0000
  H   H12       1.0  0.6671304972528702  0.4398787957073793  0.07908729826008451  1.0000
  H   H13       1.0  0.879844543151286  0.9757573227193037  0.473962156323168  1.0000
  H   H14       1.0  0.379857022747565  0.5242728901346752  0.026036027338975008  1.0000
  H   H15       1.0  0.1201593547160869  0.0242241820235449  0.5260393439074917  1.0000
  H   H16       1.0  0.620139660854818  0.47575339858885723  0.9739585751732989  1.0000
  H   H17       1.0  0.790126500960568  0.0696048433936198  0.3840746046056793  1.0000
  H   H18       1.0  0.290138980556847  0.4304017150886281  0.1159217114257913  1.0000
  H   H19       1.0  0.20987595405380685  0.9303753441733207  0.6159277312822837  1.0000
  H   H20       1.0  0.7098678030165145  0.5696061331722646  0.8840742632663634  1.0000
  H   H21       1.0  0.9410777814802245  0.8788987927263039  0.38506281857630137  1.0000
  H   H22       1.0  0.4410974753414934  0.6211116624891417  0.11494101526380972  1.0000
  H   H23       1.0  0.0589333306521311  0.12109061507195663  0.6149392615143228  1.0000
  H   H24       1.0  0.5589107510848663  0.3788922342440486  0.8850578966928566  1.0000
  H   H25       1.0  0.20515061048946134  0.4670007647165023  0.4692980928287369  1.0000
  H   H26       1.0  0.705143902305167  0.0329978907103339  0.030703237146553902  1.0000
  H   H27       1.0  0.7948403017009369  0.5329873259058573  0.53070267145619  1.0000
  H   H28       1.0  0.2948484527382291  0.9670112747264599  0.9692983562772781  1.0000
  H   H29       1.0  0.0882218036330968  0.6758350525359091  0.4710175473455891  1.0000
  H   H30       1.0  0.5882266382727721  0.8241635480964151  0.028986922728677204  1.0000
  H   H31       1.0  0.9117777656752892  0.3241609411418693  0.5289816453363089  1.0000
  H   H32       1.0  0.4117787024475987  0.17584693451629366  0.9710125441600611  1.0000
  H   H33       1.0  0.6453881454448975  0.3404517727044337  0.2959242048204018  1.0000
  H   H34       1.0  0.1453804250992192  0.1595640060091412  0.20407787951010903  1.0000
  H   H35       1.0  0.3546085381574926  0.6595402694456354  0.7040757736630141  1.0000
  H   H36       1.0  0.8546148156501658  0.8404464766035673  0.7959250297194133  1.0000
  H   H37       1.0  0.7445193605863949  0.4258337490586329  0.35387097577505244  1.0000
  H   H38       1.0  0.24451741165270843  0.074174126599523  0.14613095898809553  1.0000
  H   H39       1.0  0.2554816515749891  0.5741596102673372  0.6461285973436547  1.0000
  H   H40       1.0  0.7554749433906878  0.9258376731890865  0.8538711145841233  1.0000
  H   H41       1.0  0.1788906859486659  0.9922338760841285  0.2978286265095065  1.0000
  H   H42       1.0  0.6788854206173696  0.5077726276036075  0.2021699690357366  1.0000
  H   H43       1.0  0.8211132119186997  0.0077621175936429  0.7021714267575873  1.0000
  H   H44       1.0  0.3211170343970053  0.4922312691295829  0.7978302337987274  1.0000
  H   H45       1.0  0.3806029777468822  0.9920797665035297  0.2674315619252496  1.0000
  H   H46       1.0  0.8806078123865646  0.5079254200082985  0.23255969371791715  1.0000
  H   H47       1.0  0.6194009201204833  0.007913592822440304  0.7325662900230583  1.0000
  H   H48       1.0  0.1193946426278103  0.4920811110766934  0.7674384075093384  1.0000
  C   C1        1.0  0.6324082398861606  0.8192030636474641  0.448990290407167  1.0000
  C   C2        1.0  0.1324178337764508  0.6808179289752021  0.051014603441295506  1.0000
  C   C3        1.0  0.3675971008342103  0.18077975827128515  0.551012525629183  1.0000
  C   C4        1.0  0.8675889497969179  0.3192070425724296  0.9489859982394719  1.0000
  C   C5        1.0  0.4714103739501496  0.726463342701692  0.46834575244307797  1.0000
  C   C6        1.0  0.971412322883836  0.7735471125137539  0.0316572208118373  1.0000
  C   C7        1.0  0.5285891953582293  0.2735247479206677  0.5316554421344506  1.0000
  C   C8        1.0  0.0285886892775409  0.22647127315436685  0.9683419653516623  1.0000
  C   C9        1.0  0.4434651971091554  0.7091082330098788  0.5270396777266413  1.0000
  C   C10       1.0  0.9434599317778591  0.7908916847983465  0.9729656778607136  1.0000
  C   C11       1.0  0.5565271579342408  0.2908917121956094  0.47296045032413764  1.0000
  C   C12       1.0  0.05652953755954829  0.2091108947589362  0.027037081801445602  1.0000
  C   C13       1.0  0.5750173190875572  0.7855386819304402  0.5668419956842784  1.0000
  C   C14       1.0  0.0750038273298941  0.7144520156464653  0.9331571613114349  1.0000
  C   C15       1.0  0.424976478808837  0.21445994609914015  0.4331576771460064  1.0000
  C   C16       1.0  0.9249813134485192  0.28554529520721433  0.0668403351279636  1.0000
  C   C17       1.0  0.7326504518351484  0.8790173385575317  0.5478374373019079  1.0000
  C   C18       1.0  0.2326427314894772  0.6209957510097157  0.9521647252235969  1.0000
  C   C19       1.0  0.2673520031792194  0.1209733864166296  0.4521642374240074  1.0000
  C   C20       1.0  0.767348180700921  0.3790200003065963  0.0478339807915162  1.0000
  C   C21       1.0  0.7615450259480028  0.8962776115843667  0.4888030769345875  1.0000
  C   C22       1.0  0.2615488484263082  0.6037433810382993  0.011196223110083302  1.0000
  C   C23       1.0  0.2384574290663721  0.10370257598258092  0.5111971074903751  1.0000
  C   C24       1.0  0.738446392323084  0.3962802733334314  0.9888004810093919  1.0000
  C   C25       1.0  0.803071778047375  0.9297207077497589  0.3693413317919365  1.0000
  C   C26       1.0  0.30308714334965  0.5702831615861683  0.1306589350679133  1.0000
  C   C27       1.0  0.19693211981999065  0.0702581626412808  0.6306622700459315  1.0000
  C   C28       1.0  0.6969167545177155  0.4297220523229228  0.8693378503536523  1.0000
  C   C29       1.0  0.8080366352091843  0.911541045942954  0.304062681473745  1.0000
  C   C30       1.0  0.3080404576874827  0.5884522859857526  0.1959373859629565  1.0000
  C   C31       1.0  0.19196726265818845  0.0884444103275968  0.695938463247998  1.0000
  C   C32       1.0  0.6919634401798829  0.411548976395629  0.8040601852601199  1.0000
  C   C33       1.0  0.17287687465822899  0.5806308954764958  0.44385605948111373  1.0000
  C   C34       1.0  0.6728759378859195  0.9193716566835306  0.0561467642064315  1.0000
  C   C35       1.0  0.827124137503148  0.4193637810253747  0.5561448294432837  1.0000
  C   C36       1.0  0.3271250742754575  0.0806335572255605  0.9438538938485196  1.0000
  C   C37       1.0  0.0549654849110723  0.5197352191504407  0.3910185672673165  1.0000
  C   C38       1.0  0.5549645481387628  0.9802686501854867  0.10898385105553392  1.0000
  C   C39       1.0  0.9450340843973064  0.48026340887913943  0.6089836873185632  1.0000
  C   C40       1.0  0.445037906875605  0.019733929371796004  0.8910167571436389  1.0000
  O   O1        1.0  0.6263338287698517  0.4277620945799471  0.32752537038400936  1.0000
  O   O2        1.0  0.1263362083951591  0.0722457810782089  0.17247742496433457  1.0000
  O   O3        1.0  0.3736671833915253  0.572231264746023  0.6724737724420962  1.0000
  O   O4        1.0  0.8736633609132198  0.927763384358592  0.8275250290446934  1.0000
  O   O5        1.0  0.3198429952008723  0.9758495250324799  0.304657532945285  1.0000
  O   O6        1.0  0.8198362870165781  0.5241582958311569  0.19533635430926924  1.0000
  O   O7        1.0  0.6801637883724891  0.024149102997100207  0.6953408490072093  1.0000
  O   O8        1.0  0.18016616799779675  0.4758469180779343  0.8046625825752898  1.0000
  O   O9        1.0  0.6461918145640837  0.8291530104152187  0.3900736043244351  1.0000
  O   O10       1.0  0.14619563704238198  0.6708442730411974  0.10992911965153952  1.0000
  O   O11       1.0  0.3538077547442953  0.1708403489107511  0.6099307020128677  1.0000
  O   O12       1.0  0.853801046560001  0.3291543549883826  0.8900684017157517  1.0000
  O   O13       1.0  0.6868817119253448  0.8141951608660207  0.276792244330359  1.0000
  O   O14       1.0  0.18687543443266458  0.685790268007274  0.22320982500196607  1.0000
  O   O15       1.0  0.313119300236032  0.185791612580438  0.7232072041488777  1.0000
  O   O16       1.0  0.8131226920227164  0.314208360022306  0.7767881266579196  1.0000
  O   O17       1.0  0.940946481857523  0.9948181752049052  0.2792789980324102  1.0000
  O   O18       1.0  0.4409459757768346  0.505171205196099  0.22072099462060626  1.0000
  O   O19       1.0  0.059051644597857895  0.005172549769263002  0.7207243978639042  1.0000
  O   O20       1.0  0.5590550363845423  0.49482742283348113  0.7792756661614818  1.0000
  O   O21       1.0  0.3484230273604396  0.661787371535361  0.42554945383437115  1.0000
  O   O22       1.0  0.8484192048821342  0.8382138634487648  0.07445377521788292  1.0000
  O   O23       1.0  0.6515794276539352  0.3382073049665095  0.5744518653826276  1.0000
  O   O24       1.0  0.1515832501322407  0.16179266763622735  0.9255469077649677  1.0000
  O   O25       1.0  0.11328416018658768  0.5571087682090055  0.3414397267538689  1.0000
  O   O26       1.0  0.613290437679261  0.9428977354787307  0.1585623111321652  1.0000
  O   O27       1.0  0.8867168519747892  0.4428938113482844  0.6585626026156888  1.0000
  O   O28       1.0  0.3867062459231221  0.05709825819904071  0.8414373118423343  1.0000
  O   O29       1.0  0.9020067651813193  0.4373458664468046  0.4020660400610225  1.0000
  O   O30       1.0  0.4020033733946349  0.0626567405077409  0.09793665557574371  1.0000
  O   O31       1.0  0.0979956898330556  0.5626448585273636  0.5979356346648927  1.0000
  O   O32       1.0  0.5979976387667421  0.9373484734013502  0.9020631418940115  1.0000
