data_image0
_chemical_formula_structural       Al4H28C44O28F4
_chemical_formula_sum              "Al4 H28 C44 O28 F4"
_cell_length_a       6.653077922685421
_cell_length_b       16.91397155102297
_cell_length_c       17.410060542312863
_cell_angle_alpha    89.90016842073595
_cell_angle_beta     89.63477820927433
_cell_angle_gamma    92.60587135588143

_space_group_name_H-M_alt    "P 1"
_space_group_IT_number       1

loop_
  _space_group_symop_operation_xyz
  'x, y, z'

loop_
  _atom_site_type_symbol
  _atom_site_label
  _atom_site_symmetry_multiplicity
  _atom_site_fract_x
  _atom_site_fract_y
  _atom_site_fract_z
  _atom_site_occupancy
  Al  Al1       1.0  0.7793697993161858  0.7247384260047408  0.2465231931919759  1.0000
  Al  Al2       1.0  0.2283820974379012  0.2775687017777812  0.748005015421725  1.0000
  Al  Al3       1.0  0.28101514706524  0.7235059275039007  0.24735766923748764  1.0000
  Al  Al4       1.0  0.7251947102364439  0.278853104850377  0.7477216151019945  1.0000
  H   H1        1.0  0.904019869492288  0.0464726246138341  0.14061726549913087  1.0000
  H   H2        1.0  0.028699146068412056  0.9641896318020852  0.10087032764172929  1.0000
  H   H3        1.0  0.9123713640280542  0.03297606114566779  0.038410422621744496  1.0000
  H   H4        1.0  0.8302410821096728  0.876452207882977  0.7797669812095406  1.0000
  H   H5        1.0  0.5825917222864162  0.9059824084467675  0.8029788666908713  1.0000
  H   H6        1.0  0.6656534208948418  0.8118822672334504  0.8363220349244357  1.0000
  H   H7        1.0  0.03627505941925339  0.9944172105754558  0.5756313894596373  1.0000
  H   H8        1.0  0.07284746714502428  0.8955528568750423  0.5412685679202694  1.0000
  H   H9        1.0  0.08214728692208693  0.9166195238626641  0.6424635074387834  1.0000
  H   H10       1.0  0.3972619751824453  0.10092825939659629  0.31199496647322883  1.0000
  H   H11       1.0  0.3166860835173677  0.19036910742178745  0.3570538446582745  1.0000
  H   H12       1.0  0.1486114450359182  0.1331854126505263  0.2958953014250695  1.0000
  H   H13       1.0  0.5079527741506596  0.7217637532040724  0.962769693009946  1.0000
  H   H14       1.0  0.6046930354251926  0.7021547631520731  0.056943499165221595  1.0000
  H   H15       1.0  0.7448776212656228  0.6761061512001589  0.9739331098374606  1.0000
  H   H16       1.0  0.9793154529143778  0.16529957854385194  0.9170828452120288  1.0000
  H   H17       1.0  0.974579510960737  0.25668593179788246  0.9682675401598358  1.0000
  H   H18       1.0  0.9325231843140925  0.16546758673155176  0.019355986311737197  1.0000
  H   H19       1.0  0.991689478395834  0.17956894896202158  0.5893142750924197  1.0000
  H   H20       1.0  0.9423643052872633  0.1467594737201523  0.4919817661456348  1.0000
  H   H21       1.0  0.9576492038072361  0.2503744363966192  0.5143329837302985  1.0000
  H   H22       1.0  0.5498545952174965  0.7186369864794951  0.49059769019940086  1.0000
  H   H23       1.0  0.6554361902466538  0.7528289489096236  0.5804507568183012  1.0000
  H   H24       1.0  0.7952326521467228  0.6900885826408327  0.5182317416407398  1.0000
  H   H25       1.0  0.5201220700696892  0.6227689098514659  0.27183415097412217  1.0000
  H   H26       1.0  0.48641870154401806  0.3806066064091879  0.7676865320583132  1.0000
  H   H27       1.0  0.041746621360367386  0.8226646038711676  0.2750580077351472  1.0000
  H   H28       1.0  0.9619735314610695  0.17626153931217908  0.7650247491360742  1.0000
  C   C1        1.0  0.5458941745387663  0.8167538702089486  0.14255390112164423  1.0000
  C   C2        1.0  0.46685820592171007  0.18243209879356928  0.8518606654156002  1.0000
  C   C3        1.0  0.4669043972415353  0.18233107747749944  0.6455012645761042  1.0000
  C   C4        1.0  0.5337170671543348  0.8192955080185412  0.3500346604786415  1.0000
  C   C5        1.0  0.011810883307283901  0.6278199840881767  0.35056825011329096  1.0000
  C   C6        1.0  0.9888995604086617  0.3720648763604827  0.6433641120083564  1.0000
  C   C7        1.0  0.9886042451156457  0.3763078836974643  0.8498463182576046  1.0000
  C   C8        1.0  0.02654129404746899  0.6311870814331753  0.1424780063929205  1.0000
  C   C9        1.0  0.0169499068612211  0.5766227971396134  0.07890459150097227  1.0000
  C   C10       1.0  0.9939683309515958  0.4313976400150636  0.9129959004466952  1.0000
  C   C11       1.0  0.9978283348181023  0.42761239950888813  0.5803238845575079  1.0000
  C   C12       1.0  0.009347405384303885  0.5744430359196072  0.415219992445536  1.0000
  C   C13       1.0  0.008836555325700601  0.529589296662273  0.025653132067127195  1.0000
  C   C14       1.0  0.0006444917013581821  0.4780052293485253  0.9666135327901911  1.0000
  C   C15       1.0  0.0030192738902812  0.47538164217165496  0.5275330786803777  1.0000
  C   C16       1.0  0.007181962109008585  0.5275656279529171  0.4688060473013279  1.0000
  C   C17       1.0  0.5421629287649452  0.8727794144757866  0.07608102150529557  1.0000
  C   C18       1.0  0.4579586508070506  0.12067710698721608  0.9136253803168229  1.0000
  C   C19       1.0  0.460530863587401  0.12247101285812079  0.5823172634931664  1.0000
  C   C20       1.0  0.543522221584027  0.8789691113945112  0.4134361897781814  1.0000
  C   C21       1.0  0.30514448993041304  0.06732594024047237  0.031702977116431386  1.0000
  C   C22       1.0  0.6675066562569896  0.9201165195802117  0.9514160606148819  1.0000
  C   C23       1.0  0.6830739911468555  0.9259733500394204  0.5352296022153309  1.0000
  C   C24       1.0  0.3189988299316085  0.0744980211203199  0.46101638931359185  1.0000
  C   C25       1.0  0.32416762925105763  0.12753055799975496  0.9770723472070556  1.0000
  C   C26       1.0  0.653480078370606  0.8607818552901703  0.007116059153098299  1.0000
  C   C27       1.0  0.672154208833426  0.8695929557617673  0.47725736289881127  1.0000
  C   C28       1.0  0.3307924122835644  0.13151188010250078  0.518503694441435  1.0000
  C   C29       1.0  0.5681234481678318  0.0537487013044284  0.9062035778747413  1.0000
  C   C30       1.0  0.43550734673771524  0.9408473574475236  0.08323446946320698  1.0000
  C   C31       1.0  0.42973197853688555  0.9451218477829215  0.4093805652273872  1.0000
  C   C32       1.0  0.5750115244172918  0.05623882715215698  0.5862545608235405  1.0000
  C   C33       1.0  0.557148607660814  0.9903073262159197  0.9596712399350195  1.0000
  C   C34       1.0  0.4268382058450157  0.999768855787259  0.025512381766098696  1.0000
  C   C35       1.0  0.43571257225003285  0.005737136288779301  0.4656617974372564  1.0000
  C   C36       1.0  0.5680655843032839  0.995299279407291  0.5302340972806405  1.0000
  C   C37       1.0  0.995437975985169  0.026614074183278495  0.09235242584780678  1.0000
  C   C38       1.0  0.7119777948604381  0.8739851808836576  0.8239292707859176  1.0000
  C   C39       1.0  0.010354057702215884  0.9308725765934155  0.587972473700276  1.0000
  C   C40       1.0  0.26943422973096187  0.13034572768405175  0.3381412760966711  1.0000
  C   C41       1.0  0.6447901294030132  0.7196341898098877  0.9978365390011275  1.0000
  C   C42       1.0  0.015525471935525595  0.19479816523695348  0.9717403853903407  1.0000
  C   C43       1.0  0.016389954240544603  0.19257248217983403  0.5280682366192051  1.0000
  C   C44       1.0  0.6893754876990387  0.737783611707158  0.5203692257952852  1.0000
  O   O1        1.0  0.36066607244482185  0.7896463054319083  0.33316858859946297  1.0000
  O   O2        1.0  0.6384882904383815  0.20520148073172345  0.670661191654105  1.0000
  O   O3        1.0  0.6401742441600434  0.20846792064047992  0.8299571350072199  1.0000
  O   O4        1.0  0.3784434358473021  0.7996041949698165  0.17510856069858957  1.0000
  O   O5        1.0  0.7152887670804801  0.7913720859669835  0.16198304531412328  1.0000
  O   O6        1.0  0.29918537565672665  0.2021762508794041  0.8248305888616512  1.0000
  O   O7        1.0  0.2985894053366991  0.20458051509891106  0.670140398328364  1.0000
  O   O8        1.0  0.6996085041735683  0.8041488150126382  0.31792524832990665  1.0000
  O   O9        1.0  0.8596136127246368  0.6464740420199885  0.17382398764500803  1.0000
  O   O10       1.0  0.15771235357319574  0.3526266720704214  0.8271929868050876  1.0000
  O   O11       1.0  0.15630858594506236  0.35179660344417835  0.6698644577632678  1.0000
  O   O12       1.0  0.8434727450822308  0.6545300953175753  0.3315721296972426  1.0000
  O   O13       1.0  0.5252295465559057  0.6747244674400075  0.24811808229370055  1.0000
  O   O14       1.0  0.4817660901313375  0.326925158159568  0.7482637305987723  1.0000
  O   O15       1.0  0.1824475893910673  0.6419238763481373  0.31853799069582317  1.0000
  O   O16       1.0  0.8138886385013179  0.34973366545714407  0.6664018968908962  1.0000
  O   O17       1.0  0.8155699708049724  0.35731193236851055  0.8230638117222852  1.0000
  O   O18       1.0  0.2004552212252335  0.6578067693258658  0.16151278667652488  1.0000
  O   O19       1.0  0.03596075144875497  0.771496695836319  0.2497767229427196  1.0000
  O   O20       1.0  0.9706634829154909  0.23148932052296087  0.7497853428384216  1.0000
  O   O21       1.0  0.17509826301379414  0.07782855066333379  0.0919437389890234  1.0000
  O   O22       1.0  0.7978473814039191  0.9114150870930542  0.89093238547548  1.0000
  O   O23       1.0  0.7985233210359935  0.9115793198634421  0.5984769956114916  1.0000
  O   O24       1.0  0.18691256231311829  0.0845638655494412  0.4018544245513452  1.0000
  O   O25       1.0  0.7577527528917899  0.7943966683415552  0.993987964011623  1.0000
  O   O26       1.0  0.2294009218772146  0.1971128685030195  0.9849195200209592  1.0000
  O   O27       1.0  0.22982891805945369  0.1997786744009247  0.5112438294503503  1.0000
  O   O28       1.0  0.7876074926040532  0.8045307561218138  0.4816828011105513  1.0000
  F   F1        1.0  0.3457909718524306  0.9543756259719413  0.15202371336591367  1.0000
  F   F2        1.0  0.6863200284297831  0.0481072843239971  0.8424863770185806  1.0000
  F   F3        1.0  0.6948524608209327  0.0485146289654566  0.6483496784859282  1.0000
  F   F4        1.0  0.31258364019584667  0.9527709902695422  0.34633814629444254  1.0000
