data_image0
_chemical_formula_structural       Zn2H52C68N4O8
_chemical_formula_sum              "Zn2 H52 C68 N4 O8"
_cell_length_a       7.213303688528375
_cell_length_b       10.891533614171742
_cell_length_c       19.524388048818757
_cell_angle_alpha    92.56774261196163
_cell_angle_beta     89.96039083422019
_cell_angle_gamma    109.34934884358091

_space_group_name_H-M_alt    "P 1"
_space_group_IT_number       1

loop_
  _space_group_symop_operation_xyz
  'x, y, z'

loop_
  _atom_site_type_symbol
  _atom_site_label
  _atom_site_symmetry_multiplicity
  _atom_site_fract_x
  _atom_site_fract_y
  _atom_site_fract_z
  _atom_site_occupancy
  Zn  Zn1       1.0  0.9007772561138766  3.6782897595299805e-05  0.7501356057538049  1.0000
  Zn  Zn2       1.0  0.0992152684819346  0.9999621006362318  0.2498640359254055  1.0000
  H   H1        1.0  0.5783766558354416  0.6966058271840294  0.8828777935709837  1.0000
  H   H2        1.0  0.8814063615415435  0.3032652529795854  0.6174901186848204  1.0000
  H   H3        1.0  0.42161440716306237  0.30339013378976887  0.11712176831884594  1.0000
  H   H4        1.0  0.11860106815201739  0.6967384886855114  0.38251119059517447  1.0000
  H   H5        1.0  0.43645941617315037  0.49556214682537086  0.9482428975805565  1.0000
  H   H6        1.0  0.940109527889973  0.5041373438438226  0.5520238676012569  1.0000
  H   H7        1.0  0.5635380914715356  0.5044328403764454  0.05175663684156721  1.0000
  H   H8        1.0  0.05989464186637857  0.4958654234687215  0.44797741543077774  1.0000
  H   H9        1.0  0.3874134903137545  0.27815103455771606  0.8916522543228499  1.0000
  H   H10       1.0  0.10955208788203669  0.7216489614795024  0.6083768728906379  1.0000
  H   H11       1.0  0.6125812445928178  0.7218439524782241  0.10834728044777363  1.0000
  H   H12       1.0  0.8904520846140617  0.27835381034923057  0.39162389807915343  1.0000
  H   H13       1.0  0.48358997728451675  0.26183097541525774  0.7696502615105347  1.0000
  H   H14       1.0  0.22338977316701408  0.7381477030306343  0.7301885062879949  1.0000
  H   H15       1.0  0.5164094066680749  0.7381649905723648  0.23034878727155936  1.0000
  H   H16       1.0  0.7766153737272886  0.261857017171458  0.26981231787471677  1.0000
  H   H17       1.0  0.6225627587808732  0.46088602078419416  0.7050275620858388  1.0000
  H   H18       1.0  0.16327384110023505  0.5391783103004996  0.7949049218781711  1.0000
  H   H19       1.0  0.3774362077213667  0.5391118844614695  0.2949725641879156  1.0000
  H   H20       1.0  0.8367280376376129  0.4608254220004682  0.20509741222330297  1.0000
  H   H21       1.0  0.5644794144971784  0.6148086568614701  0.6573785191661657  1.0000
  H   H22       1.0  0.9488621896668407  0.385343188155133  0.842777699872869  1.0000
  H   H23       1.0  0.4355167874861933  0.38518926176688234  0.34262007126935157  1.0000
  H   H24       1.0  0.051133255383817376  0.6146615359825773  0.15722261344734534  1.0000
  H   H25       1.0  0.42531985234664665  0.6292744282379273  0.5639837844458528  1.0000
  H   H26       1.0  0.7956508727880377  0.3709111077669647  0.9363719210333417  1.0000
  H   H27       1.0  0.5746860487406169  0.3707234819386116  0.43601582889440504  1.0000
  H   H28       1.0  0.20434996454260806  0.6290877672321215  0.06362874372486263  1.0000
  H   H29       1.0  0.39213907777604357  0.582029362140183  0.4386597086757149  1.0000
  H   H30       1.0  0.8097457069746241  0.41817579458485454  0.06167218053001022  1.0000
  H   H31       1.0  0.6078663361121246  0.41796757384968697  0.5613398780680826  1.0000
  H   H32       1.0  0.19025847100096632  0.581826986276262  0.9383275663152943  1.0000
  H   H33       1.0  0.6635827469610549  0.6980784585599694  0.3612601611496587  1.0000
  H   H34       1.0  0.965166178376265  0.3022625181627845  0.13899804601348362  1.0000
  H   H35       1.0  0.33642046209583754  0.3019223829601714  0.6387385083782391  1.0000
  H   H36       1.0  0.03483994017648941  0.6977441458964718  0.8610033434043844  1.0000
  H   H37       1.0  0.9644915151552029  0.8637155514326906  0.40987772805996775  1.0000
  H   H38       1.0  0.10052412289282842  0.13664207446299764  0.09026371549341412  1.0000
  H   H39       1.0  0.035511688422190005  0.13628528105507343  0.5901219655924166  1.0000
  H   H40       1.0  0.8994740141882077  0.8633597183311182  0.9097375416391531  1.0000
  H   H41       1.0  0.9976589409461953  0.9119454517670817  0.5365589010812785  1.0000
  H   H42       1.0  0.08551761807013492  0.08843344881405808  0.9636034981371254  1.0000
  H   H43       1.0  0.0023437781718484894  0.08805441105019438  0.4634402539124026  1.0000
  H   H44       1.0  0.9144818219324693  0.9115654080373261  0.03639921504429821  1.0000
  H   H45       1.0  0.2093433007147212  0.9804279669693156  0.855111035797478  1.0000
  H   H46       1.0  0.22981057940191366  0.019872751873052198  0.6448776922361148  1.0000
  H   H47       1.0  0.7906542794184616  0.019569938193406203  0.14488909065052272  1.0000
  H   H48       1.0  0.7701763272291802  0.9801232133681167  0.3551213581142251  1.0000
  H   H49       1.0  0.562050483416712  0.9756911312154908  0.8547326547083717  1.0000
  H   H50       1.0  0.5871935920978757  0.024373140703360698  0.6454163080023536  1.0000
  H   H51       1.0  0.43794482487619757  0.024307770548972495  0.1452649383733657  1.0000
  H   H52       1.0  0.4127947843497566  0.9756257606464089  0.35458128595063  1.0000
  C   C1        1.0  0.555012542939963  0.6007285008278914  0.8583068768960874  1.0000
  C   C2        1.0  0.9543744923160349  0.39919742239475636  0.6419179302316209  1.0000
  C   C3        1.0  0.44498919630039063  0.3992694045836415  0.14169324902916006  1.0000
  C   C4        1.0  0.04563563762714306  0.6008034014753179  0.3580827866740038  1.0000
  C   C5        1.0  0.4768585215592652  0.48827995900810345  0.894768626844666  1.0000
  C   C6        1.0  0.9884498050205365  0.5115424574108188  0.6054087659686901  1.0000
  C   C7        1.0  0.5231407789458374  0.5117130709538528  0.10523187816053083  1.0000
  C   C8        1.0  0.011557638371755326  0.4884613068352337  0.3945899830000813  1.0000
  C   C9        1.0  0.4492768222163335  0.3657946694145835  0.8630135135566523  1.0000
  C   C10       1.0  0.08393211538537329  0.634064775972263  0.6370346497775972  1.0000
  C   C11       1.0  0.5507253317346255  0.6342012922227267  0.13698604693918534  1.0000
  C   C12       1.0  0.9160775916279678  0.3659379781234762  0.3629681687441676  1.0000
  C   C13       1.0  0.501251509408725  0.35657674304165  0.7945474204013936  1.0000
  C   C14       1.0  0.14589006008547759  0.6433907642659874  0.7053862443019911  1.0000
  C   C15       1.0  0.49874835352372326  0.6434201835840767  0.20545319116388336  1.0000
  C   C16       1.0  0.85411265629282  0.3566090940350931  0.2946134227539333  1.0000
  C   C17       1.0  0.5774061023934891  0.46871366324586455  0.7578305241434222  1.0000
  C   C18       1.0  0.11004017954990529  0.5313482357372193  0.7421646149712873  1.0000
  C   C19       1.0  0.4225905033414962  0.531282293543498  0.24216954911165808  1.0000
  C   C20       1.0  0.8899686392524586  0.4686555105270145  0.2578361820722109  1.0000
  C   C21       1.0  0.6048868401097068  0.5921078364762093  0.7891685057002534  1.0000
  C   C22       1.0  0.013464027088481637  0.4079332043424557  0.7109639309344191  1.0000
  C   C23       1.0  0.3951092784261761  0.4078871461264768  0.21083154095836684  1.0000
  C   C24       1.0  0.9865415345164195  0.5920695720854069  0.2890363277988755  1.0000
  C   C25       1.0  0.6914211779864204  0.7138313608136996  0.7513558446859252  1.0000
  C   C26       1.0  0.9779567667505021  0.28631437118646363  0.7488750940886109  1.0000
  C   C27       1.0  0.30857086215003443  0.2861665530496466  0.24864325833458886  1.0000
  C   C28       1.0  0.02204331912692228  0.7136913183543567  0.2511262694298041  1.0000
  C   C29       1.0  0.6580130457582598  0.7076673530902935  0.6798711296239974  1.0000
  C   C30       1.0  0.9500079331725714  0.29254030647854984  0.820331926513987  1.0000
  C   C31       1.0  0.34198037526775954  0.2923305518236107  0.3201289973467497  1.0000
  C   C32       1.0  0.04999215270485997  0.7074653830622708  0.17966943700442076  1.0000
  C   C33       1.0  0.747399847157915  0.8053726763677954  0.6340571350591092  1.0000
  C   C34       1.0  0.9419673854629098  0.1949418110948641  0.8661753643691343  1.0000
  C   C35       1.0  0.25259725125565785  0.1946242636406268  0.36594194066794483  1.0000
  C   C36       1.0  0.05803540066413144  0.8050609606509267  0.13382540677491053  1.0000
  C   C37       1.0  0.7160588220025089  0.7732817467574903  0.5588617752255658  1.0000
  C   C38       1.0  0.9425850693276345  0.22704749498385005  0.9413714544966113  1.0000
  C   C39       1.0  0.2839443090863867  0.22671616776936077  0.44113732640094133  1.0000
  C   C40       1.0  0.05742097399686948  0.7729562465983121  0.058629854957629804  1.0000
  C   C41       1.0  0.5449076522982566  0.6804515994696558  0.5307370812151151  1.0000
  C   C42       1.0  0.8641347262163707  0.3197775969742835  0.9695661660822952  1.0000
  C   C43       1.0  0.45509873872785533  0.31954728940975485  0.46926204665935245  1.0000
  C   C44       1.0  0.13586805991067757  0.6802251747715146  0.030434605061742608  1.0000
  C   C45       1.0  0.5253264560099353  0.6545744328258392  0.45992196407942043  1.0000
  C   C46       1.0  0.870449688410382  0.3456686888495141  0.04037910625635281  1.0000
  C   C47       1.0  0.474677574248922  0.3454225075972771  0.5400771107763873  1.0000
  C   C48       1.0  0.12955635491412215  0.6543350527326481  0.9596222031978884  1.0000
  C   C49       1.0  0.6761934950020815  0.7198571597100523  0.41646988887733033  1.0000
  C   C50       1.0  0.956093068023698  0.280469416287481  0.08378747378282012  1.0000
  C   C51       1.0  0.3238097140548036  0.2801436818100882  0.5835287806505678  1.0000
  C   C52       1.0  0.04391256332995401  0.7195362735850991  0.9162138890385949  1.0000
  C   C53       1.0  0.8469778248926048  0.812870149982423  0.4439681083738166  1.0000
  C   C54       1.0  0.033869858300633396  0.18748499072386685  0.056223349966188614  1.0000
  C   C55       1.0  0.153026283334242  0.18712971743397586  0.5560305343833676  1.0000
  C   C56       1.0  0.9661320259167072  0.8125187506094774  0.9437779600108063  1.0000
  C   C57       1.0  0.8657325514789067  0.8394532011194044  0.5145086527118823  1.0000
  C   C58       1.0  0.0260754834150276  0.16090934400088489  0.9856817623849284  1.0000
  C   C59       1.0  0.13427155126844784  0.16054665726461792  0.4854910141697958  1.0000
  C   C60       1.0  0.9739268127731722  0.8390924490420415  0.014319494224899596  1.0000
  C   C61       1.0  0.2943897524629406  0.9885799104455796  0.8083702168664929  1.0000
  C   C62       1.0  0.30633953755931037  0.011674428258444898  0.6916555707535539  1.0000
  C   C63       1.0  0.7056050631513744  0.011418008099831  0.19162837374327785  1.0000
  C   C64       1.0  0.6936534714958495  0.9883254249458768  0.30834460958436694  1.0000
  C   C65       1.0  0.48680711503241997  0.9870452950421437  0.808208968498626  1.0000
  C   C66       1.0  0.5002560840567654  0.0131325918552321  0.6918987053634781  1.0000
  C   C67       1.0  0.5131886749800928  0.012954571876626597  0.19178967530405805  1.0000
  C   C68       1.0  0.4997332667890647  0.9868682578678971  0.30809894178243274  1.0000
  N   N1        1.0  0.20500607229212875  0.00012285719953550024  0.7499960666290094  1.0000
  N   N2        1.0  0.7949864550434286  0.9998760308504872  0.2500030629879576  1.0000
  N   N3        1.0  0.5888491330152448  6.380024649389925e-05  0.7500777216547976  1.0000
  N   N4        1.0  0.41114568533881624  0.9999341228151053  0.2499203568927301  1.0000
  O   O1        1.0  0.7917331162048882  0.8151964695904255  0.7877080880276639  1.0000
  O   O2        1.0  0.9772452807358293  0.18492122350164658  0.7126087658408694  1.0000
  O   O3        1.0  0.2082561429742142  0.1848014305584726  0.21229255152807278  1.0000
  O   O4        1.0  0.02275750265146571  0.815081543727956  0.28739251736541155  1.0000
  O   O5        1.0  0.8630563878639066  0.9210470669241885  0.650808397023475  1.0000
  O   O6        1.0  0.9424533332647229  0.0793785584117188  0.8494174777135729  1.0000
  O   O7        1.0  0.13694167946837874  0.07895181242520977  0.34919175602098573  1.0000
  O   O8        1.0  0.05754725351054195  0.9206281278967338  0.15058135209007875  1.0000
