data_image0
_chemical_formula_structural       Cd4H10C12S2N10O10
_chemical_formula_sum              "Cd4 H10 C12 S2 N10 O10"
_cell_length_a       6.961757244356401
_cell_length_b       7.1527738566230274
_cell_length_c       11.483940498304802
_cell_angle_alpha    82.31494981771657
_cell_angle_beta     86.5748213253122
_cell_angle_gamma    86.30252860340981

_space_group_name_H-M_alt    "P 1"
_space_group_IT_number       1

loop_
  _space_group_symop_operation_xyz
  'x, y, z'

loop_
  _atom_site_type_symbol
  _atom_site_label
  _atom_site_symmetry_multiplicity
  _atom_site_fract_x
  _atom_site_fract_y
  _atom_site_fract_z
  _atom_site_occupancy
  Cd  Cd1       1.0  0.20567158538145952  0.21179213946123104  0.248461792267868  1.0000
  Cd  Cd2       1.0  0.7943312275802938  0.7882082262036718  0.7515381026739049  1.0000
  Cd  Cd3       1.0  0.5000003156971573  0.5000011156295444  0.999999531816499  1.0000
  Cd  Cd4       1.0  0.4999999307497447  8.480986082022478e-07  0.9999999719446393  1.0000
  H   H1        1.0  0.9173397630804914  0.19612221056515722  0.4856531752073109  1.0000
  H   H2        1.0  0.08266336273467803  0.8038725031046495  0.5143471557476075  1.0000
  H   H3        1.0  0.5029989641356992  0.25989040578551237  0.43299498610837606  1.0000
  H   H4        1.0  0.49700171746941635  0.7401226523401053  0.5670065958805495  1.0000
  H   H5        1.0  0.22254224131911832  0.3855871518631204  0.7620483940579063  1.0000
  H   H6        1.0  0.7774504267886828  0.6144146358269753  0.237953511642857  1.0000
  H   H7        1.0  0.523130950992254  0.3682599121978854  0.6308087107441125  1.0000
  H   H8        1.0  0.47686549118691357  0.6317517449503924  0.3691931417954776  1.0000
  H   H9        1.0  0.19820073973576774  0.2648031890339126  0.003596150259532702  1.0000
  H   H10       1.0  0.8018005479484246  0.7351986126605184  0.9964019467096532  1.0000
  C   C1        1.0  0.0485792276177293  0.23209628450231895  0.5228573891788172  1.0000
  C   C2        1.0  0.9514222361209335  0.7679026436355442  0.47714528284298996  1.0000
  C   C3        1.0  0.3769293481519825  0.2705412290768194  0.4932943980301729  1.0000
  C   C4        1.0  0.6230716502320988  0.7294661675418936  0.5067084913811115  1.0000
  C   C5        1.0  0.04816030772585832  0.28496748815396705  0.6357847669769257  1.0000
  C   C6        1.0  0.9518369008846507  0.7150300770537754  0.36421468995870737  1.0000
  C   C7        1.0  0.8761978837435012  0.2825813886080227  0.7159197280881031  1.0000
  C   C8        1.0  0.123800771931208  0.7174161535689693  0.2840814178168215  1.0000
  C   C9        1.0  0.22012510270198501  0.3383856021971071  0.6757734723425486  1.0000
  C   C10       1.0  0.77987181660842  0.6616175579349177  0.3242307770351828  1.0000
  C   C11       1.0  0.38638090159601296  0.32912502391287296  0.6032015334564064  1.0000
  C   C12       1.0  0.6136156813076569  0.6708838452850687  0.39679705145292127  1.0000
  S   S1        1.0  0.7326190934722092  0.2002979092349833  0.19346446537266357  1.0000
  S   S2        1.0  0.2673835512861729  0.7997053109628782  0.8065325973349072  1.0000
  N   N1        1.0  0.21000498078801405  0.22682028509757404  0.4526298572829218  1.0000
  N   N2        1.0  0.789997679672574  0.773182897053083  0.5473706910614806  1.0000
  N   N3        1.0  0.7790502887715219  0.1279811857686752  0.7569653968394403  1.0000
  N   N4        1.0  0.2209482026253795  0.872019201429467  0.24303378824048844  1.0000
  N   N5        1.0  0.804609804888507  0.4317006222417207  0.7692059638247173  1.0000
  N   N6        1.0  0.1953901217959384  0.5682997704610815  0.23079229599688483  1.0000
  N   N7        1.0  0.6629070874212033  0.36431736851987756  0.8434219263250211  1.0000
  N   N8        1.0  0.337091325762337  0.6356844316770421  0.15657714975162657  1.0000
  N   N9        1.0  0.6478119572407623  0.18454699782480333  0.8364129077418595  1.0000
  N   N10       1.0  0.3521850128041281  0.8154548158910659  0.16358535077470285  1.0000
  O   O1        1.0  0.3067671110758781  0.24763267286978421  0.05457466316986627  1.0000
  O   O2        1.0  0.693234180533864  0.7523691193128457  0.9454243052085329  1.0000
  O   O3        1.0  0.8855132370542407  0.1777121554731806  0.28097216060115215  1.0000
  O   O4        1.0  0.11448940770414849  0.8222910647246806  0.7190249021064118  1.0000
  O   O5        1.0  0.5434058347830089  0.19642564907800875  0.26055736424221  1.0000
  O   O6        1.0  0.4565979481117139  0.8035831905724039  0.739441822830706  1.0000
  O   O7        1.0  0.7555755243974575  0.0444403717138044  0.11863535958797658  1.0000
  O   O8        1.0  0.24442433192474053  0.9555614149641657  0.8813645340487497  1.0000
  O   O9        1.0  0.7516641758526036  0.3864227796381813  0.11738242329085577  1.0000
  O   O10       1.0  0.24833990419332966  0.6135804460643399  0.8826137141583812  1.0000
