data_image0
_chemical_formula_structural       Co2Ni2H16C32N12
_chemical_formula_sum              "Co2 Ni2 H16 C32 N12"
_cell_length_a       6.4183637021680875
_cell_length_b       10.174381362090756
_cell_length_c       11.104369643178819
_cell_angle_alpha    90.32798511366985
_cell_angle_beta     91.17589694600778
_cell_angle_gamma    71.64244924571456

_space_group_name_H-M_alt    "P 1"
_space_group_IT_number       1

loop_
  _space_group_symop_operation_xyz
  'x, y, z'

loop_
  _atom_site_type_symbol
  _atom_site_label
  _atom_site_symmetry_multiplicity
  _atom_site_fract_x
  _atom_site_fract_y
  _atom_site_fract_z
  _atom_site_occupancy
  Co  Co1       1.0  0.37703914194147353  0.24627878143759563  0.7498887279816273  1.0000
  Co  Co2       1.0  0.6229681310067859  0.7537184136815255  0.2501144042432912  1.0000
  Ni  Ni1       1.0  1.817144209300001e-06  6.210843117999999e-06  7.205928078199999e-06  1.0000
  Ni  Ni2       1.0  1.4660352768278156e-05  0.9999927756798282  0.5000000118164323  1.0000
  H   H1        1.0  0.932193633241212  0.2922799554041191  0.6110013239064571  1.0000
  H   H2        1.0  0.7761348980959112  0.29205819077719036  0.8887481631216972  1.0000
  H   H3        1.0  0.06781099316505397  0.7077068832288019  0.3890009075158715  1.0000
  H   H4        1.0  0.22386867720584283  0.7079555753271122  0.11125226350304729  1.0000
  H   H5        1.0  0.6382325706168572  0.5009654043668448  0.5448744719061835  1.0000
  H   H6        1.0  0.86155412003734  0.5006228947957324  0.9550816757585494  1.0000
  H   H7        1.0  0.3617710462456857  0.49902039803551185  0.4551286598956353  1.0000
  H   H8        1.0  0.13842872722050714  0.49939811699068287  0.044919641502751496  1.0000
  H   H9        1.0  0.6670339359949368  0.7365214040582727  0.5881364934885269  1.0000
  H   H10       1.0  0.5971716016746171  0.736265627284446  0.9119966877575791  1.0000
  H   H11       1.0  0.3329611570066433  0.2634654355011179  0.4118603293193246  1.0000
  H   H12       1.0  0.4028000808875872  0.26374917211348503  0.0879974193772668  1.0000
  H   H13       1.0  0.8934415458960315  0.8760856592316415  0.6947642606832929  1.0000
  H   H14       1.0  0.23168005707090328  0.8759632562219012  0.8052882769882855  1.0000
  H   H15       1.0  0.10652500987453102  0.1239146390153749  0.305232547866666  1.0000
  H   H16       1.0  0.7682900952732509  0.12403290045050137  0.1947076328982149  1.0000
  C   C1        1.0  0.11487200788766222  0.1349576991462627  0.9479390360431453  1.0000
  C   C2        1.0  0.7504263472792375  0.135027845302929  0.5517455579485429  1.0000
  C   C3        1.0  0.8851395176253191  0.8650591731266528  0.0520658974304311  1.0000
  C   C4        1.0  0.2495974777822738  0.8649672820936728  0.44825578048803993  1.0000
  C   C5        1.0  0.1698946709929814  0.06481505249601577  0.6061130063933788  1.0000
  C   C6        1.0  0.7655509853181001  0.0646665667512778  0.8936838820932138  1.0000
  C   C7        1.0  0.8301325372842642  0.9351738578266122  0.3938964407265999  1.0000
  C   C8        1.0  0.23445820911562967  0.9353430518563858  0.1063291576080516  1.0000
  C   C9        1.0  0.9462592577720415  0.3934746190736291  0.6303758484838298  1.0000
  C   C10       1.0  0.660848335757528  0.39326694549902896  0.8694740505611732  1.0000
  C   C11       1.0  0.05375579909510019  0.6065194703926264  0.369627287569628  1.0000
  C   C12       1.0  0.33916205060224053  0.6067457852505383  0.1305281806777217  1.0000
  C   C13       1.0  0.7790752212083091  0.5134652041843991  0.5939644982809114  1.0000
  C   C14       1.0  0.7081104428564017  0.5132105560629084  0.906047256324932  1.0000
  C   C15       1.0  0.22092366563475005  0.4865237052098905  0.4060368296198007  1.0000
  C   C16       1.0  0.29188424034880706  0.4868021737589315  0.0939513649726109  1.0000
  C   C17       1.0  0.7946727642149157  0.6433222190282493  0.6187959203493776  1.0000
  C   C18       1.0  0.5627597117719103  0.6431001335419921  0.8813026991352544  1.0000
  C   C19       1.0  0.20531873221306543  0.3566687621057625  0.38120180112193935  1.0000
  C   C20       1.0  0.43722598641012667  0.35691156123331075  0.1186914146270439  1.0000
  C   C21       1.0  0.9811010677095667  0.6519135548826681  0.6840387722432695  1.0000
  C   C22       1.0  0.3677464881357934  0.6517850881567995  0.8160154115651183  1.0000
  C   C23       1.0  0.01890126082937372  0.3480712149968709  0.3159571533138958  1.0000
  C   C24       1.0  0.6322370532030277  0.34823385703924  0.18397599828640668  1.0000
  C   C25       1.0  0.14210566379288286  0.5258154368912215  0.7170796012136122  1.0000
  C   C26       1.0  0.3327225732078389  0.5257771687120821  0.7828728968727177  1.0000
  C   C27       1.0  0.8578856524891592  0.47417865365528644  0.2829127155117063  1.0000
  C   C28       1.0  0.6672697273496908  0.4742210654176445  0.217117618407201  1.0000
  C   C29       1.0  0.018176091607038942  0.778531308779655  0.7186353089289383  1.0000
  C   C30       1.0  0.20423098461805708  0.7784677916589331  0.7814109407628465  1.0000
  C   C31       1.0  0.9818159898853195  0.22146174291003723  0.2813642140277253  1.0000
  C   C32       1.0  0.7957600596233834  0.2215428662681588  0.2185876791219243  1.0000
  N   N1        1.0  0.1851742745133365  0.21996885358346668  0.9102113541532972  1.0000
  N   N2        1.0  0.5952186320160775  0.22007967497692252  0.5893448485944859  1.0000
  N   N3        1.0  0.8148262183524507  0.7800293764784241  0.0897908741934899  1.0000
  N   N4        1.0  0.40480967526058  0.7799123487235278  0.4106510878550722  1.0000
  N   N5        1.0  0.2669558962802371  0.11785967394192197  0.6702246907717964  1.0000
  N   N6        1.0  0.6155064559410802  0.11774211192450679  0.829520831499309  1.0000
  N   N7        1.0  0.7330666749041511  0.8821323421367211  0.3297856546551259  1.0000
  N   N8        1.0  0.3845046842143773  0.882263366086903  0.1704886066307125  1.0000
  N   N9        1.0  0.12760604507126766  0.3978644689539904  0.6894165981770257  1.0000
  N   N10       1.0  0.47511206069520273  0.39775617805476315  0.8104261768732427  1.0000
  N   N11       1.0  0.8723985422131759  0.6021347982655598  0.3105838304536945  1.0000
  N   N12       1.0  0.5248959682851223  0.6022389496500365  0.1895688494139378  1.0000
