data_image0
_chemical_formula_structural       Co6H12C24O18
_chemical_formula_sum              "Co6 H12 C24 O18"
_cell_length_a       6.486324016809497
_cell_length_b       14.922997107810897
_cell_length_c       14.954525722897104
_cell_angle_alpha    117.9906716221832
_cell_angle_beta     98.25889570402248
_cell_angle_gamma    98.35538878614524

_space_group_name_H-M_alt    "P 1"
_space_group_IT_number       1

loop_
  _space_group_symop_operation_xyz
  'x, y, z'

loop_
  _atom_site_type_symbol
  _atom_site_label
  _atom_site_symmetry_multiplicity
  _atom_site_fract_x
  _atom_site_fract_y
  _atom_site_fract_z
  _atom_site_occupancy
  Co  Co1       1.0  0.4642314103242666  0.27269932309947353  0.5835864460470289  1.0000
  Co  Co2       1.0  0.19160932162066052  0.3110057809131561  0.7281200540592748  1.0000
  Co  Co3       1.0  0.881275722555088  0.4176947075896534  0.6899442526339712  1.0000
  Co  Co4       1.0  0.5360519426813538  0.727685878594876  0.41666971304268685  1.0000
  Co  Co5       1.0  0.8081334867924993  0.6884788842533922  0.2717525859709938  1.0000
  Co  Co6       1.0  0.1189458021642479  0.582291231863003  0.3107314586560079  1.0000
  H   H1        1.0  0.3270075220152222  0.22293983651403687  0.47970254598441636  1.0000
  H   H2        1.0  0.10369220425813808  0.2566125757510065  0.7777282840086597  1.0000
  H   H3        1.0  0.8482964200878269  0.5219049206850882  0.7442642738894207  1.0000
  H   H4        1.0  0.6730452492336524  0.7783054113372286  0.5207127446757838  1.0000
  H   H5        1.0  0.8955107129060237  0.7421661166045083  0.22142814202133113  1.0000
  H   H6        1.0  0.15191620385323273  0.478039570342929  0.25692910756056614  1.0000
  H   H7        1.0  0.8346089730699973  0.4440994629874026  0.46587892368653877  1.0000
  H   H8        1.0  0.3904523340932258  0.021523113427427593  0.5551907760525551  1.0000
  H   H9        1.0  0.3687235665073913  0.5343173363102806  0.9785062362154874  1.0000
  H   H10       1.0  0.16522462475389682  0.556120512015937  0.5347104561581304  1.0000
  H   H11       1.0  0.6096303457880123  0.9784965421815527  0.4423198547477155  1.0000
  H   H12       1.0  0.6308241331585832  0.4656089142656938  0.02192628291543031  1.0000
  C   C1        1.0  0.24770014475519275  0.4349772131995522  0.61235173632231  1.0000
  C   C2        1.0  0.8131760874229671  0.17755156671204014  0.5654741893872738  1.0000
  C   C3        1.0  0.6355299519076141  0.3888593954405336  0.8231996059830775  1.0000
  C   C4        1.0  0.7527333708534911  0.5655357436632186  0.3886151582867328  1.0000
  C   C5        1.0  0.18687097224676552  0.8225492419156024  0.43347390168843697  1.0000
  C   C6        1.0  0.3642359057078366  0.6105425180282893  0.17705989021877142  1.0000
  C   C7        1.0  0.3789344456610805  0.4658868908092373  0.5541955119226356  1.0000
  C   C8        1.0  0.9133614486237038  0.08831042031878412  0.5337164993904294  1.0000
  C   C9        1.0  0.8247905612925309  0.44669578155173173  0.9121939323796864  1.0000
  C   C10       1.0  0.6212837818600291  0.5346324835202265  0.4466701117166848  1.0000
  C   C11       1.0  0.08656459260339479  0.91169189021587  0.4643915207892846  1.0000
  C   C12       1.0  0.17483868451627416  0.5528624557724625  0.08819207438931186  1.0000
  C   C13       1.0  0.572231954715022  0.4337118149079089  0.5354128228109118  1.0000
  C   C14       1.0  0.1386127055809112  0.1016123885764983  0.5662079257103443  1.0000
  C   C15       1.0  0.03690026041493862  0.4654630036850236  0.8987922370387337  1.0000
  C   C16       1.0  0.42802558948527286  0.5668445206823163  0.4654535490859714  1.0000
  C   C17       1.0  0.8611937352952024  0.8983362225540004  0.43212054229370983  1.0000
  C   C18       1.0  0.9627655820094673  0.5340670344520787  0.10160320641220717  1.0000
  C   C19       1.0  0.6882879464541601  0.4691960564256305  0.48177357155122985  1.0000
  C   C20       1.0  0.2190901938245418  0.012356689735568697  0.5301543813499733  1.0000
  C   C21       1.0  0.20654595610914578  0.5184442894948376  0.9877676594884477  1.0000
  C   C22       1.0  0.3118046798843465  0.5312328171320855  0.5189804419821582  1.0000
  C   C23       1.0  0.7808856556450292  0.9876462339733932  0.46767387970092494  1.0000
  C   C24       1.0  0.7930528428227388  0.4812478232781102  0.012637539551789704  1.0000
  O   O1        1.0  0.30224358433333254  0.3700057334675719  0.6397393544492047  1.0000
  O   O2        1.0  0.9325303190792055  0.2699357403078864  0.6311701466831251  1.0000
  O   O3        1.0  0.662939154326132  0.3616861991144802  0.7310038459822435  1.0000
  O   O4        1.0  0.698766438823135  0.6306492832808104  0.3613225409817531  1.0000
  O   O5        1.0  0.06755365767337901  0.7299697293142701  0.36855305356088763  1.0000
  O   O6        1.0  0.33742327551903606  0.6375867619060711  0.26931384906413297  1.0000
  O   O7        1.0  0.08628449072742937  0.47217662570406554  0.6359304805557073  1.0000
  O   O8        1.0  0.6146654599579975  0.16414058338909848  0.5284883279680556  1.0000
  O   O9        1.0  0.4503464186895485  0.36504267961281295  0.836572255723638  1.0000
  O   O10       1.0  0.9140078126117854  0.5281917163848887  0.36502671595921754  1.0000
  O   O11       1.0  0.38539970465569684  0.8362395035981645  0.47066769873440234  1.0000
  O   O12       1.0  0.5492533514070387  0.6342731635627741  0.1634905523844168  1.0000
  O   O13       1.0  0.6518746653955815  0.3689297560388311  0.5640955052576686  1.0000
  O   O14       1.0  0.28300396675798106  0.1951172361060003  0.6318330194577229  1.0000
  O   O15       1.0  0.08801719394725885  0.43715998799357436  0.8054590929487446  1.0000
  O   O16       1.0  0.34858295030166175  0.6316875027718467  0.4367729007286557  1.0000
  O   O17       1.0  0.7167001171389414  0.804673278798951  0.3673797867561603  1.0000
  O   O18       1.0  0.9118085320167566  0.5622824630543094  0.194963479292703  1.0000
