data_image0
_chemical_formula_structural       Cd2H32C16S2N4O14
_chemical_formula_sum              "Cd2 H32 C16 S2 N4 O14"
_cell_length_a       6.492082949084507
_cell_length_b       9.155141568465455
_cell_length_c       11.24317938589384
_cell_angle_alpha    84.97690433716754
_cell_angle_beta     86.54104894748795
_cell_angle_gamma    74.42461375371722

_space_group_name_H-M_alt    "P 1"
_space_group_IT_number       1

loop_
  _space_group_symop_operation_xyz
  'x, y, z'

loop_
  _atom_site_type_symbol
  _atom_site_label
  _atom_site_symmetry_multiplicity
  _atom_site_fract_x
  _atom_site_fract_y
  _atom_site_fract_z
  _atom_site_occupancy
  Cd  Cd1       1.0  0.49999339956242755  0.5000026152285172  0.5000014596123635  1.0000
  Cd  Cd2       1.0  0.5000030497483863  0.4999984525650518  1.6687787152016235e-06  1.0000
  H   H1        1.0  0.7632905155996142  0.6567513021912746  0.3567065296337901  1.0000
  H   H2        1.0  0.2367052319491664  0.3432505166018984  0.6432981536766107  1.0000
  H   H3        1.0  0.5419204531301532  0.7861900630169957  0.3852563082414093  1.0000
  H   H4        1.0  0.4580771322254051  0.2138151627777845  0.6147471930999232  1.0000
  H   H5        1.0  0.905680158307341  0.34569934576645517  0.4007683891153491  1.0000
  H   H6        1.0  0.09431413440632506  0.6543024629937193  0.5992318889879656  1.0000
  H   H7        1.0  0.8927270515087713  0.3300136868140412  0.5450558604725018  1.0000
  H   H8        1.0  0.10726610231745341  0.6699869880743208  0.4549454194958998  1.0000
  H   H9        1.0  0.8109934954867203  0.36949813700787354  0.1887231496722279  1.0000
  H   H10       1.0  0.18900862448062136  0.6304991240138874  0.8112790045485313  1.0000
  H   H11       1.0  0.573355609788287  0.36708950330356055  0.22444576566224583  1.0000
  H   H12       1.0  0.4266460879281625  0.6329088947734577  0.775556320486281  1.0000
  H   H13       1.0  0.6717339911433342  0.2285820469292617  0.8315960968856974  1.0000
  H   H14       1.0  0.3282697253967513  0.7714152065035478  0.16840334387555342  1.0000
  H   H15       1.0  0.2546798027969786  0.9307146264596468  0.8625240919087391  1.0000
  H   H16       1.0  0.7453243891456011  0.06928148330968038  0.1374727474247663  1.0000
  H   H17       1.0  0.007772996926824812  0.11848259575346277  0.9964542115638368  1.0000
  H   H18       1.0  0.9922268059864122  0.8815169315485534  0.0035442911386950743  1.0000
  H   H19       1.0  0.12062107075869487  0.34405854506693595  0.046230770272139  1.0000
  H   H20       1.0  0.8793822589648957  0.655939841015652  0.9537668227502323  1.0000
  H   H21       1.0  0.7833822641580499  0.986793835038867  0.7442198419604086  1.0000
  H   H22       1.0  0.21662189235012616  0.013202279135953197  0.2557787770397511  1.0000
  H   H23       1.0  0.6304576018991029  0.8517743692109577  0.7606966759190287  1.0000
  H   H24       1.0  0.36953913188907717  0.14822515784975107  0.23930102486924204  1.0000
  H   H25       1.0  0.22304976693359183  0.02794106230938809  0.6582328102336206  1.0000
  H   H26       1.0  0.7769483115416663  0.9720630176191563  0.3417671998466361  1.0000
  H   H27       1.0  0.38641828666575156  0.8524770290719416  0.6087497734871192  1.0000
  H   H28       1.0  0.6135821797324184  0.147524775765369  0.39125032877806376  1.0000
  H   H29       1.0  0.7660862399859172  0.8425696645976117  0.5404734654349639  1.0000
  H   H30       1.0  0.23391227845743148  0.1574332760729291  0.4595257228842016  1.0000
  H   H31       1.0  0.8542993230049163  0.009855079808907896  0.5478834057503195  1.0000
  H   H32       1.0  0.14570158336135128  0.990145585770399  0.4521158747537726  1.0000
  C   C1        1.0  0.5274125121967119  0.19803420863677698  0.8670459083892796  1.0000
  C   C2        1.0  0.4726000780536453  0.8019641715615221  0.1329514208759051  1.0000
  C   C3        1.0  0.4788341511689966  0.06791117336383926  0.8338670212131731  1.0000
  C   C4        1.0  0.5211649351077058  0.9320860830111142  0.16613255142667072  1.0000
  C   C5        1.0  0.29187584077676837  0.035121508519360085  0.8831927644279604  1.0000
  C   C6        1.0  0.7081305757890707  0.964876875601796  0.11680474067534155  1.0000
  C   C7        1.0  0.158619249099921  0.13585190054492102  0.9589120552543025  1.0000
  C   C8        1.0  0.8413755544506429  0.8641487601462784  0.0410838417546131  1.0000
  C   C9        1.0  0.2187668998987817  0.2630017818928039  0.9869252514105966  1.0000
  C   C10       1.0  0.7812387253168823  0.736998869730641  0.013069448048277392  1.0000
  C   C11       1.0  0.6201672098161312  0.9738103264114527  0.7421944610379968  1.0000
  C   C12       1.0  0.3798376456113814  0.026188060893161898  0.2578039778581669  1.0000
  C   C13       1.0  0.3541432235110949  0.9773842353904597  0.5955031804049683  1.0000
  C   C14       1.0  0.6458568383533886  0.022618704299368596  0.4044959639546591  1.0000
  C   C15       1.0  0.7165063144273418  0.9680286001342607  0.5307583690191819  1.0000
  C   C16       1.0  0.283494187405239  0.03197320029756409  0.4692399535793542  1.0000
  S   S1        1.0  0.151503129313852  0.5018310868679876  0.2609640814440085  1.0000
  S   S2        1.0  0.848496620447776  0.49816844704226065  0.7390370907584938  1.0000
  N   N1        1.0  0.402481618981419  0.29217783329580266  0.9432026102307348  1.0000
  N   N2        1.0  0.5975104136745771  0.7078217055180147  0.0567987817694302  1.0000
  N   N3        1.0  0.5451129207316825  0.0263954010945113  0.6197836031479511  1.0000
  N   N4        1.0  0.4548891068048209  0.9736064005593402  0.3802155653243774  1.0000
  O   O1        1.0  0.6087536683422033  0.6719331001893065  0.3783294440337599  1.0000
  O   O2        1.0  0.3912408124538871  0.32807212976963745  0.6216750350599511  1.0000
  O   O3        1.0  0.8201243892082463  0.3184192972526816  0.4718842176991701  1.0000
  O   O4        1.0  0.17986512765958207  0.6815870616899531  0.5281158760342848  1.0000
  O   O5        1.0  0.6862688504380543  0.34097382894375267  0.15979681137436336  1.0000
  O   O6        1.0  0.3137351997669102  0.6590222984475175  0.8402071466257368  1.0000
  O   O7        1.0  0.021089208018210612  0.38925825170968414  0.2665713796540956  1.0000
  O   O8        1.0  0.9789144730874642  0.610739006128618  0.7334298407738091  1.0000
  O   O9        1.0  0.030695956753525933  0.6386562505732342  0.32341715634964174  1.0000
  O   O10       1.0  0.9693011106995402  0.36134215044592816  0.6765850616774857  1.0000
  O   O11       1.0  0.3573861755120263  0.42884115449737686  0.3219959946204868  1.0000
  O   O12       1.0  0.6426162211237597  0.5711595167094499  0.6780059114240516  1.0000
  O   O13       1.0  0.19629112535385226  0.5481066749703842  0.1343335908375423  1.0000
  O   O14       1.0  0.8037086421249813  0.45189285673711765  0.8656666915316364  1.0000
