data_image0
_chemical_formula_structural       Na4H28C24O24
_chemical_formula_sum              "Na4 H28 C24 O24"
_cell_length_a       4.451018384000301
_cell_length_b       8.562213088003958
_cell_length_c       18.7848132590077
_cell_angle_alpha    90.000102757026
_cell_angle_beta     89.99998675903096
_cell_angle_gamma    90.00004007281238

_space_group_name_H-M_alt    "P 1"
_space_group_IT_number       1

loop_
  _space_group_symop_operation_xyz
  'x, y, z'

loop_
  _atom_site_type_symbol
  _atom_site_label
  _atom_site_symmetry_multiplicity
  _atom_site_fract_x
  _atom_site_fract_y
  _atom_site_fract_z
  _atom_site_occupancy
  Na  Na1       1.0  0.3604234315275079  0.89329022019983  0.6315594676236388  1.0000
  Na  Na2       1.0  0.8604235472290895  0.6067085108494155  0.36844040501771513  1.0000
  Na  Na3       1.0  0.6395770727465191  0.3932915018704008  0.868439971095043  1.0000
  Na  Na4       1.0  0.1395770547611974  0.10670984556260515  0.13155897328671537  1.0000
  H   H1        1.0  0.8105450241676024  0.7900379795600966  0.7272734335021057  1.0000
  H   H2        1.0  0.31054500871825047  0.7099607333975012  0.27272750657992634  1.0000
  H   H3        1.0  0.1894553408745381  0.2900387207580195  0.7727269856326304  1.0000
  H   H4        1.0  0.6894557325015712  0.2099603089250904  0.22727248834226546  1.0000
  H   H5        1.0  0.49660523373452053  0.17988020328699858  0.702959403410276  1.0000
  H   H6        1.0  0.9966034596704034  0.32011776989506296  0.2970405859695688  1.0000
  H   H7        1.0  0.5033949827654922  0.6798819614532189  0.7970409258150682  1.0000
  H   H8        1.0  0.003395183414689  0.8201178080050154  0.20295949886207865  1.0000
  H   H9        1.0  0.9067097050776668  0.8969386933221627  0.5222557323829733  1.0000
  H   H10       1.0  0.40671159363259335  0.6030600545180532  0.4777441377056064  1.0000
  H   H11       1.0  0.09329080411605871  0.3969402075693507  0.9777442416585772  1.0000
  H   H12       1.0  0.5932890034366879  0.10305995515243886  0.022255769965326508  1.0000
  H   H13       1.0  0.1697094210496388  0.36097918215300234  0.6172940087014853  1.0000
  H   H14       1.0  0.6697095665086366  0.13902100829049857  0.3827059987078202  1.0000
  H   H15       1.0  0.83029103965373  0.8609802285713427  0.8827064683349662  1.0000
  H   H16       1.0  0.3302910790531044  0.6390219953152463  0.11729393831456751  1.0000
  H   H17       1.0  0.9789644894963344  0.13087070851437227  0.6741121309834811  1.0000
  H   H18       1.0  0.4789623905248561  0.3691295941119747  0.3258873270252992  1.0000
  H   H19       1.0  0.0210334142391488  0.6308712374590966  0.8258876258953836  1.0000
  H   H20       1.0  0.5210340719736664  0.8691297063200236  0.17411279780945682  1.0000
  H   H21       1.0  0.7271547849377669  0.14786130020369367  0.523415411230019  1.0000
  H   H22       1.0  0.22715251713181323  0.35213774315570123  0.4765845930107205  1.0000
  H   H23       1.0  0.2728498817395533  0.6478625143625433  0.9765848918614357  1.0000
  H   H24       1.0  0.772848415806294  0.8521361849206242  0.023416050299559305  1.0000
  H   H25       1.0  0.1190849426063565  0.14603109352357538  0.542663955038485  1.0000
  H   H26       1.0  0.6190853056452993  0.35396557478856033  0.45733605516136333  1.0000
  H   H27       1.0  0.8809174749254539  0.6460312844863337  0.9573363465588116  1.0000
  H   H28       1.0  0.38091562976038773  0.8539674539969011  0.042663524952331514  1.0000
  C   C1        1.0  0.6435045134590353  0.5725016551816607  0.6025449334738229  1.0000
  C   C2        1.0  0.1434889438339013  0.927498165099365  0.39745548347661247  1.0000
  C   C3        1.0  0.3565000515987222  0.07250294850768309  0.8974563727996313  1.0000
  C   C4        1.0  0.8565075973724134  0.4274984776200837  0.1025441566532237  1.0000
  C   C5        1.0  0.7232794899705013  0.5875516615905879  0.6759228294925421  1.0000
  C   C6        1.0  0.2232819445190941  0.912447019707109  0.3240759860224928  1.0000
  C   C7        1.0  0.27672060202809945  0.08755263680694007  0.8240774243747426  1.0000
  C   C8        1.0  0.7767190697453188  0.4124475924573544  0.17592364182270612  1.0000
  C   C9        1.0  0.8757074278574067  0.4544354467075207  0.6976158266469386  1.0000
  C   C10       1.0  0.3757094086873423  0.04556715430813799  0.3023841694023163  1.0000
  C   C11       1.0  0.12429091219080848  0.9544359204855296  0.8023836619776717  1.0000
  C   C12       1.0  0.624288864178716  0.5455673965930288  0.19761569134361423  1.0000
  C   C13       1.0  0.928719982605429  0.3583316663043376  0.6307138698979176  1.0000
  C   C14       1.0  0.428722028243655  0.14166978602068525  0.36928665557210394  1.0000
  C   C15       1.0  0.07127822785027152  0.8583312165776815  0.8692860726321783  1.0000
  C   C16       1.0  0.571278620889153  0.641669745425929  0.1307132836117759  1.0000
  C   C17       1.0  0.8367543949362714  0.18652443817756384  0.6334133234333239  1.0000
  C   C18       1.0  0.3367499348324685  0.3134769807841095  0.3665866747639229  1.0000
  C   C19       1.0  0.1632458305225128  0.6865251790975078  0.8665870112145697  1.0000
  C   C20       1.0  0.6632464526209318  0.8134769841924409  0.1334134046476194  1.0000
  C   C21       1.0  0.8973360190314494  0.10964815640414115  0.5622829585852926  1.0000
  C   C22       1.0  0.39733833374332755  0.3903497807680977  0.4377170362692199  1.0000
  C   C23       1.0  0.10266634944015608  0.609649155658765  0.9377173133169023  1.0000
  C   C24       1.0  0.60266489740075  0.8903506498105141  0.06228310588539191  1.0000
  O   O1        1.0  0.4808833784118178  0.6582375631643341  0.5649651476767732  1.0000
  O   O2        1.0  0.9808972266541857  0.8417693870393631  0.4350336536342214  1.0000
  O   O3        1.0  0.5191145622252051  0.15823672773000644  0.9350356962279707  1.0000
  O   O4        1.0  0.019103692302841997  0.341769247702345  0.06496857824884471  1.0000
  O   O5        1.0  0.6306445761429842  0.7144476536037697  0.7154872909818482  1.0000
  O   O6        1.0  0.13064465121286875  0.7855533299374143  0.2845131266778652  1.0000
  O   O7        1.0  0.3693579336446149  0.21444617066318725  0.7845125341108388  1.0000
  O   O8        1.0  0.8693561919399144  0.28555175635593594  0.2154858652520204  1.0000
  O   O9        1.0  0.9634423474648699  0.4127395901662821  0.7601583506909294  1.0000
  O   O10       1.0  0.46344219839877354  0.08725603514342589  0.23984270520672624  1.0000
  O   O11       1.0  0.0365581830350195  0.9127397856503945  0.7398411039017108  1.0000
  O   O12       1.0  0.536560624037243  0.5872564920650872  0.26015612487542233  1.0000
  O   O13       1.0  0.7672424120788649  0.43945891585256885  0.574324206618961  1.0000
  O   O14       1.0  0.2672465403935149  0.06054014204794098  0.4256747307208926  1.0000
  O   O15       1.0  0.232755907774262  0.9394599148460686  0.9256758021270741  1.0000
  O   O16       1.0  0.7327539993402965  0.5605411057373642  0.07432514224609582  1.0000
  O   O17       1.0  0.5288383188632082  0.16069698214253947  0.6509642012068539  1.0000
  O   O18       1.0  0.028831663902891994  0.3393019892754622  0.3490358139713194  1.0000
  O   O19       1.0  0.4711618717686931  0.6606977655954437  0.8490355800159934  1.0000
  O   O20       1.0  0.9711647583742362  0.8393021735487946  0.15096481886336482  1.0000
  O   O21       1.0  0.8859661451205768  0.9429724447255975  0.5709174013086341  1.0000
  O   O22       1.0  0.3859680187209947  0.5570262955897433  0.4290824699239622  1.0000
  O   O23       1.0  0.11403442614746954  0.44297377473166216  0.9290826103051802  1.0000
  O   O24       1.0  0.6140325162747543  0.057027563437344476  0.07091740017517623  1.0000
