data_image0
_chemical_formula_structural       Ca4H32C24N8O28
_chemical_formula_sum              "Ca4 H32 C24 N8 O28"
_cell_length_a       7.02368474549968
_cell_length_b       11.419003650018977
_cell_length_c       11.804327543770784
_cell_angle_alpha    89.99980146466599
_cell_angle_beta     91.29525662554244
_cell_angle_gamma    89.99994360693272

_space_group_name_H-M_alt    "P 1"
_space_group_IT_number       1

loop_
  _space_group_symop_operation_xyz
  'x, y, z'

loop_
  _atom_site_type_symbol
  _atom_site_label
  _atom_site_symmetry_multiplicity
  _atom_site_fract_x
  _atom_site_fract_y
  _atom_site_fract_z
  _atom_site_occupancy
  Ca  Ca1       1.0  0.5205918347595427  0.05678823107574971  0.16217141579620187  1.0000
  Ca  Ca2       1.0  0.9794060125971527  0.556787628102839  0.3378283247145007  1.0000
  Ca  Ca3       1.0  0.47940544792719925  0.9432163837804879  0.8378260670173109  1.0000
  Ca  Ca4       1.0  0.020595527151158397  0.4432161110098393  0.6621743027777856  1.0000
  H   H1        1.0  0.8360059578945142  0.8161292802129055  0.20028501001625912  1.0000
  H   H2        1.0  0.6639942609532454  0.3161249314353185  0.29971304912136537  1.0000
  H   H3        1.0  0.16397707599353586  0.18387358317684024  0.7997148074362814  1.0000
  H   H4        1.0  0.33602295681140504  0.6838735532812662  0.7002855701908572  1.0000
  H   H5        1.0  0.8186603941683331  0.9511254793694377  0.5896551683930938  1.0000
  H   H6        1.0  0.6813441508767325  0.4511242274569086  0.9103460039859717  1.0000
  H   H7        1.0  0.18130552995904034  0.048866875215644305  0.41035117793028775  1.0000
  H   H8        1.0  0.31869871881293943  0.548865499930983  0.08964705761799513  1.0000
  H   H9        1.0  0.3468029523987681  0.8530327598549047  0.22940950457100945  1.0000
  H   H10       1.0  0.15319644660538503  0.35303290012553373  0.2705927246844767  1.0000
  H   H11       1.0  0.6531843665750614  0.14697010354112186  0.7705861393342917  1.0000
  H   H12       1.0  0.8468164682361419  0.646969087506747  0.7294159979483229  1.0000
  H   H13       1.0  0.30805973205011133  0.9126813782084752  0.343474717222918  1.0000
  H   H14       1.0  0.19194240749464336  0.4126827811652801  0.15652650486833866  1.0000
  H   H15       1.0  0.6919275971130221  0.0873232366599055  0.656517538234141  1.0000
  H   H16       1.0  0.808076198711035  0.5873227093948117  0.8434839946603535  1.0000
  H   H17       1.0  0.9529025949056731  0.06950563154470758  0.09251102062751222  1.0000
  H   H18       1.0  0.5470923832617132  0.5695076483521292  0.4074877884903786  1.0000
  H   H19       1.0  0.0470946852349599  0.9304972318437166  0.9074873093002725  1.0000
  H   H20       1.0  0.4529063158967404  0.43049784223227044  0.5925122563254066  1.0000
  H   H21       1.0  0.8316853165917806  0.9961961344608594  0.0021875288173803056  1.0000
  H   H22       1.0  0.6683159884857162  0.49619895515038354  0.49781163724469496  1.0000
  H   H23       1.0  0.168314806685629  0.0038058531905136  0.9978125366741042  1.0000
  H   H24       1.0  0.3316841424356909  0.5038021567723875  0.5021858869143117  1.0000
  H   H25       1.0  0.1372678910450986  0.155736475905293  0.20406827594736407  1.0000
  H   H26       1.0  0.36272903199712664  0.655736088384799  0.2959320367627073  1.0000
  H   H27       1.0  0.862726533220922  0.8442663874794503  0.7959325539748079  1.0000
  H   H28       1.0  0.6372696620682987  0.34426677499712344  0.7040697022801512  1.0000
  H   H29       1.0  0.16922176066247374  0.21031762885121444  0.08248924146414542  1.0000
  H   H30       1.0  0.33077790719169536  0.7103168236546507  0.4175117754163511  1.0000
  H   H31       1.0  0.8307797841796756  0.7896878617307905  0.9175116918025383  1.0000
  H   H32       1.0  0.6692193653017001  0.2896904183949545  0.5824890958380139  1.0000
  C   C1        1.0  0.8238797191147427  0.8449932915971343  0.2876685138821814  1.0000
  C   C2        1.0  0.6761218679551392  0.34499100055420934  0.21233031558013246  1.0000
  C   C3        1.0  0.1761018906656844  0.1550008144615802  0.7123312829153506  1.0000
  C   C4        1.0  0.32389535236371364  0.6550004782987173  0.7876674566325974  1.0000
  C   C5        1.0  0.8869441973466649  0.8112062760490343  0.47599343134437805  1.0000
  C   C6        1.0  0.6130531772699185  0.3112046950267099  0.024006297293077208  1.0000
  C   C7        1.0  0.11302886773625431  0.1887913329448878  0.5240062414285093  1.0000
  C   C8        1.0  0.38696973441147264  0.6887920382203275  0.9759932518125826  1.0000
  C   C9        1.0  0.8163808037727095  0.9216072991978804  0.502361621011332  1.0000
  C   C10       1.0  0.6836238009226533  0.42160398180507735  0.9976379568101809  1.0000
  C   C11       1.0  0.18359082445422814  0.0783920612551867  0.4976422666454142  1.0000
  C   C12       1.0  0.3164090923097973  0.5783901242470506  0.002357501431831102  1.0000
  C   C13       1.0  0.7373649865538638  0.9871709937388501  0.4136508763503245  1.0000
  C   C14       1.0  0.7626391859866146  0.4871691055849253  0.08634751441935153  1.0000
  C   C15       1.0  0.2626080810792075  0.0128239880571428  0.5863479493156804  1.0000
  C   C16       1.0  0.2373908462773855  0.5128232489941951  0.9136521380426504  1.0000
  C   C17       1.0  0.6412079726705431  0.10494515764374061  0.43076182666379037  1.0000
  C   C18       1.0  0.858791207256175  0.6049429572876762  0.06923861903950981  1.0000
  C   C19       1.0  0.3587779119974713  0.8950568300135018  0.5692371850184801  1.0000
  C   C20       1.0  0.1412245812956883  0.3950572788926081  0.930761673822609  1.0000
  C   C21       1.0  0.952123830768663  0.7287225365852734  0.5695430695155042  1.0000
  C   C22       1.0  0.5478725857041553  0.22872041164509227  0.9304570355179751  1.0000
  C   C23       1.0  0.04786347546571079  0.2712812025363148  0.43045680994492147  1.0000
  C   C24       1.0  0.45214178127972093  0.7712798245371459  0.06954238956303983  1.0000
  N   N1        1.0  0.7402428287477107  0.9481467647238517  0.3063107340903316  1.0000
  N   N2        1.0  0.759758565135961  0.44814361788840523  0.1936885942098742  1.0000
  N   N3        1.0  0.25973450868558257  0.0518473413361704  0.6936890006978305  1.0000
  N   N4        1.0  0.2402629249823036  0.5518478609617005  0.8063100871235421  1.0000
  N   N5        1.0  0.8920045256979136  0.7727267528249867  0.3684384448872536  1.0000
  N   N6        1.0  0.6079971923806654  0.27272478930637334  0.13156147567780613  1.0000
  N   N7        1.0  0.10797992976782922  0.22726560176504754  0.6315622403641329  1.0000
  N   N8        1.0  0.39202002539288844  0.727264062345597  0.868437143650681  1.0000
  O   O1        1.0  0.5430908659305161  0.14462392516207956  0.3487603189318947  1.0000
  O   O2        1.0  0.956906814000611  0.6446231275336415  0.15124081924400207  1.0000
  O   O3        1.0  0.4568921781541135  0.8553728081017122  0.6512361100857122  1.0000
  O   O4        1.0  0.04310896181664961  0.3553727299733253  0.848763709182123  1.0000
  O   O5        1.0  0.6687300895982065  0.15347285429474058  0.5269143770174126  1.0000
  O   O6        1.0  0.8312750131854969  0.6534718497198782  0.973085258985485  1.0000
  O   O7        1.0  0.33125863820415447  0.8465308848248938  0.47308637022412386  1.0000
  O   O8        1.0  0.16874505025637634  0.3465336408594979  0.026914248765812908  1.0000
  O   O9        1.0  0.9999720706138859  0.6251936811370624  0.541345795228935  1.0000
  O   O10       1.0  0.5000223792738296  0.1251903261876279  0.9586530036217201  1.0000
  O   O11       1.0  1.7337309458299477e-05  0.3748103380386637  0.45865672606982616  1.0000
  O   O12       1.0  0.4999805998798054  0.8748099100011261  0.04134456187833992  1.0000
  O   O13       1.0  0.9476882317317318  0.7670593275663292  0.6701562718137952  1.0000
  O   O14       1.0  0.552303836443393  0.267061939265254  0.8298453359892694  1.0000
  O   O15       1.0  0.0522862472767898  0.2329374056879345  0.3298468100756439  1.0000
  O   O16       1.0  0.4477105356367517  0.7329374211868681  0.17015239487057704  1.0000
  O   O17       1.0  0.3033495406115421  0.9291645770103757  0.26074583002640145  1.0000
  O   O18       1.0  0.1966525659221361  0.4291665566741329  0.23925618352332387  1.0000
  O   O19       1.0  0.6966335213031484  0.0708365349297608  0.7392446692045598  1.0000
  O   O20       1.0  0.803368883421129  0.5708371824157581  0.7607560515705388  1.0000
  O   O21       1.0  0.8284618421666679  0.031046996426482603  0.07749027045809953  1.0000
  O   O22       1.0  0.6715346362887189  0.5310480139877782  0.42250699495569694  1.0000
  O   O23       1.0  0.17153686463660023  0.9689567426961647  0.9225072330266787  1.0000
  O   O24       1.0  0.3284654869870707  0.4689557251298879  0.5774930705328318  1.0000
  O   O25       1.0  0.17726228704519545  0.13522780876897397  0.12667811151928995  1.0000
  O   O26       1.0  0.32273467389879334  0.6352280421232237  0.3733222704327164  1.0000
  O   O27       1.0  0.8227364095663462  0.8647768060807551  0.8733227804092966  1.0000
  O   O28       1.0  0.6772611719319742  0.3647783241921516  0.6266794272646552  1.0000
