data_image0
_chemical_formula_structural       Li2H14C8N4O6
_chemical_formula_sum              "Li2 H14 C8 N4 O6"
_cell_length_a       4.974044828081501
_cell_length_b       7.686350309955133
_cell_length_c       8.876631994963919
_cell_angle_alpha    106.65498219461394
_cell_angle_beta     90.00021339059842
_cell_angle_gamma    90.0007917887064

_space_group_name_H-M_alt    "P 1"
_space_group_IT_number       1

loop_
  _space_group_symop_operation_xyz
  'x, y, z'

loop_
  _atom_site_type_symbol
  _atom_site_label
  _atom_site_symmetry_multiplicity
  _atom_site_fract_x
  _atom_site_fract_y
  _atom_site_fract_z
  _atom_site_occupancy
  Li  Li1       1.0  0.45485936088442697  0.6202603199124256  0.48684529407363186  1.0000
  Li  Li2       1.0  0.9548592251601633  0.3797383790648468  0.5131473734888417  1.0000
  H   H1        1.0  0.9088775061885529  0.8127134385377274  0.7602655147833132  1.0000
  H   H2        1.0  0.40889578856024383  0.18727632536727165  0.23973544677097888  1.0000
  H   H3        1.0  0.0682369302237475  0.6301183087706903  0.7734535290847546  1.0000
  H   H4        1.0  0.5682517929798577  0.36987770719304086  0.22655187786054404  1.0000
  H   H5        1.0  0.42508481861671044  0.1904334229877094  0.9359861078201204  1.0000
  H   H6        1.0  0.9250906772707523  0.8095695215975669  0.06401177428498532  1.0000
  H   H7        1.0  0.4275083268337169  0.775764175819809  0.9012731477563349  1.0000
  H   H8        1.0  0.92751835174036  0.22424042347047654  0.09872844596796428  1.0000
  H   H9        1.0  0.24292130537128995  0.9751919273806424  0.9885628740674973  1.0000
  H   H10       1.0  0.7429289657671773  0.0248119234623942  0.0114435404801156  1.0000
  H   H11       1.0  0.7018622081451226  0.12824531537880554  0.6277064121203395  1.0000
  H   H12       1.0  0.20186777378794568  0.8717610677052862  0.372301461383202  1.0000
  H   H13       1.0  0.7781370210344888  0.2998360907379407  0.8023484583399421  1.0000
  H   H14       1.0  0.27815491537535303  0.700178546640899  0.19765675038043182  1.0000
  C   C1        1.0  0.27227185794050257  0.8671146456544536  0.877887537466279  1.0000
  C   C2        1.0  0.7722771200962696  0.1328824367550965  0.1221154397134114  1.0000
  C   C3        1.0  0.3929414172250602  0.9532726548423585  0.7586840518713273  1.0000
  C   C4        1.0  0.8929604317295413  0.04671703303973371  0.24130102602672568  1.0000
  C   C5        1.0  0.6108715260391193  0.22705329150148398  0.7299872817680892  1.0000
  C   C6        1.0  0.1108878400944135  0.7729491174145338  0.27001159389875795  1.0000
  C   C7        1.0  0.45327142095527506  0.36315783884632674  0.6677412574296184  1.0000
  C   C8        1.0  0.9532767071510335  0.636842109654282  0.3322505126343245  1.0000
  N   N1        1.0  0.024427625691856695  0.7625063922670775  0.833349488364675  1.0000
  N   N2        1.0  0.5244422651067707  0.23748778974169235  0.1666531489703047  1.0000
  N   N3        1.0  0.45620527504621566  0.1297760130584535  0.8173062384487864  1.0000
  N   N4        1.0  0.9562253895761186  0.8702274215284973  0.1826952399893216  1.0000
  O   O1        1.0  0.43976492880255336  0.8644521391279838  0.6192515961488424  1.0000
  O   O2        1.0  0.9397930928002081  0.1355505892671189  0.3807587215233141  1.0000
  O   O3        1.0  0.20252406804540604  0.3798767990430534  0.6890427650756976  1.0000
  O   O4        1.0  0.7025307914209121  0.6201331791546636  0.31096014819994616  1.0000
  O   O5        1.0  0.595434651488432  0.45155423072765893  0.5946731307955488  1.0000
  O   O6        1.0  0.09544039279789727  0.5484320386578007  0.4053090662258895  1.0000
