data_image0
_chemical_formula_structural       K4H24C12N4O20
_chemical_formula_sum              "K4 H24 C12 N4 O20"
_cell_length_a       6.834658077596215
_cell_length_b       7.480716254981531
_cell_length_c       13.070663580020348
_cell_angle_alpha    89.99992840986475
_cell_angle_beta     89.99983586477126
_cell_angle_gamma    105.18354243308512

_space_group_name_H-M_alt    "P 1"
_space_group_IT_number       1

loop_
  _space_group_symop_operation_xyz
  'x, y, z'

loop_
  _atom_site_type_symbol
  _atom_site_label
  _atom_site_symmetry_multiplicity
  _atom_site_fract_x
  _atom_site_fract_y
  _atom_site_fract_z
  _atom_site_occupancy
  K   K1        1.0  0.09986491791152476  0.49864304814275334  0.6380262675799739  1.0000
  K   K2        1.0  0.4001353070318814  0.5013556827047694  0.13802847309323593  1.0000
  K   K3        1.0  0.9001375354710105  0.5013567805492228  0.3619731159996533  1.0000
  K   K4        1.0  0.5998627592436278  0.49864415394772976  0.8619724406338845  1.0000
  H   H1        1.0  0.9554546647059968  0.9743889937670503  0.7349248965813686  1.0000
  H   H2        1.0  0.544548985278169  0.0256110275950121  0.23492491505030696  1.0000
  H   H3        1.0  0.044545926433336505  0.0256094524593635  0.2650744870001489  1.0000
  H   H4        1.0  0.45545493047171004  0.9743887984425045  0.765074468528219  1.0000
  H   H5        1.0  0.8354081303547645  0.9798659599045079  0.8544835665974799  1.0000
  H   H6        1.0  0.664593675676244  0.0201350000723508  0.354484173583451  1.0000
  H   H7        1.0  0.16458687405744143  0.020128338926632204  0.1455150519176129  1.0000
  H   H8        1.0  0.33540877770379757  0.9798648286181973  0.6455159750682782  1.0000
  H   H9        1.0  0.11871458330475806  0.5566655946693615  0.8924019941444284  1.0000
  H   H10       1.0  0.3812877034834159  0.4433349454749447  0.39240120901283854  1.0000
  H   H11       1.0  0.8812874701969166  0.4433328488997077  0.107598919580191  1.0000
  H   H12       1.0  0.6187151497774863  0.5566662683385104  0.6075974094938985  1.0000
  H   H13       1.0  0.9497474743292569  0.23101733969703991  0.9607017668155108  1.0000
  H   H14       1.0  0.5502550998065419  0.7689832185849851  0.4607020125151919  1.0000
  H   H15       1.0  0.050250591941250033  0.7689824969525817  0.039300677055805984  1.0000
  H   H16       1.0  0.44974775345185963  0.23101799522703462  0.5392973710636468  1.0000
  H   H17       1.0  0.13842620467459463  0.8841489275105732  0.4835174960685506  1.0000
  H   H18       1.0  0.36157402419183876  0.11585127298217661  0.9835182299781022  1.0000
  H   H19       1.0  0.861574786340597  0.11585090383587021  0.516481887512178  1.0000
  H   H20       1.0  0.6384259043268798  0.8841499461358852  0.0164826837471281  1.0000
  H   H21       1.0  0.9228581472821915  0.818306668508839  0.5356367014887694  1.0000
  H   H22       1.0  0.5771424181860921  0.18169410950233808  0.03563732490544418  1.0000
  H   H23       1.0  0.077143243611367  0.18169454795907564  0.4643619170190617  1.0000
  H   H24       1.0  0.42285751033261937  0.8183071096157237  0.9643635888197861  1.0000
  C   C1        1.0  0.08269238625200621  0.8576660870924188  0.8612550639077552  1.0000
  C   C2        1.0  0.41730757925698464  0.14233596049204783  0.36125520400557315  1.0000
  C   C3        1.0  0.9173056800235031  0.14233374956008046  0.13874584981935809  1.0000
  C   C4        1.0  0.5826938116315716  0.8576652559729894  0.6387449446464544  1.0000
  C   C5        1.0  0.9839332952342302  0.001434534632792899  0.8167282603385928  1.0000
  C   C6        1.0  0.5160687575721781  0.9985665671828343  0.3167291590416923  1.0000
  C   C7        1.0  0.01606517091964597  0.998566687141171  0.1832718883156303  1.0000
  C   C8        1.0  0.48393223344051256  0.0014332641621735  0.6832709896111311  1.0000
  C   C9        1.0  0.11038466451823584  0.19913398348315076  0.8289531684978613  1.0000
  C   C10       1.0  0.38961551211889417  0.8008681854511651  0.3289544115079721  1.0000
  C   C11       1.0  0.8896115395065607  0.8008644706994659  0.1710500404474402  1.0000
  C   C12       1.0  0.6103869412636413  0.19913164324081828  0.6710449720716624  1.0000
  N   N1        1.0  0.06176531814332983  0.29022088306232513  0.9092842127009888  1.0000
  N   N2        1.0  0.43823725816849196  0.7097809787750149  0.4092854474758241  1.0000
  N   N3        1.0  0.9382312857623349  0.7097789562431984  0.09071746609932767  1.0000
  N   N4        1.0  0.5617651952140436  0.2902188499169684  0.5907139361038033  1.0000
  O   O1        1.0  0.023939314159406495  0.693572236584302  0.8266769679668045  1.0000
  O   O2        1.0  0.4760623397295518  0.3064299382506873  0.3266761378418935  1.0000
  O   O3        1.0  0.9760635390964937  0.3064289772262754  0.17332318068412883  1.0000
  O   O4        1.0  0.5239390511640067  0.6935712782172273  0.6733224806659448  1.0000
  O   O5        1.0  0.210163814933651  0.9054499677608092  0.9343155110332971  1.0000
  O   O6        1.0  0.2898352731633124  0.09455042023079589  0.4343151116980408  1.0000
  O   O7        1.0  0.7898353138333364  0.0945484811171937  0.06568540269351789  1.0000
  O   O8        1.0  0.7101657178518864  0.9054494111156474  0.5656842718826879  1.0000
  O   O9        1.0  0.2500270112504737  0.27061200488770254  0.767943893830754  1.0000
  O   O10       1.0  0.24997356415232028  0.7293903932446284  0.2679461627154964  1.0000
  O   O11       1.0  0.7499666679230047  0.729387839728183  0.2320570198996634  1.0000
  O   O12       1.0  0.7500278267387374  0.27061082322185115  0.7320532208644365  1.0000
  O   O13       1.0  0.1786794895853775  0.46676217199308917  0.9335513838394078  1.0000
  O   O14       1.0  0.32132106586959  0.5332382162125314  0.43355215498434757  1.0000
  O   O15       1.0  0.8213167144444213  0.533236282192405  0.06645029496170447  1.0000
  O   O16       1.0  0.6786813875129454  0.4667616124794521  0.5664472285952797  1.0000
  O   O17       1.0  0.04355040502134246  0.7766533303132661  0.5163254273271463  1.0000
  O   O18       1.0  0.456449552896629  0.22334724551772211  0.016326215979681497  1.0000
  O   O19       1.0  0.9564509858722162  0.22334788615464868  0.48367319118068497  1.0000
  O   O20       1.0  0.5435503756220826  0.7766539736003394  0.9836746977455417  1.0000
