data_image0
_chemical_formula_structural       Ag2H26C30N16O6
_chemical_formula_sum              "Ag2 H26 C30 N16 O6"
_cell_length_a       9.148199292824518
_cell_length_b       9.313840734816576
_cell_length_c       11.82798796606815
_cell_angle_alpha    92.25566087801718
_cell_angle_beta     105.49632966629382
_cell_angle_gamma    115.90383399778935

_space_group_name_H-M_alt    "P 1"
_space_group_IT_number       1

loop_
  _space_group_symop_operation_xyz
  'x, y, z'

loop_
  _atom_site_type_symbol
  _atom_site_label
  _atom_site_symmetry_multiplicity
  _atom_site_fract_x
  _atom_site_fract_y
  _atom_site_fract_z
  _atom_site_occupancy
  Ag  Ag1       1.0  0.3729738003306053  0.5910445089312404  0.3310147734498371  1.0000
  Ag  Ag2       1.0  0.6270277541591581  0.40895645169619843  0.6689851974349138  1.0000
  H   H1        1.0  0.24257975263071785  0.4149757601967822  0.5526381979571936  1.0000
  H   H2        1.0  0.7574200672882938  0.5850239807618892  0.447362216276275  1.0000
  H   H3        1.0  0.04514403951082361  0.2720553254984779  0.6693874032620002  1.0000
  H   H4        1.0  0.9548568744334389  0.7279419980941101  0.3306123199661711  1.0000
  H   H5        1.0  0.7319408310070369  0.136949950336053  0.5759445897643757  1.0000
  H   H6        1.0  0.26805840977939965  0.8630485832795002  0.4240539743873483  1.0000
  H   H7        1.0  0.5978022274975743  0.1289007933893629  0.3612948976987268  1.0000
  H   H8        1.0  0.4021975989309893  0.8710989506060967  0.6387046725326115  1.0000
  H   H9        1.0  0.6907374053410679  0.26571252619852  0.04529361821344221  1.0000
  H   H10       1.0  0.3092635988812872  0.7342896415935555  0.9547071201750227  1.0000
  H   H11       1.0  0.5597186352378146  0.1599263155262634  0.1360010432022207  1.0000
  H   H12       1.0  0.44028291925194196  0.8400746451011685  0.8639989276825303  1.0000
  H   H13       1.0  0.6226163330087219  0.8680564069821771  0.20181970861535348  1.0000
  H   H14       1.0  0.37738177837774606  0.1319421264549021  0.7981777729583256  1.0000
  H   H15       1.0  0.8247320426222374  0.0006123679943926005  0.08633302875751526  1.0000
  H   H16       1.0  0.17526379043562904  0.9993861559753512  0.9136648196664723  1.0000
  H   H17       1.0  0.9543835187189273  0.8540004201616541  0.004193504795495159  1.0000
  H   H18       1.0  0.045616307709629184  0.14599932383380576  0.9958060654358504  1.0000
  H   H19       1.0  0.8780581600936727  0.5675593987606359  0.02228750943278601  1.0000
  H   H20       1.0  0.12194565319602896  0.4324415622237439  0.9777146266080337  1.0000
  H   H21       1.0  0.8143129802714739  0.789733125624572  0.7639569724014875  1.0000
  H   H22       1.0  0.185686881531808  0.21026903591545218  0.23604437141319318  1.0000
  H   H23       1.0  0.7493870307499434  0.9444698181922105  0.7644634850102532  1.0000
  H   H24       1.0  0.25061284407244955  0.0555323494213908  0.23553617080017364  1.0000
  H   H25       1.0  0.911164385457134  0.9627314553433806  0.6979586382540928  1.0000
  H   H26       1.0  0.08883489721357309  0.03726949885352578  0.3020408554788361  1.0000
  C   C1        1.0  0.027710525089886966  0.3530631243010447  0.3922517915117466  1.0000
  C   C2        1.0  0.972290472622916  0.6469390404542422  0.6077497908788416  1.0000
  C   C3        1.0  0.10384769709188649  0.3539408341689168  0.5122994890189502  1.0000
  C   C4        1.0  0.896152116317573  0.6460589037529586  0.48770176921664177  1.0000
  C   C5        1.0  0.9930660152718573  0.2739307658333487  0.5753946236309844  1.0000
  C   C6        1.0  0.006932620343796631  0.7260665482919109  0.42460546644748826  1.0000
  C   C7        1.0  0.8128853362647847  0.19503202983644738  0.5215387434518846  1.0000
  C   C8        1.0  0.1871133058604285  0.8049652873256079  0.47846050262446477  1.0000
  C   C9        1.0  0.7361731945843814  0.1923634280071056  0.4025388363640445  1.0000
  C   C10       1.0  0.2638266253346302  0.8076363129515656  0.5974615778694243  1.0000
  C   C11       1.0  0.8479693811183041  0.2736895285019969  0.33928818919052617  1.0000
  C   C12       1.0  0.15203216686190754  0.7263114290886463  0.6607126256963483  1.0000
  C   C13       1.0  0.6684887675876041  0.27209502179687917  0.13172212104044687  1.0000
  C   C14       1.0  0.33151278039260024  0.727905935793764  0.8682786938464346  1.0000
  C   C15       1.0  0.6304711564377924  0.6405728057689685  0.16966813012906096  1.0000
  C   C16       1.0  0.3695292137486206  0.3594257280250588  0.8303315166006938  1.0000
  C   C17       1.0  0.6750526467938301  0.8032323791048767  0.16061510720512465  1.0000
  C   C18       1.0  0.3249477782959573  0.19676858134408082  0.8393837811015956  1.0000
  C   C19       1.0  0.79008263232123  0.8759577253670017  0.09893147879563458  1.0000
  C   C20       1.0  0.20991547255567874  0.12404080503328171  0.9010668467801749  1.0000
  C   C21       1.0  0.8616822836030877  0.7911184517030918  0.04976674672636248  1.0000
  C   C22       1.0  0.13831759121929818  0.20888371591050967  0.9502329090840643  1.0000
  C   C23       1.0  0.8206273625871887  0.6307781546434441  0.05903288571868612  1.0000
  C   C24       1.0  0.17937419841211974  0.36922280902078336  0.9409662411639346  1.0000
  C   C25       1.0  0.7014363114377672  0.5568506575274199  0.11925089605393413  1.0000
  C   C26       1.0  0.2985629163295656  0.44314787001454903  0.8807493561020364  1.0000
  C   C27       1.0  0.6608739563359975  0.7934830769953719  0.6001303301803843  1.0000
  C   C28       1.0  0.33912704788636466  0.2065190907967036  0.39987040820808056  1.0000
  C   C29       1.0  0.7919108879015652  0.8781129108191408  0.712939287351375  1.0000
  C   C30       1.0  0.2080889804112687  0.1218892537576721  0.2870612124611752  1.0000
  N   N1        1.0  0.8243576398824999  0.30012392087725454  0.2236962527206287  1.0000
  N   N2        1.0  0.1756433224555849  0.6998758263334821  0.776303556086624  1.0000
  N   N3        1.0  0.9772401122136642  0.3909877125006034  0.20633351171136377  1.0000
  N   N4        1.0  0.022761435766547156  0.6090132450900326  0.7936673031755105  1.0000
  N   N5        1.0  0.09880267747377758  0.4221052314661691  0.3062914765278748  1.0000
  N   N6        1.0  0.9011983267485845  0.5778969363259137  0.69370926186059  1.0000
  N   N7        1.0  0.6291432148721584  0.40506737931089987  0.14777329926498334  1.0000
  N   N8        1.0  0.37085774095637447  0.594932364863041  0.8522273535443997  1.0000
  N   N9        1.0  0.5238939886874334  0.39579673562168693  0.21222012297869236  1.0000
  N   N10       1.0  0.4761058312315781  0.6042030053369842  0.7877802912547763  1.0000
  N   N11       1.0  0.5230545477226086  0.5353101949073391  0.22496593290572514  1.0000
  N   N12       1.0  0.4769452721964029  0.4646895460513321  0.7750344813277436  1.0000
  N   N13       1.0  0.3150932940214233  0.8286718318891175  0.16356612296058154  1.0000
  N   N14       1.0  0.6849071180492603  0.17132912248625592  0.8364344533503854  1.0000
  N   N15       1.0  0.555470085615333  0.7263230906621344  0.508766648755376  1.0000
  N   N16       1.0  0.44452746248462194  0.2736766438660041  0.4912332883262706  1.0000
  O   O1        1.0  0.25227388093808406  0.6836180536211246  0.11233442322873799  1.0000
  O   O2        1.0  0.7477265311325992  0.3163829007542489  0.8876661530822288  1.0000
  O   O3        1.0  0.3834785986531841  0.8661641877167982  0.2767856336726665  1.0000
  O   O4        1.0  0.6165218069079472  0.13383676362177974  0.7232157866404235  1.0000
  O   O5        1.0  0.3135354383578955  0.9383981079474634  0.10343659171201113  1.0000
  O   O6        1.0  0.6864632456515878  0.0616016297959447  0.8965635839455429  1.0000
