data_image0
_chemical_formula_structural       Zn2H38C44N4O8
_chemical_formula_sum              "Zn2 H38 C44 N4 O8"
_cell_length_a       9.552955868999783
_cell_length_b       10.52524598757297
_cell_length_c       11.025434578607705
_cell_angle_alpha    99.03645706835806
_cell_angle_beta     102.46004635302995
_cell_angle_gamma    114.24778394030021

_space_group_name_H-M_alt    "P 1"
_space_group_IT_number       1

loop_
  _space_group_symop_operation_xyz
  'x, y, z'

loop_
  _atom_site_type_symbol
  _atom_site_label
  _atom_site_symmetry_multiplicity
  _atom_site_fract_x
  _atom_site_fract_y
  _atom_site_fract_z
  _atom_site_occupancy
  Zn  Zn1       1.0  0.0331786023181166  0.049157373317434916  0.3815251183896961  1.0000
  Zn  Zn2       1.0  0.966821365662355  0.9508439067884142  0.6184757810229229  1.0000
  H   H1        1.0  0.8798849197287664  0.5607444682402942  0.22235977442847596  1.0000
  H   H2        1.0  0.12011509424563373  0.43925898175136535  0.7776414527165584  1.0000
  H   H3        1.0  0.8727658663652773  0.5171662269521845  0.3708916387597156  1.0000
  H   H4        1.0  0.1272335430285664  0.48283396904966475  0.6291089980382762  1.0000
  H   H5        1.0  0.05260078724244719  0.41042455116875953  0.39835952641129774  1.0000
  H   H6        1.0  0.9473996989689224  0.5895756483589523  0.6016422166975772  1.0000
  H   H7        1.0  0.3269877226660043  0.43647449419077594  0.43844890885578286  1.0000
  H   H8        1.0  0.6730138178101653  0.5635256880481164  0.5615503053077331  1.0000
  H   H9        1.0  0.2129808259579846  0.8271247309574647  0.3213330530143921  1.0000
  H   H10       1.0  0.7870180304874096  0.17287438614405207  0.6786682299830389  1.0000
  H   H11       1.0  0.5492830386532785  0.6580731062147652  0.4215113637379702  1.0000
  H   H12       1.0  0.45071686641872316  0.3419259883942729  0.5784864815000502  1.0000
  H   H13       1.0  0.49619130655165133  0.8828250478535012  0.24503828384185772  1.0000
  H   H14       1.0  0.5038086097967138  0.11717405716287028  0.7549613790242801  1.0000
  H   H15       1.0  0.5037414405081221  0.986276000137231  0.3900790006610535  1.0000
  H   H16       1.0  0.4962568864300038  0.013724187135096601  0.609919621012011  1.0000
  H   H17       1.0  0.3181665383573105  0.077790487365256  0.3016424567633393  1.0000
  H   H18       1.0  0.6818323068117066  0.9222086193289272  0.6983570086059814  1.0000
  H   H19       1.0  0.4285507435119412  0.1872738660032027  0.2140251680640048  1.0000
  H   H20       1.0  0.5714486546055324  0.812726319591313  0.785973651105877  1.0000
  H   H21       1.0  0.2906051897281117  0.0011940736331226  0.1363402097390463  1.0000
  H   H22       1.0  0.7093947266202603  0.9988050313832488  0.8636594531270916  1.0000
  H   H23       1.0  0.16370982509764787  0.16894435042048173  0.874900516203894  1.0000
  H   H24       1.0  0.8362906441991668  0.8310558334962225  0.12509850046280493  1.0000
  H   H25       1.0  0.3048493332787173  0.13481316896039172  0.9774611719621118  1.0000
  H   H26       1.0  0.6951511416562893  0.8651870201599794  0.02253875351864572  1.0000
  H   H27       1.0  0.3937860378746122  0.45412757594125713  0.18432256497021635  1.0000
  H   H28       1.0  0.6062138841119447  0.5458715342787811  0.8156780067099729  1.0000
  H   H29       1.0  0.007235776988657971  0.3144026837286802  0.8941655832549387  1.0000
  H   H30       1.0  0.992763062542181  0.6855964177618362  0.10583297330032342  1.0000
  H   H31       1.0  0.7715255209267938  0.3441181735865301  0.9287011136330818  1.0000
  H   H32       1.0  0.22847388282885814  0.6558820172116527  0.07129861435085161  1.0000
  H   H33       1.0  0.6631564527701457  0.2662223097633003  0.10387677101775242  1.0000
  H   H34       1.0  0.33684402216486103  0.7337778793570705  0.8961231544630051  1.0000
  H   H35       1.0  0.7887316737716715  0.1578350113626286  0.252181693002548  1.0000
  H   H36       1.0  0.21126935974996286  0.8421662618617418  0.7478184950928294  1.0000
  H   H37       1.0  0.3911557442806596  0.3038669035634598  0.7969084470464478  1.0000
  H   H38       1.0  0.608844736292525  0.6961332907605778  0.20309238724836118  1.0000
  C   C1        1.0  0.9414481389422914  0.5986525015608565  0.32724792701572614  1.0000
  C   C2        1.0  0.05855127608973725  0.4013476996446599  0.6727536185963245  1.0000
  C   C3        1.0  0.94460155263539  0.7421567470933468  0.3810564567119669  1.0000
  C   C4        1.0  0.05540111629041889  0.2578456137608782  0.618945100308906  1.0000
  C   C5        1.0  0.11218632071027196  0.616451648672374  0.3546070068823893  1.0000
  C   C6        1.0  0.8878147184495544  0.3835496297556631  0.6453940900270465  1.0000
  C   C7        1.0  0.14676777330428334  0.5076076486075607  0.3889517830643213  1.0000
  C   C8        1.0  0.8532321543204517  0.4923914668161516  0.6110496974299267  1.0000
  C   C9        1.0  0.3031335869904908  0.5229045118758792  0.41204463250481627  1.0000
  C   C10       1.0  0.6968663293578814  0.4770945931404926  0.5879550303613214  1.0000
  C   C11       1.0  0.2378562362302786  0.7406454709592794  0.34604745894462496  1.0000
  C   C12       1.0  0.7621437261120148  0.2593558039429027  0.6539525316539352  1.0000
  C   C13       1.0  0.39513659914914  0.7574858411014631  0.3689575532215343  1.0000
  C   C14       1.0  0.6048628046065188  0.24251434969671953  0.631042174762399  1.0000
  C   C15       1.0  0.42736984389151184  0.6468674755271949  0.402082632794162  1.0000
  C   C16       1.0  0.5726290012775052  0.3531316311669884  0.5979168325751514  1.0000
  C   C17       1.0  0.5188523874865465  0.8919211900504748  0.34900012245360296  1.0000
  C   C18       1.0  0.48114701626910505  0.10807900074770768  0.6509996055303374  1.0000
  C   C19       1.0  0.6956272073066072  0.9323880162225394  0.40788949832059973  1.0000
  C   C20       1.0  0.3043727381211312  0.06761324306864219  0.5921077658357916  1.0000
  C   C21       1.0  0.3115287564817493  0.09863196039873402  0.20691971191001807  1.0000
  C   C22       1.0  0.6884700886872676  0.901367146295449  0.7930797534592954  1.0000
  C   C23       1.0  0.18009664523547286  0.13859630182778912  0.16766903819232937  1.0000
  C   C24       1.0  0.8199011231160184  0.8614028013405388  0.8323293208661084  1.0000
  C   C25       1.0  0.9703411211546182  0.1789811867785929  0.15744123671736787  1.0000
  C   C26       1.0  0.02965935378038864  0.8210190023417783  0.8425586887633897  1.0000
  C   C27       1.0  0.029705571465456205  0.22280004049402186  0.056298786562614105  1.0000
  C   C28       1.0  0.9702943392447306  0.7771990593186828  0.9436999674894649  1.0000
  C   C29       1.0  0.25092629637518366  0.20885380452266838  0.9721125403782124  1.0000
  C   C30       1.0  0.7490741841980009  0.7911463898013693  0.027888293916603853  1.0000
  C   C31       1.0  0.3786671578143838  0.36102633489572616  0.9892565613590204  1.0000
  C   C32       1.0  0.6213327641721731  0.6389727753243122  0.010744010321175773  1.0000
  C   C33       1.0  0.440172516617963  0.47277304004530407  0.10313132468992589  1.0000
  C   C34       1.0  0.5598290294963844  0.5272271473972552  0.8968687982876486  1.0000
  C   C35       1.0  0.9609745512978802  0.2826627697248227  0.9722792947545356  1.0000
  C   C36       1.0  0.03902592363711923  0.7173374193955483  0.02772063072622194  1.0000
  C   C37       1.0  0.8283247850524234  0.29723726297194736  0.9919376221618917  1.0000
  C   C38       1.0  0.1716746187032285  0.7027629278262354  0.008062105822041659  1.0000
  C   C39       1.0  0.7668461275773594  0.2524594129348331  0.0914939022256789  1.0000
  C   C40       1.0  0.2331532761782994  0.7475407778633496  0.9085058257582614  1.0000
  C   C41       1.0  0.8360523726958744  0.1929649516189187  0.17542123390186498  1.0000
  C   C42       1.0  0.16394702542159928  0.8070352339755972  0.8245775852680166  1.0000
  C   C43       1.0  0.43954662310267156  0.3900324794450754  0.886423527490258  1.0000
  C   C44       1.0  0.560453857470513  0.6099677148789624  0.11357730680455802  1.0000
  N   N1        1.0  0.06715699734330369  0.1272386576303077  0.22536292455935575  1.0000
  N   N2        1.0  0.9328424007741701  0.872761527964208  0.7746358946105258  1.0000
  N   N3        1.0  0.1607349845025396  0.19417595466789092  0.06457108331380108  1.0000
  N   N4        1.0  0.8392654791560972  0.8058242240451465  0.9354270245388392  1.0000
  O   O1        1.0  0.9721561908679416  0.8316439123171621  0.3128474229223385  1.0000
  O   O2        1.0  0.02784268249200037  0.16835522039535528  0.6871565865172682  1.0000
  O   O3        1.0  0.9264540989378246  0.7645167515065553  0.49191220858484286  1.0000
  O   O4        1.0  0.07354639854992234  0.23548345842849028  0.5080913521521424  1.0000
  O   O5        1.0  0.7403432281375399  0.9218137703683595  0.5215428594808954  1.0000
  O   O6        1.0  0.2596566882108249  0.07818533464801192  0.4784568033852422  1.0000
  O   O7        1.0  0.7862534297060718  0.977177621511892  0.3387713652144626  1.0000
  O   O8        1.0  0.2137437969733327  0.022820413163444204  0.6612294576715242  1.0000
