data_image0
_chemical_formula_structural       Cd4H48C56S8N16O8
_chemical_formula_sum              "Cd4 H48 C56 S8 N16 O8"
_cell_length_a       8.242338732
_cell_length_b       8.741621259
_cell_length_c       22.2579
_cell_angle_alpha    90.0
_cell_angle_beta     90.0
_cell_angle_gamma    90.0

_space_group_name_H-M_alt    "P 1"
_space_group_IT_number       1

loop_
  _space_group_symop_operation_xyz
  'x, y, z'

loop_
  _atom_site_type_symbol
  _atom_site_label
  _atom_site_symmetry_multiplicity
  _atom_site_fract_x
  _atom_site_fract_y
  _atom_site_fract_z
  _atom_site_occupancy
  Cd  Cd1       1.0  0.0593751380418297  0.3223052013491525  0.6004349017652189  1.0000
  Cd  Cd2       1.0  0.4406273653738496  0.6776957985797836  0.1004340032078517  1.0000
  Cd  Cd3       1.0  0.9406347217810522  0.8222982656219884  0.8995624025626865  1.0000
  Cd  Cd4       1.0  0.5593703619702168  0.177697014544151  0.399564648956101  1.0000
  H   H1        1.0  0.005273988538135702  0.4024791163741738  0.45037806801180835  1.0000
  H   H2        1.0  0.4947139559029737  0.5975241714598738  0.9503789665691755  1.0000
  H   H3        1.0  0.9947103930792452  0.9024721806470095  0.04961878703741009  1.0000
  H   H4        1.0  0.5052777052016921  0.0975322511395973  0.5496210334308245  1.0000
  H   H5        1.0  0.8817412431479283  0.6002593620259731  0.38445945035245893  1.0000
  H   H6        1.0  0.618250494876655  0.3997519334759829  0.8844585517950918  1.0000
  H   H7        1.0  0.1182394987258064  0.1002514263698799  0.1155396510901738  1.0000
  H   H8        1.0  0.3817484457152958  0.8997530054167271  0.6155414482049082  1.0000
  H   H9        1.0  0.7108771175894475  0.8078318415739574  0.4330956649099846  1.0000
  H   H10       1.0  0.7891158336830204  0.1921771660228799  0.9330916214018359  1.0000
  H   H11       1.0  0.2891084772758178  0.3078261938229758  0.0669065814834298  1.0000
  H   H12       1.0  0.2108891731483382  0.6921736621533938  0.5669061322047425  1.0000
  H   H13       1.0  0.6683066759455303  0.7988094877492813  0.5441330943170755  1.0000
  H   H14       1.0  0.8316862753269307  0.20119265613220697  0.04412905080892669  1.0000
  H   H15       1.0  0.3316813454154968  0.2988061279034183  0.9558682535189718  1.0000
  H   H16       1.0  0.1683199447523052  0.7011902962152801  0.4558682535189717  1.0000
  H   H17       1.0  0.8136549853214634  0.8494637070159996  0.6847123942510294  1.0000
  H   H18       1.0  0.686336752703113  0.15053500500781775  0.1847141913657637  1.0000
  H   H19       1.0  0.1863488082620108  0.3494683548380451  0.8152911999784322  1.0000
  H   H20       1.0  0.31366461438459947  0.6505326450908839  0.3152862579129234  1.0000
  H   H21       1.0  0.06526060351192343  0.9372815130333478  0.7392305653273681  1.0000
  H   H22       1.0  0.4347346204164708  0.0627263506109301  0.2392364059502441  1.0000
  H   H23       1.0  0.934744403319435  0.4372907366656236  0.7607725796234133  1.0000
  H   H24       1.0  0.5652655334233574  0.5627171269786544  0.2607658404431703  1.0000
  H   H25       1.0  0.3076626771179392  0.7640196025564306  0.7415973654298041  1.0000
  H   H26       1.0  0.1923349733062167  0.2359916929455252  0.2416023074953131  1.0000
  H   H27       1.0  0.6923435429612967  0.26402653828358774  0.7584026345701957  1.0000
  H   H28       1.0  0.80766760702938  0.7359813253606902  0.2583976925046869  1.0000
  H   H29       1.0  0.2935526042634393  0.5147203095040851  0.6865189438356721  1.0000
  H   H30       1.0  0.2064462594085938  0.4852841222825148  0.1865198423930394  1.0000
  H   H31       1.0  0.7064499760721576  0.014724957326130501  0.8134788097709132  1.0000
  H   H32       1.0  0.7935623871664035  0.9852726107451204  0.3134797083282805  1.0000
  H   H33       1.0  0.521410262273605  0.385251190851207  0.6383643560264005  1.0000
  H   H34       1.0  0.9785802625030939  0.6147418014098134  0.1383630081903533  1.0000
  H   H35       1.0  0.4785898915662301  0.8852488309342801  0.861638788924381  1.0000
  H   H36       1.0  0.0214235310803801  0.11474873713697781  0.3616396874817482  1.0000
  H   H37       1.0  0.6453957029632065  0.2202531936530363  0.6298644526213195  1.0000
  H   H38       1.0  0.8545984615571387  0.7797432304656624  0.129862206227898  1.0000
  H   H39       1.0  0.354602024380867  0.7202508337361024  0.8701373444934146  1.0000
  H   H40       1.0  0.14541139826574326  0.2797455903825963  0.3701391416081492  1.0000
  H   H41       1.0  0.6211125466276215  0.3499030568100707  0.5676159925240043  1.0000
  H   H42       1.0  0.8788779781490774  0.6500887914983977  0.06761509396663709  1.0000
  H   H43       1.0  0.37887790122916  0.8499029847982554  0.93238580459073  1.0000
  H   H44       1.0  0.1211355214174432  0.1500945832730025  0.4323867031480971  1.0000
  H   H45       1.0  0.5560666879906151  0.6426428042985961  0.6120330309687816  1.0000
  H   H46       1.0  0.9439250500339682  0.357354763772662  0.1120316831327273  1.0000
  H   H47       1.0  0.4439322526013356  0.1426428763104113  0.887970113982  1.0000
  H   H48       1.0  0.056078743549505816  0.8573581236185177  0.38796696903121836  1.0000
  C   C1        1.0  0.9276250647544944  0.4909718544007191  0.4693290921425656  1.0000
  C   C2        1.0  0.572361820278559  0.5090360092435589  0.9693295414212455  1.0000
  C   C3        1.0  0.07236295660652563  0.9909637747210027  0.030669110742699995  1.0000
  C   C4        1.0  0.4276346938176303  0.009036081255373998  0.5306704585787543  1.0000
  C   C5        1.0  0.8591566338455578  0.603394935987353  0.4327879090120844  1.0000
  C   C6        1.0  0.6408314644353794  0.3966140716094841  0.9327883582907643  1.0000
  C   C7        1.0  0.1408289610197002  0.1033847124261484  0.0672125402666026  1.0000
  C   C8        1.0  0.359166262908694  0.896613999597669  0.5672125402666026  1.0000
  C   C9        1.0  0.7648326773474354  0.7164037212836617  0.4596709482925191  1.0000
  C   C10       1.0  0.7351602739250327  0.2836052863131684  0.9596682526204177  1.0000
  C   C11       1.0  0.2351541307657072  0.21639807353268734  0.040329500986167895  1.0000
  C   C12       1.0  0.2648435196584416  0.7836017824436823  0.5403303995435351  1.0000
  C   C13       1.0  0.7395643637325833  0.7113691860760551  0.5215617825581019  1.0000
  C   C14       1.0  0.760427374292  0.2886295259477548  0.021558637607320498  1.0000
  C   C15       1.0  0.2604260841242052  0.2113658262301996  0.9784404638353122  1.0000
  C   C16       1.0  0.23958127228299736  0.7886283099833875  0.47843911599926503  1.0000
  C   C17       1.0  0.8074383031798931  0.5915390116765947  0.5543982136679588  1.0000
  C   C18       1.0  0.6925522215968059  0.40845741244210376  0.0543959672745373  1.0000
  C   C19       1.0  0.19255578442053436  0.0915345078781797  0.9456017863320412  1.0000
  C   C20       1.0  0.3074503587387839  0.9084596283354003  0.4456013370533611  1.0000
  C   C21       1.0  0.780245778425986  0.5764971794919092  0.6224774125142075  1.0000
  C   C22       1.0  0.7197471728464749  0.423496956721678  0.1224765139568404  1.0000
  C   C23       1.0  0.21975316216596505  0.0764983954562766  0.8775221382071051  1.0000
  C   C24       1.0  0.2802578339848765  0.9234980286624221  0.37752168892842514  1.0000
  C   C25       1.0  0.9264397215748874  0.6394729117604783  0.6564608521019508  1.0000
  C   C26       1.0  0.5735520164496891  0.3605258002633391  0.15645950426590358  1.0000
  C   C27       1.0  0.0735628587607025  0.139475271677405  0.8435404957340963  1.0000
  C   C28       1.0  0.4264505638859006  0.860522296393853  0.34353869861936903  1.0000
  C   C29       1.0  0.9233216745210557  0.7804044350441683  0.6856257778137191  1.0000
  C   C30       1.0  0.5766724899992894  0.2195931330270895  0.1856271256497664  1.0000
  C   C31       1.0  0.0766809058145341  0.28041022681877337  0.8143778164157424  1.0000
  C   C32       1.0  0.4233313035841847  0.7195907731101556  0.3143728743502336  1.0000
  C   C33       1.0  0.062318477400815205  0.8275341364797981  0.7162081777705892  1.0000
  C   C34       1.0  0.4376791730233407  0.17247258321192044  0.21621267055741808  1.0000
  C   C35       1.0  0.9376828896868974  0.3275410722069552  0.7837940686228249  1.0000
  C   C36       1.0  0.5623209808164944  0.6724633595796448  0.2837886772786291  1.0000
  C   C37       1.0  0.19781764047986175  0.7321685314849873  0.717609477983096  1.0000
  C   C38       1.0  0.3021800099442942  0.267833612396501  0.21761262293387768  1.0000
  C   C39       1.0  0.8021861531036123  0.23217775511727007  0.7823914205742709  1.0000
  C   C40       1.0  0.6978225703912957  0.7678255327167776  0.2823873770661223  1.0000
  C   C41       1.0  0.191358308762112  0.5940728665924908  0.6866550752766399  1.0000
  C   C42       1.0  0.3086344886705136  0.405931565194109  0.18665777094874159  1.0000
  C   C43       1.0  0.8086442715734778  0.0940763704619769  0.81334492472336  1.0000
  C   C44       1.0  0.6913693049129606  0.9059234855143925  0.3133426783299385  1.0000
  C   C45       1.0  0.6312844168608223  0.3402217863120072  0.61680571841908  1.0000
  C   C46       1.0  0.8687097476595158  0.6597734938541322  0.1168034720256657  1.0000
  C   C47       1.0  0.3687120972353668  0.8402194263950804  0.8831965279743343  1.0000
  C   C48       1.0  0.1313013254112434  0.1597781416761777  0.38319877436775573  1.0000
  C   C49       1.0  0.322680259387333  0.1354805893449864  0.6892748192776494  1.0000
  C   C50       1.0  0.17732709701986957  0.8645158347737122  0.18927257288423496  1.0000
  C   C51       1.0  0.6773259606919027  0.6354805173331783  0.8107233836076161  1.0000
  C   C52       1.0  0.8226706303241968  0.3645136188804088  0.310727427115765  1.0000
  C   C53       1.0  0.34210557120791674  0.40091304532231925  0.4918788385247481  1.0000
  C   C54       1.0  0.1578884394725932  0.5990856667014981  0.9918797370821151  1.0000
  C   C55       1.0  0.6578945826319114  0.9009015337849249  0.0081166686884231  1.0000
  C   C56       1.0  0.8421105011193577  0.0990994661440041  0.5081211614752518  1.0000
  S   S1        1.0  0.4738218273944171  0.03486767396679369  0.7130097628257842  1.0000
  S   S2        1.0  0.0261794627733849  0.9651253182942341  0.2130066178750027  1.0000
  S   S3        1.0  0.5261807529411797  0.5348733217177679  0.7869906864529028  1.0000
  S   S4        1.0  0.9738231175622118  0.465117382638141  0.286996976354466  1.0000
  S   S5        1.0  0.44170472949205936  0.444258551696194  0.4308011986755247  1.0000
  S   S6        1.0  0.058302626915136116  0.5557401603276231  0.9307998508394775  1.0000
  S   S7        1.0  0.558303917082938  0.9442493280639183  0.0691943085376394  1.0000
  S   S8        1.0  0.9416987401725694  0.0557516718650106  0.5691979027671081  1.0000
  N   N1        1.0  0.9030325302092876  0.484968391376519  0.5288976048953415  1.0000
  N   N2        1.0  0.5969604210631729  0.5150337525049692  0.028897155616654395  1.0000
  N   N3        1.0  0.09696155739113273  0.9849591677442432  0.971101496547291  1.0000
  N   N4        1.0  0.4030397327766622  0.0150361124219032  0.4711023951046584  1.0000
  N   N5        1.0  0.0590002444466364  0.5497504247341141  0.6559868630913072  1.0000
  N   N6        1.0  0.4409925529859891  0.4502482872897033  0.1559855152552601  1.0000
  N   N7        1.0  0.9410023358889532  0.0497516406984815  0.8440135861873728  1.0000
  N   N8        1.0  0.5590136670932466  0.9502436394676578  0.3440126876300127  1.0000
  N   N9        1.0  0.20977298509794207  0.2081204328232502  0.6718212409975804  1.0000
  N   N10       1.0  0.2902367978050222  0.7918828550107974  0.1718230381123078  1.0000
  N   N11       1.0  0.7902380879728172  0.7081157850012048  0.8281751647729578  1.0000
  N   N12       1.0  0.7097487970602361  0.2918817830700533  0.3281751647729577  1.0000
  N   N13       1.0  0.2705567039294579  0.375167249052744  0.5367887356848584  1.0000
  N   N14       1.0  0.2294348802552975  0.624840614591534  0.0367900835209056  1.0000
  N   N15       1.0  0.7294446631582545  0.8751454419423297  0.9632072208069928  1.0000
  N   N16       1.0  0.7705592073451302  0.1248589898442773  0.4632108150364616  1.0000
  O   O1        1.0  0.772967504388653  0.41769254144255535  0.6389129252984346  1.0000
  O   O2        1.0  0.7270242336359234  0.582300450818465  0.1389124760197475  1.0000
  O   O3        1.0  0.2270302229554133  0.9176924694307473  0.8610866254228852  1.0000
  O   O4        1.0  0.2729819864433126  0.0823039546879585  0.3610866254228853  1.0000
  O   O5        1.0  0.6433586597712309  0.6588880745742713  0.6409045777005032  1.0000
  O   O6        1.0  0.856634291501237  0.3411106374495461  0.1409036791431362  1.0000
  O   O7        1.0  0.3566414940686045  0.1588858586809678  0.8590972194142308  1.0000
  O   O8        1.0  0.143369502082237  0.8411117093902902  0.3590954222994966  1.0000
