data_image0
_chemical_formula_structural       Cu2H24C28N6O12
_chemical_formula_sum              "Cu2 H24 C28 N6 O12"
_cell_length_a       6.843971633934038
_cell_length_b       10.367790532145143
_cell_length_c       10.867728306887354
_cell_angle_alpha    68.9889530074904
_cell_angle_beta     81.05791304176472
_cell_angle_gamma    75.45889270215578

_space_group_name_H-M_alt    "P 1"
_space_group_IT_number       1

loop_
  _space_group_symop_operation_xyz
  'x, y, z'

loop_
  _atom_site_type_symbol
  _atom_site_label
  _atom_site_symmetry_multiplicity
  _atom_site_fract_x
  _atom_site_fract_y
  _atom_site_fract_z
  _atom_site_occupancy
  Cu  Cu1       1.0  0.14755961546531182  0.0847990536356633  0.3650986532814997  1.0000
  Cu  Cu2       1.0  0.8524416739169568  0.9152020073854175  0.6349014026159593  1.0000
  H   H1        1.0  0.17294629854987423  0.0845918546368551  0.5829756321073489  1.0000
  H   H2        1.0  0.8270535110857083  0.9154092084745642  0.4170245666275392  1.0000
  H   H3        1.0  0.31782130760685606  0.9278883057528373  0.5947854034767346  1.0000
  H   H4        1.0  0.6821788197085893  0.07211169324526169  0.4052160422530661  1.0000
  H   H5        1.0  0.37141230243791773  0.7633784749527379  0.4903366282060304  1.0000
  H   H6        1.0  0.6285993451711533  0.23662257143600834  0.509662427829447  1.0000
  H   H7        1.0  0.5172043015439485  0.5726347855912266  0.3926401696904094  1.0000
  H   H8        1.0  0.4828061839989389  0.4273652126197263  0.6073584311718533  1.0000
  H   H9        1.0  0.5092787915789645  0.6225952532306991  0.15183911226471747  1.0000
  H   H10       1.0  0.4907257749771788  0.3774047533415866  0.8481600599472471  1.0000
  H   H11       1.0  0.2562043186201493  0.053356583119551694  0.7971903839578686  1.0000
  H   H12       1.0  0.7437931668824262  0.9466423697910927  0.2028107494361465  1.0000
  H   H13       1.0  0.4271596689259596  0.8107052084971541  0.9253917878373128  1.0000
  H   H14       1.0  0.5728416204566287  0.18929585944652413  0.0746073455573679  1.0000
  H   H15       1.0  0.04370995435920832  0.2933115281626328  0.7960880852717978  1.0000
  H   H16       1.0  0.9562860513963686  0.7066874199157523  0.20391411346242452  1.0000
  H   H17       1.0  0.8651398846266078  0.45059844428201484  0.9291048528133528  1.0000
  H   H18       1.0  0.13485316163559707  0.5494005079770332  0.07089763159571304  1.0000
  H   H19       1.0  0.9054665630341958  0.36251700174661744  0.17464588173996273  1.0000
  H   H20       1.0  0.09452711858805435  0.6374798292084023  0.8253581741561575  1.0000
  H   H21       1.0  0.11820540154997164  0.5165102907957858  0.36427726920206277  1.0000
  H   H22       1.0  0.8817937727261905  0.4834929074648428  0.6357195130402077  1.0000
  H   H23       1.0  0.8603732476654075  0.512086901235584  0.39585662238154373  1.0000
  H   H24       1.0  0.13962539990399145  0.48791311369803475  0.6041431211801224  1.0000
  C   C1        1.0  0.3660649245961666  0.7847621249822934  0.38487846071897985  1.0000
  C   C2        1.0  0.6339396419599764  0.21523788158999219  0.6151207114929846  1.0000
  C   C3        1.0  0.4495568050087045  0.6776616881096017  0.3292041616479223  1.0000
  C   C4        1.0  0.5504495589743142  0.32233725918163003  0.6707951922187546  1.0000
  C   C5        1.0  0.4456890403898016  0.7055364442982678  0.19521795434761197  1.0000
  C   C6        1.0  0.5543166882325253  0.29446461045181127  0.8047816730375672  1.0000
  C   C7        1.0  0.3557985056060319  0.8427777392742111  0.11554154030108083  1.0000
  C   C8        1.0  0.644201939389923  0.15722120945576273  0.8844593074180762  1.0000
  C   C9        1.0  0.26800903209502297  0.9424468279490907  0.18017953684057636  1.0000
  C   C10       1.0  0.7319899331539262  0.0575521159486243  0.819822376218788  1.0000
  C   C11       1.0  0.16636370224675553  0.08103039237354888  0.1065284041227272  1.0000
  C   C12       1.0  0.833630823762448  0.9189685647177585  0.8934730149461316  1.0000
  C   C13       1.0  0.1590194365719384  0.121247895188759  0.9682375740460358  1.0000
  C   C14       1.0  0.8409768868638209  0.8787499956989038  0.031764949180313785  1.0000
  C   C15       1.0  0.25734007675436743  0.020383769675824195  0.9042145348731337  1.0000
  C   C16       1.0  0.7426559290015294  0.9796151853251444  0.09578674135830315  1.0000
  C   C17       1.0  0.35115770539711394  0.8864535249866492  0.9749547749563303  1.0000
  C   C18       1.0  0.6488394624255989  0.11354649203730817  0.025045111442764816  1.0000
  C   C19       1.0  0.05217499229149073  0.2592151342265153  0.9028423865869682  1.0000
  C   C20       1.0  0.9478239729577783  0.7407838165937901  0.09715860396961774  1.0000
  C   C21       1.0  0.9568928630766679  0.3460572030238466  0.9757388732050032  1.0000
  C   C22       1.0  0.04310018318521718  0.6539417423126108  0.024264533706848126  1.0000
  C   C23       1.0  0.9748879274734819  0.2977191919834468  0.11309035615379769  1.0000
  C   C24       1.0  0.025103956722219403  0.7022787051752173  0.8869125955848319  1.0000
  C   C25       1.0  0.06160553215289611  0.3146015629780408  0.47707816656210156  1.0000
  C   C26       1.0  0.938395757230012  0.6853995118882279  0.5229200443298011  1.0000
  C   C27       1.0  0.0048536068178179825  0.4741881988929251  0.442329480637042  1.0000
  C   C28       1.0  0.9951476825657223  0.5258128898185248  0.5576668852492971  1.0000
  N   N1        1.0  0.27583203024158826  0.9136826991759361  0.311879919600365  1.0000
  N   N2        1.0  0.7241725363142351  0.08631730047375898  0.6881201751143776  1.0000
  N   N3        1.0  0.07884957641741863  0.16916026537893455  0.17575493289128022  1.0000
  N   N4        1.0  0.9211479090851639  0.8308386875317096  0.824246200502735  1.0000
  N   N5        1.0  0.48087041743393394  0.29960778488956646  0.2597153728717601  1.0000
  N   N6        1.0  0.5191308719483273  0.7003932761315141  0.7402846830257062  1.0000
  O   O1        1.0  0.18981619144386744  0.9955933529239898  0.5574081272871823  1.0000
  O   O2        1.0  0.8101818207645269  0.004408762545885698  0.44259281229577135  1.0000
  O   O3        1.0  0.04008707430380553  0.2718830968362909  0.38346129530689405  1.0000
  O   O4        1.0  0.9599145327592852  0.7281169208392485  0.6165372400771358  1.0000
  O   O5        1.0  0.12526835923512183  0.2359801867599671  0.5885847723362686  1.0000
  O   O6        1.0  0.8747340922142897  0.7640219432066857  0.4114129712260706  1.0000
  O   O7        1.0  0.49249908423433203  0.16437952778759518  0.31437491886438806  1.0000
  O   O8        1.0  0.5075022051469844  0.8356215124657139  0.6856279045414126  1.0000
  O   O9        1.0  0.551004006929837  0.3634980416651813  0.3160828373477145  1.0000
  O   O10       1.0  0.44899696477224904  0.6365040765466218  0.6839168940576099  1.0000
  O   O11       1.0  0.40117745559618356  0.3626778752325207  0.15171541776015837  1.0000
  O   O12       1.0  0.5988208742927128  0.63732318996923  0.8482849238121517  1.0000
