data_image0
_chemical_formula_structural       Zn2H34C48N2Cl2O8
_chemical_formula_sum              "Zn2 H34 C48 N2 Cl2 O8"
_cell_length_a       16.558427212243352
_cell_length_b       17.947090711028352
_cell_length_c       17.951027327985216
_cell_angle_alpha    90.52774564775872
_cell_angle_beta     95.26251679040789
_cell_angle_gamma    92.30533654812164

_space_group_name_H-M_alt    "P 1"
_space_group_IT_number       1

loop_
  _space_group_symop_operation_xyz
  'x, y, z'

loop_
  _atom_site_type_symbol
  _atom_site_label
  _atom_site_symmetry_multiplicity
  _atom_site_fract_x
  _atom_site_fract_y
  _atom_site_fract_z
  _atom_site_occupancy
  Zn  Zn1       1.0  0.5850852907317048  0.5030986009034563  0.5032665229566857  1.0000
  Zn  Zn2       1.0  0.41490272227227354  0.49691898900505277  0.49670887751788223  1.0000
  H   H1        1.0  0.28855980947988497  0.5739203064531465  0.5734504643407377  1.0000
  H   H2        1.0  0.14347015943651092  0.5734835918481734  0.572607454735518  1.0000
  H   H3        1.0  0.1323773931110424  0.3998574707400449  0.4012575801392727  1.0000
  H   H4        1.0  0.27846673076653866  0.40919129656007397  0.4104229305093766  1.0000
  H   H5        1.0  0.8676125371855364  0.6001329205510187  0.598751252358035  1.0000
  H   H6        1.0  0.8565237171645207  0.42642570842860283  0.4274881549296835  1.0000
  H   H7        1.0  0.7114294466181474  0.4260389618271886  0.42658766035594897  1.0000
  H   H8        1.0  0.7215202240258948  0.5908152058013911  0.5895712587394755  1.0000
  H   H9        1.0  0.3842443066991165  0.4958841239316455  0.7350676421830542  1.0000
  H   H10       1.0  0.38903419098428327  0.4955999531791875  0.8683599127025372  1.0000
  H   H11       1.0  0.6518276270474885  0.5054153039904603  0.8796395309405651  1.0000
  H   H12       1.0  0.6434372807655534  0.5055177802334467  0.7458577058398388  1.0000
  H   H13       1.0  0.3481569223114747  0.49453369093303223  0.12033574714675409  1.0000
  H   H14       1.0  0.6109516005015011  0.5044806718547858  0.13162401343800664  1.0000
  H   H15       1.0  0.6157364526000392  0.5041485238774964  0.26491336079384087  1.0000
  H   H16       1.0  0.3565478940764563  0.49446077435560903  0.2541189062207678  1.0000
  H   H17       1.0  0.6298912557352664  0.26560014482849675  0.5051377212619456  1.0000
  H   H18       1.0  0.6285105494752088  0.12562396628725736  0.5052231134377863  1.0000
  H   H19       1.0  0.3699066114265861  0.2582007390328938  0.495637887147488  1.0000
  H   H20       1.0  0.6301019942255051  0.7417996214922693  0.5044951299412543  1.0000
  H   H21       1.0  0.3701314600777437  0.7344604421736702  0.4951427775877804  1.0000
  H   H22       1.0  0.3715466247536198  0.874433060754839  0.4951298997082174  1.0000
  H   H23       1.0  0.9531836599167602  0.3781793968729941  0.4491702643849889  1.0000
  H   H24       1.0  0.03346450154397469  0.39292803320982717  0.39383683819376347  1.0000
  H   H25       1.0  0.9489291465245913  0.44762862596864034  0.3786542451620889  1.0000
  H   H26       1.0  0.05092399335813979  0.5524552095228541  0.6213820414780072  1.0000
  H   H27       1.0  0.9665094858050693  0.6072795193312429  0.6059412517553964  1.0000
  H   H28       1.0  0.0469349986304763  0.6217724676016941  0.5507366550931536  1.0000
  H   H29       1.0  0.6313673311475511  0.5545100098688849  0.04559567105680877  1.0000
  H   H30       1.0  0.6627812698814636  0.5058012091701156  0.9694315069118885  1.0000
  H   H31       1.0  0.631171846365575  0.45528708614761365  0.04495174724259239  1.0000
  H   H32       1.0  0.36869865316421624  0.5446302970746969  0.9551491226065987  1.0000
  H   H33       1.0  0.33720384915903867  0.49382659900381737  0.03054255964518399  1.0000
  H   H34       1.0  0.3687269447267312  0.44541038967013674  0.9542611099425355  1.0000
  C   C1        1.0  0.5088408828086556  0.5015526593357577  0.6464678708160817  1.0000
  C   C2        1.0  0.49969105822806636  0.6465156959507324  0.5007306452185887  1.0000
  C   C3        1.0  0.49114086334202506  0.49843091245543286  0.353510709355234  1.0000
  C   C4        1.0  0.5002985251942532  0.3535094364248009  0.49932570593070835  1.0000
  C   C5        1.0  0.25082333453902095  0.5359681996655109  0.5358342883552749  1.0000
  C   C6        1.0  0.16675698816835896  0.5348267358014596  0.5345217314744131  1.0000
  C   C7        1.0  0.11610535798070741  0.4859873257604902  0.4862187831910062  1.0000
  C   C8        1.0  0.16111495666824277  0.4404779666137982  0.44131126706162144  1.0000
  C   C9        1.0  0.24524254544383692  0.44468294588232726  0.44554309367953226  1.0000
  C   C10       1.0  0.025049441694505993  0.47927628691070345  0.47948393009917095  1.0000
  C   C11       1.0  0.9749364665358442  0.5207490840166995  0.5204857664934079  1.0000
  C   C12       1.0  0.8388723300919381  0.5595218671212263  0.5586890402330551  1.0000
  C   C13       1.0  0.8838849165927841  0.5140114088714468  0.5137839976461436  1.0000
  C   C14       1.0  0.8332310807310108  0.46513310081210324  0.465520196043613  1.0000
  C   C15       1.0  0.7491653966311629  0.464007749986223  0.4641910737875462  1.0000
  C   C16       1.0  0.754745414890948  0.5553185486038499  0.5544533801734557  1.0000
  C   C17       1.0  0.513194842328872  0.501255583573247  0.7300194944576076  1.0000
  C   C18       1.0  0.4431302944388236  0.49830167361656663  0.7677456048137328  1.0000
  C   C19       1.0  0.446901028567062  0.49809834430915595  0.8454801637619553  1.0000
  C   C20       1.0  0.521287354226544  0.500799869490656  0.8922853442257972  1.0000
  C   C21       1.0  0.5910902487305661  0.5034402273701274  0.8512603964974231  1.0000
  C   C22       1.0  0.587595936691848  0.5036386528438185  0.7736816577757606  1.0000
  C   C23       1.0  0.53115540694472  0.5010980387718786  0.9763734872312213  1.0000
  C   C24       1.0  0.4688319022109866  0.498815279870854  0.02360293549899241  1.0000
  C   C25       1.0  0.4088941155391552  0.4965043100585189  0.1487159549516335  1.0000
  C   C26       1.0  0.4786997390162142  0.49915192847075923  0.1076923921116517  1.0000
  C   C27       1.0  0.5530834171193745  0.5019209206777333  0.15449828840372953  1.0000
  C   C28       1.0  0.556853617685647  0.5017047685923044  0.23223384407371842  1.0000
  C   C29       1.0  0.48678937572244513  0.49872910623071914  0.2699581859266828  1.0000
  C   C30       1.0  0.41238853867398717  0.49633766934526563  0.22629488278984405  1.0000
  C   C31       1.0  0.5000490432954762  0.26985013054259344  0.4998493290629894  1.0000
  C   C32       1.0  0.5730694282059828  0.23254624665051438  0.5028146597971456  1.0000
  C   C33       1.0  0.5721953680764926  0.15525594873849258  0.5029774666094368  1.0000
  C   C34       1.0  0.49833088779875817  0.11245088102030107  0.5001737786319038  1.0000
  C   C35       1.0  0.42534059585327816  0.15127382880087473  0.4975365475781217  1.0000
  C   C36       1.0  0.42621265849737705  0.22871932759199598  0.49742681546274525  1.0000
  C   C37       1.0  0.4986435691197997  0.033938186118732  0.5001214877029128  1.0000
  C   C38       1.0  0.5014172916299415  0.9660922559828501  0.5001236128363401  1.0000
  C   C39       1.0  0.5017183765155694  0.8875778445579667  0.5000669937743893  1.0000
  C   C40       1.0  0.5746993042244597  0.848734171381437  0.5026843789568999  1.0000
  C   C41       1.0  0.5738086285384584  0.7712935406307793  0.5027647183586978  1.0000
  C   C42       1.0  0.4999650456168965  0.7301793948315377  0.5003272092156121  1.0000
  C   C43       1.0  0.4269568669550736  0.7674986529813165  0.4974426544308839  1.0000
  C   C44       1.0  0.42785093301198873  0.8447880797312164  0.49733444853154646  1.0000
  C   C45       1.0  0.9886492856854188  0.421769507110234  0.4225786468674498  1.0000
  C   C46       1.0  0.011335299354357203  0.5782975103951741  0.5773432654719811  1.0000
  C   C47       1.0  0.6183342932809097  0.5043295421596666  0.010369343196607912  1.0000
  C   C48       1.0  0.3816504824953526  0.4955229827744459  0.9896048512618946  1.0000
  N   N1        1.0  0.2904896863709965  0.49183013751643045  0.49225744316346004  1.0000
  N   N2        1.0  0.7094940521073453  0.5081719070402072  0.5077397926315326  1.0000
  Cl  Cl1       1.0  0.3332907666747572  0.10158216965994167  0.49428646348134464  1.0000
  Cl  Cl2       1.0  0.6667647496830255  0.898407939581546  0.5059106077935382  1.0000
  O   O1        1.0  0.5759529239179456  0.5040473483099603  0.6167387248199317  1.0000
  O   O2        1.0  0.43828070087381826  0.4991979658822812  0.6112406920556095  1.0000
  O   O3        1.0  0.4307208565057222  0.6121110587542872  0.49834738356997105  1.0000
  O   O4        1.0  0.5684303898971024  0.6167848604543307  0.5033712644351949  1.0000
  O   O5        1.0  0.424036606316008  0.4961230561176748  0.38324379545020537  1.0000
  O   O6        1.0  0.5617025425246638  0.5006322679250345  0.38873826103569786  1.0000
  O   O7        1.0  0.5692774521861921  0.38791837165349813  0.5018133421360886  1.0000
  O   O8        1.0  0.43154511113730354  0.3832250334720512  0.4964877249985235  1.0000
