data_image0
_chemical_formula_structural       Cd2H32C44N4O8
_chemical_formula_sum              "Cd2 H32 C44 N4 O8"
_cell_length_a       9.443068883042876
_cell_length_b       10.36206082172794
_cell_length_c       12.324808118405718
_cell_angle_alpha    96.63069158830322
_cell_angle_beta     95.15383276304374
_cell_angle_gamma    114.56474121209361

_space_group_name_H-M_alt    "P 1"
_space_group_IT_number       1

loop_
  _space_group_symop_operation_xyz
  'x, y, z'

loop_
  _atom_site_type_symbol
  _atom_site_label
  _atom_site_symmetry_multiplicity
  _atom_site_fract_x
  _atom_site_fract_y
  _atom_site_fract_z
  _atom_site_occupancy
  Cd  Cd1       1.0  0.7088699817907341  0.6121446207308096  0.1088049769919621  1.0000
  Cd  Cd2       1.0  0.29112852696044905  0.3878543034020865  0.8911942423857437  1.0000
  H   H1        1.0  0.8454654172900078  0.44450458612244154  0.9627481839879051  1.0000
  H   H2        1.0  0.15453410525881844  0.5554964760357705  0.03725294671118457  1.0000
  H   H3        1.0  0.9415944865677659  0.4332073567362044  0.7827267854566741  1.0000
  H   H4        1.0  0.058405592397590994  0.5667926219010866  0.21727508142909358  1.0000
  H   H5        1.0  0.9684757154667455  0.858698155467181  0.7709797632511196  1.0000
  H   H6        1.0  0.03152279319660781  0.1413007611780159  0.22902026674140788  1.0000
  H   H7        1.0  0.8734759967688746  0.8523012500407816  0.953628142276223  1.0000
  H   H8        1.0  0.12652565284982134  0.1476998205394153  0.046372319043477696  1.0000
  H   H9        1.0  0.05119649033359501  0.7381266056614207  0.6212508818867872  1.0000
  H   H10       1.0  0.9488030817329332  0.26187230396321587  0.37875002933828467  1.0000
  H   H11       1.0  0.0648855060684497  0.45670024453695396  0.6488746175382686  1.0000
  H   H12       1.0  0.9351156366514176  0.5432997570305816  0.35112488812074355  1.0000
  H   H13       1.0  0.21058722659988405  0.6720923273233127  0.5067734314786279  1.0000
  H   H14       1.0  0.7894112326335971  0.32790874934315883  0.49322600737309596  1.0000
  H   H15       1.0  0.8101192741472474  0.6251804865977064  0.494559327328531  1.0000
  H   H16       1.0  0.1898833894447591  0.374822736983198  0.5054414240829103  1.0000
  H   H17       1.0  0.6435667567009347  0.6968689092005107  0.6086395578822419  1.0000
  H   H18       1.0  0.3564353999044202  0.30313323788004  0.3913610484833254  1.0000
  H   H19       1.0  0.4357973535398401  0.6245593383694016  0.7319992509739349  1.0000
  H   H20       1.0  0.5642048029776775  0.3754428012234428  0.2680021660064682  1.0000
  H   H21       1.0  0.45534583089654745  0.23564631516107679  0.7436734583862756  1.0000
  H   H22       1.0  0.5446552621299645  0.7643558239646283  0.25632788797640416  1.0000
  H   H23       1.0  0.6620940425921874  0.2894935390270561  0.6218892972614325  1.0000
  H   H24       1.0  0.33790654371115647  0.7105075460614003  0.37810947221090163  1.0000
  H   H25       1.0  0.33231962569334433  0.0954956042179091  0.9014068892776662  1.0000
  H   H26       1.0  0.6676805030532124  0.9045022443489047  0.09859232628961222  1.0000
  H   H27       1.0  0.7350344061231624  0.1664850818203902  0.13516339319102846  1.0000
  H   H28       1.0  0.2649646592202046  0.833512773766998  0.864834941143698  1.0000
  H   H29       1.0  0.15005086638268508  0.8656512159298164  0.4345286035245266  1.0000
  H   H30       1.0  0.8499481494429801  0.1343487921911404  0.5654699502842176  1.0000
  H   H31       1.0  0.7767460739660309  0.9923539407095919  0.37185918454311206  1.0000
  H   H32       1.0  0.22325137129413256  0.0076449829561724  0.6281399642168779  1.0000
  C   C1        1.0  0.8737249402291667  0.5337295784848805  0.9169498078942622  1.0000
  C   C2        1.0  0.1262751388240204  0.4662704076401099  0.0830512483766839  1.0000
  C   C3        1.0  0.9259439060251323  0.5278324519252066  0.8155954385639744  1.0000
  C   C4        1.0  0.07405617302805469  0.47216753419978363  0.18440561770697167  1.0000
  C   C5        1.0  0.9538763316515572  0.6419381882495117  0.757009142445014  1.0000
  C   C6        1.0  0.04612374740163013  0.35806179787547887  0.2429919138259321  1.0000
  C   C7        1.0  0.9407301851414472  0.7633072390958375  0.8097762975522327  1.0000
  C   C8        1.0  0.059269893999577127  0.23669275451685934  0.19022394810388477  1.0000
  C   C9        1.0  0.8889646304896176  0.7612141174190086  0.9119842431047613  1.0000
  C   C10       1.0  0.11103595555022847  0.23878694520634267  0.08801695821205159  1.0000
  C   C11       1.0  0.9792838514675282  0.6305322028350561  0.6390177028016948  1.0000
  C   C12       1.0  0.02071729116450883  0.3694677912447801  0.3609826134721387  1.0000
  C   C13       1.0  0.029225654708348314  0.5138963137199681  0.590725663286058  1.0000
  C   C14       1.0  0.9707749314193277  0.4861047563930824  0.4092747274159264  1.0000
  C   C15       1.0  0.12620111407844095  0.5584701487664462  0.4965459720568645  1.0000
  C   C16       1.0  0.8737989651504136  0.4415298523339574  0.5034534629844245  1.0000
  C   C17       1.0  0.8175485263101837  0.5531131547233061  0.5513707541780946  1.0000
  C   C18       1.0  0.18244998235316956  0.4468857619218909  0.44862927581444006  1.0000
  C   C19       1.0  0.674204539135623  0.5006335861063105  0.6063767900988281  1.0000
  C   C20       1.0  0.32579660340858396  0.4993664004858188  0.39362433678983416  1.0000
  C   C21       1.0  0.6043759559639454  0.5928223645972039  0.6361609730416546  1.0000
  C   C22       1.0  0.39562518658026136  0.4071776219949258  0.3638401538470077  1.0000
  C   C23       1.0  0.48956126875948064  0.5539641820417741  0.7045732463288772  1.0000
  C   C24       1.0  0.5104398243548616  0.44603796457163736  0.2954272894189812  1.0000
  C   C25       1.0  0.49975922028519904  0.33621727157364495  0.710937059192254  1.0000
  C   C26       1.0  0.5002381754572697  0.6637838046256876  0.28906230904174623  1.0000
  C   C27       1.0  0.6147624536249764  0.3672633723096155  0.6423706599592547  1.0000
  C   C28       1.0  0.38523549844618543  0.6327366128810965  0.35763025507625196  1.0000
  C   C29       1.0  0.5821862979815151  0.30537263396444553  0.04413864386109619  1.0000
  C   C30       1.0  0.4178111967963503  0.6946241371677431  0.9558602854248759  1.0000
  C   C31       1.0  0.5381000175535107  0.14733040546774126  0.0214183744764966  1.0000
  C   C32       1.0  0.4619016816707102  0.8526685200665725  0.9785810567543648  1.0000
  C   C33       1.0  0.40554235722525084  0.05379678088253569  0.9446882101941012  1.0000
  C   C34       1.0  0.5944551374647774  0.9461999827619467  0.05531152970669242  1.0000
  C   C35       1.0  0.6319148606426239  0.0924288697326077  0.0764114830937856  1.0000
  C   C36       1.0  0.3680841551830483  0.9075711383883487  0.9235870707149658  1.0000
  C   C37       1.0  0.9096940150850515  0.8299126374969463  0.27967119019840675  1.0000
  C   C38       1.0  0.090307127722653  0.17008737155829579  0.7203275048457769  1.0000
  C   C39       1.0  0.9602541963725387  0.9219457716215514  0.3921581644782249  1.0000
  C   C40       1.0  0.03974431220297699  0.0780531375359459  0.607842676129131  1.0000
  C   C41       1.0  0.08605632570547772  0.9258934325013185  0.46417369071871645  1.0000
  C   C42       1.0  0.9139442606856958  0.0741076600748372  0.5358242681387891  1.0000
  C   C43       1.0  0.87445858897933  0.9967369385407853  0.42889055191644576  1.0000
  C   C44       1.0  0.1255373354965243  0.003258770599302401  0.5711065404762863  1.0000
  N   N1        1.0  0.8511730630783491  0.6463143754435522  0.9636188633327478  1.0000
  N   N2        1.0  0.14882752296149704  0.3536866871817921  0.036382337984065295  1.0000
  N   N3        1.0  0.44032271232241277  0.4289924732456782  0.7439649280732537  1.0000
  N   N4        1.0  0.5596783807919224  0.5710096733677332  0.25603560767460454  1.0000
  O   O1        1.0  0.5018009528235582  0.3581150066668641  0.9920879345564797  1.0000
  O   O2        1.0  0.49819547846328777  0.6418817639981784  0.007910924111769215  1.0000
  O   O3        1.0  0.7038196502518872  0.3845506808121257  0.11581228699166958  1.0000
  O   O4        1.0  0.2961799219024712  0.6154482363002103  0.884187813618581  1.0000
  O   O5        1.0  0.9506453899583178  0.7282194106421683  0.26204024181353697  1.0000
  O   O6        1.0  0.0493583868180707  0.2717816758477056  0.7379587395119527  1.0000
  O   O7        1.0  0.8185923198174264  0.8535430677418319  0.20925628674372374  1.0000
  O   O8        1.0  0.1814073020303013  0.1464537118123346  0.7907419731628521  1.0000
