data_image0
_chemical_formula_structural       Co3H24C28N2O18
_chemical_formula_sum              "Co3 H24 C28 N2 O18"
_cell_length_a       7.4108334213481575
_cell_length_b       8.745779352062868
_cell_length_c       12.396626330072914
_cell_angle_alpha    98.69900369440435
_cell_angle_beta     91.98280305299973
_cell_angle_gamma    102.98849565418176

_space_group_name_H-M_alt    "P 1"
_space_group_IT_number       1

loop_
  _space_group_symop_operation_xyz
  'x, y, z'

loop_
  _atom_site_type_symbol
  _atom_site_label
  _atom_site_symmetry_multiplicity
  _atom_site_fract_x
  _atom_site_fract_y
  _atom_site_fract_z
  _atom_site_occupancy
  Co  Co1       1.0  0.8330050609711962  0.5991067513831756  0.6494234631441385  1.0000
  Co  Co2       1.0  0.16716736679114771  0.40084762261717105  0.3504600950743253  1.0000
  Co  Co3       1.0  0.49981416842823023  0.9998286118150549  0.5000068673529511  1.0000
  H   H1        1.0  0.4695176534770554  0.5205670498865731  0.5965617277118013  1.0000
  H   H2        1.0  0.5306476213813127  0.4793990050762885  0.4030382048420761  1.0000
  H   H3        1.0  0.49717581806289973  0.7047622816226068  0.6316822498972099  1.0000
  H   H4        1.0  0.5029791633577433  0.2951138970586273  0.3683044982696798  1.0000
  H   H5        1.0  0.7808551141704783  0.9217917887648712  0.6053859150966403  1.0000
  H   H6        1.0  0.21910227085765396  0.07806138234884942  0.3945974220253702  1.0000
  H   H7        1.0  0.74801610314271  0.8201294435745725  0.4900130112834019  1.0000
  H   H8        1.0  0.2518379717552079  0.17973039168114727  0.5099640652788081  1.0000
  H   H9        1.0  0.6885883056419002  0.1378838746357189  0.32734204747702467  1.0000
  H   H10       1.0  0.31210565206988145  0.8627567695216599  0.6731955313760307  1.0000
  H   H11       1.0  0.7309465001663612  0.25344132575045825  0.44210000582548037  1.0000
  H   H12       1.0  0.26821868154171824  0.7463450332153772  0.5589694981906134  1.0000
  H   H13       1.0  0.9178206419555012  0.7233259777445016  0.9006017395889784  1.0000
  H   H14       1.0  0.0821660346697044  0.2767092193869658  0.0993174677199278  1.0000
  H   H15       1.0  0.6171317629759939  0.33350950627204423  0.04904224004353349  1.0000
  H   H16       1.0  0.382796566896758  0.6665860218455183  0.9509065687198869  1.0000
  H   H17       1.0  0.5398800570332583  0.17576951233178315  0.8598337169214288  1.0000
  H   H18       1.0  0.4601123729550381  0.824271205481182  0.14013300298978487  1.0000
  H   H19       1.0  0.8479087458660075  0.8696016959874913  0.04848620433644869  1.0000
  H   H20       1.0  0.1520258490933202  0.13046604303794856  0.951462107490293  1.0000
  H   H21       1.0  0.9709759247388303  0.8891541707270821  0.39194100056088377  1.0000
  H   H22       1.0  0.02889738941784971  0.11084210619802091  0.6080119119680063  1.0000
  H   H23       1.0  0.8060853770940071  0.4354527434376082  0.1844773622800417  1.0000
  H   H24       1.0  0.19396622122274476  0.564578323470677  0.8154161235970533  1.0000
  C   C1        1.0  0.6457694233372707  0.2831275222852626  0.6691453646665052  1.0000
  C   C2        1.0  0.3544030876497645  0.7167747437275981  0.3308123421860714  1.0000
  C   C3        1.0  0.6828613567230093  0.36878281323931367  0.7841865017568421  1.0000
  C   C4        1.0  0.31720773648549994  0.6312174808414711  0.21574511441552593  1.0000
  C   C5        1.0  0.8289171717762116  0.6046573612008717  0.8966068839607357  1.0000
  C   C6        1.0  0.17107326614893745  0.39538126565229714  0.10332165125478811  1.0000
  C   C7        1.0  0.7731627356994508  0.5435275567961926  0.9917526805819318  1.0000
  C   C8        1.0  0.22680589243037017  0.45655848685219524  0.008181407021588413  1.0000
  C   C9        1.0  0.6664276266650547  0.38606251982653117  0.9781297558054403  1.0000
  C   C10       1.0  0.33353684459031296  0.6140188212149769  0.021807762929604707  1.0000
  C   C11       1.0  0.6221365595047245  0.2978614633699764  0.8738723680194551  1.0000
  C   C12       1.0  0.37786043165717587  0.702185256232383  0.12607413139264878  1.0000
  C   C13       1.0  0.8265954603267572  0.6403765049206599  0.10100106370195762  1.0000
  C   C14       1.0  0.17336776737655413  0.3596833395180496  0.8989251982864914  1.0000
  C   C15       1.0  0.8651711154611946  0.8075874929394332  0.11677978073769416  1.0000
  C   C16       1.0  0.13475445312212742  0.1924685317779408  0.8831646384634196  1.0000
  C   C17       1.0  0.9208997461526351  0.8974981535582033  0.22069324913580599  1.0000
  C   C18       1.0  0.07899410785658742  0.10253832547463304  0.7792612730766846  1.0000
  C   C19       1.0  0.9510951306071647  0.07611431008370324  0.239407728295454  1.0000
  C   C20       1.0  0.048824129493894565  0.9239388369833181  0.7606370788422224  1.0000
  C   C21       1.0  0.9304221819128955  0.8201883039849777  0.31062425700400803  1.0000
  C   C22       1.0  0.0694627391869957  0.1798149195649188  0.6893159454689765  1.0000
  C   C23       1.0  0.8824782984792989  0.654167688914008  0.29677994953526365  1.0000
  C   C24       1.0  0.11747919004434955  0.3458299219491679  0.7031434016155913  1.0000
  C   C25       1.0  0.8692868277362394  0.5714953241238877  0.3941329372526424  1.0000
  C   C26       1.0  0.13084970142545424  0.42850898204766014  0.6058013298405527  1.0000
  C   C27       1.0  0.8353246737471522  0.5647307826964864  0.19257426955862658  1.0000
  C   C28       1.0  0.16466493539647334  0.4353007881501939  0.8073357276778024  1.0000
  N   N1        1.0  0.783963284877281  0.5204080006642545  0.7960223851212047  1.0000
  N   N2        1.0  0.21608906893029464  0.4796036816388922  0.20389480444143257  1.0000
  O   O1        1.0  0.7176636874181385  0.3597122881608217  0.5947446421474183  1.0000
  O   O2        1.0  0.28289097139735736  0.6400802619165307  0.4052291576184643  1.0000
  O   O3        1.0  0.5488395756151546  0.14184388169467615  0.6520681391536269  1.0000
  O   O4        1.0  0.4510880174200197  0.8581531791552666  0.3478892163441003  1.0000
  O   O5        1.0  0.9143619068340385  0.438794501238455  0.3897951945514818  1.0000
  O   O6        1.0  0.08597774130084455  0.5613249291579765  0.6101656072416333  1.0000
  O   O7        1.0  0.7991677076137053  0.6370478026928839  0.4769453072718334  1.0000
  O   O8        1.0  0.2008811418539197  0.3629001525186981  0.5230035414039874  1.0000
  O   O9        1.0  0.09728981510875913  0.15551455179946327  0.30059738101445527  1.0000
  O   O10       1.0  0.9027762077263901  0.8444496234971911  0.6993640908442628  1.0000
  O   O11       1.0  0.8310175569425481  0.13603554088856382  0.1985843099464333  1.0000
  O   O12       1.0  0.16880203492420529  0.8640841763541903  0.8016375446450467  1.0000
  O   O13       1.0  0.5442840836680319  0.6113013998293725  0.6468967217053532  1.0000
  O   O14       1.0  0.45579689360164377  0.3884664631498966  0.3529144647192338  1.0000
  O   O15       1.0  0.7357482110613632  0.9252865661805745  0.5293561785391602  1.0000
  O   O16       1.0  0.2639974573565809  0.07451979835721542  0.4706547241498526  1.0000
  O   O17       1.0  0.6363095263833287  0.16665025235504774  0.39781197796983747  1.0000
  O   O18       1.0  0.36347895208486863  0.8333951367217767  0.6025333730303402  1.0000
