data_image0
_chemical_formula_structural       Cd3H54C78N12Cl6
_chemical_formula_sum              "Cd3 H54 C78 N12 Cl6"
_cell_length_a       13.273565484633703
_cell_length_b       16.23731518922622
_cell_length_c       16.237337122195473
_cell_angle_alpha    112.87251096986863
_cell_angle_beta     105.81342080993662
_cell_angle_gamma    105.81316185677271

_space_group_name_H-M_alt    "P 1"
_space_group_IT_number       1

loop_
  _space_group_symop_operation_xyz
  'x, y, z'

loop_
  _atom_site_type_symbol
  _atom_site_label
  _atom_site_symmetry_multiplicity
  _atom_site_fract_x
  _atom_site_fract_y
  _atom_site_fract_z
  _atom_site_occupancy
  Cd  Cd1       1.0  0.5000033768320052  0.5000016393682217  0.9999996452397324  1.0000
  Cd  Cd2       1.0  0.4999982954432626  0.9999995557516004  0.49999970967898133  1.0000
  Cd  Cd3       1.0  0.9999999069667426  0.49999827575815914  0.49999908076335936  1.0000
  H   H1        1.0  0.3913992447110743  0.5626873580310062  0.8459989023710007  1.0000
  H   H2        1.0  0.37047587349398736  0.5489627197608017  0.6822269677681873  1.0000
  H   H3        1.0  0.6420919557823551  0.4490413460245719  0.7030306825664565  1.0000
  H   H4        1.0  0.6506383569649545  0.4672057330849598  0.8659077542557865  1.0000
  H   H5        1.0  0.5454436924609922  0.15400665377833175  0.7166969601739976  1.0000
  H   H6        1.0  0.6882709334991761  0.3177828894826149  0.8667313386043033  1.0000
  H   H7        1.0  0.9390582105501156  0.29695818025795273  0.7459499926551275  1.0000
  H   H8        1.0  0.7846855890798425  0.13409488121925514  0.6012121627648312  1.0000
  H   H9        1.0  0.8287481524517518  0.28328262349564437  0.43727296654546416  1.0000
  H   H10       1.0  0.8215635442871517  0.1332064762544292  0.45091632269301823  1.0000
  H   H11       1.0  0.19320451838697042  0.25404003784247925  0.5510288785271555  1.0000
  H   H12       1.0  0.18344302334104157  0.3987519353371951  0.5328622875263703  1.0000
  H   H13       1.0  0.45455584594927967  0.28330265750794587  0.8459927768929772  1.0000
  H   H14       1.0  0.3117279904086487  0.13326835832463502  0.6822172454634552  1.0000
  H   H15       1.0  0.06094109420493513  0.25405007912665684  0.7030407596751046  1.0000
  H   H16       1.0  0.21531359951382004  0.39878862648097174  0.8659039522755447  1.0000
  H   H17       1.0  0.17125209413878648  0.562725315681881  0.7167168755029819  1.0000
  H   H18       1.0  0.17843656992765486  0.5490829894732557  0.8667933349467986  1.0000
  H   H19       1.0  0.806796000390321  0.4489713487656816  0.7459605061156508  1.0000
  H   H20       1.0  0.8165555091714796  0.467136837976618  0.6012464734056521  1.0000
  H   H21       1.0  0.6085990099564853  0.1540016639768993  0.43731143157103236  1.0000
  H   H22       1.0  0.629522299641515  0.31777157476537365  0.4510369970425642  1.0000
  H   H23       1.0  0.35790676630671925  0.2969681924503008  0.5509591625981117  1.0000
  H   H24       1.0  0.34936204563062034  0.13409255940169373  0.5327935996215557  1.0000
  H   H25       1.0  0.6086006283422237  0.437313343926519  0.15400131999815164  1.0000
  H   H26       1.0  0.6295232610757182  0.45103650381357596  0.3177706679267799  1.0000
  H   H27       1.0  0.35790754861011465  0.5509586166691421  0.2969667069056995  1.0000
  H   H28       1.0  0.3493603644081773  0.5327942295915236  0.13408946058569876  1.0000
  H   H29       1.0  0.45455507205357293  0.845991830705593  0.28330153756774484  1.0000
  H   H30       1.0  0.3117277867120265  0.682217073338336  0.13326895535699626  1.0000
  H   H31       1.0  0.060941705644609157  0.7030410435070211  0.2540515126142822  1.0000
  H   H32       1.0  0.2153154801893606  0.8659050816533951  0.39878865508846667  1.0000
  H   H33       1.0  0.17125333047879815  0.7167166002171116  0.5627270405133942  1.0000
  H   H34       1.0  0.17843909125310384  0.8667934866237845  0.5490842285976568  1.0000
  H   H35       1.0  0.8067969204726139  0.7459606641783978  0.4489723089273027  1.0000
  H   H36       1.0  0.816556893318456  0.6012472883699901  0.4671379860951104  1.0000
  H   H37       1.0  0.5454432440846803  0.7166980444323415  0.1540072708455186  1.0000
  H   H38       1.0  0.6882719262508418  0.8667308653825502  0.3177830281580257  1.0000
  H   H39       1.0  0.9390596059386666  0.7459491445399707  0.2969584569291256  1.0000
  H   H40       1.0  0.7846854909849199  0.6012120754015342  0.13409486381501515  1.0000
  H   H41       1.0  0.8287474531627269  0.4372731688481721  0.2832824126933886  1.0000
  H   H42       1.0  0.8215633471966086  0.450916234176141  0.13320570702676088  1.0000
  H   H43       1.0  0.19320469952089067  0.5510278749298366  0.2540393263125367  1.0000
  H   H44       1.0  0.1834432553430788  0.5328616465073142  0.3987520243360905  1.0000
  H   H45       1.0  0.391400450365012  0.845999777024943  0.5626871382967237  1.0000
  H   H46       1.0  0.37047642103445355  0.6822283879977888  0.5489620652708067  1.0000
  H   H47       1.0  0.6420919539044831  0.7030317703706503  0.4490411313631951  1.0000
  H   H48       1.0  0.650638197477818  0.8659088816462771  0.46720576070082837  1.0000
  H   H49       1.0  0.5001340899024386  0.637351306828059  0.6373489476706665  1.0000
  H   H50       1.0  0.8628911299637354  0.3625888835273089  0.9999901972894633  1.0000
  H   H51       1.0  0.8628921257201155  0.999989904971791  0.3625893048597319  1.0000
  H   H52       1.0  0.1371077909393819  9.318735386899992e-06  0.6374109687617561  1.0000
  H   H53       1.0  0.1371080041411972  0.6374103401048573  8.670053425449201e-06  1.0000
  H   H54       1.0  0.49986532495377395  0.36265161265527723  0.3626544975364609  1.0000
  C   C1        1.0  0.4453399260885789  0.5380763842123742  0.811127796830199  1.0000
  C   C2        1.0  0.43442631103618373  0.5303207822878805  0.7204487077967341  1.0000
  C   C3        1.0  0.5051365495738055  0.49731614826230724  0.6785064124694457  1.0000
  C   C4        1.0  0.5844679842001881  0.4741568123314794  0.7317539145977178  1.0000
  C   C5        1.0  0.5902986775848618  0.4846833377925678  0.8223581555140312  1.0000
  C   C6        1.0  0.499245358627114  0.4936308252872551  0.5846448269475316  1.0000
  C   C7        1.0  0.6342330524025357  0.1889023274210544  0.7269463313556981  1.0000
  C   C8        1.0  0.7140027558481563  0.27960684367525357  0.8098304398751919  1.0000
  C   C9        1.0  0.8266662356567807  0.321504478467567  0.8187818354385499  1.0000
  C   C10       1.0  0.8527190652242498  0.2682685541813258  0.7423528279827706  1.0000
  C   C11       1.0  0.7679530131920985  0.17765650316019335  0.6622832706382836  1.0000
  C   C12       1.0  0.9146044602960046  0.4153477638815987  0.9089806094501753  1.0000
  C   C13       1.0  0.9072772377644824  0.2730019551121927  0.46188406306301727  1.0000
  C   C14       1.0  0.9041794293875115  0.19009814654151574  0.46966210467010666  1.0000
  C   C15       1.0  0.007899673796238474  0.181187310576469  0.5026856378850579  1.0000
  C   C16       1.0  0.11041917809482268  0.2575679690902888  0.5258386905558365  1.0000
  C   C17       1.0  0.10566897469656313  0.3376126143696966  0.5152704038685769  1.0000
  C   C18       1.0  0.005579164117264701  0.09099553149174261  0.5063939083566493  1.0000
  C   C19       1.0  0.3657657239511495  0.2730527437476766  0.8110969801891058  1.0000
  C   C20       1.0  0.2859968093853312  0.1901692985166008  0.7203934200752542  1.0000
  C   C21       1.0  0.17333308529086372  0.18121816525031423  0.6784954695770081  1.0000
  C   C22       1.0  0.14727991224753373  0.25764753380746447  0.731731456437302  1.0000
  C   C23       1.0  0.23204615438447015  0.3377171773080151  0.8223423217588176  1.0000
  C   C24       1.0  0.08539482839258031  0.09101786400547954  0.584653366793276  1.0000
  C   C25       1.0  0.09272119899722496  0.5381141925054465  0.7269972642449359  1.0000
  C   C26       1.0  0.09582089001081333  0.5303365934219856  0.809901786344696  1.0000
  C   C27       1.0  0.9921000383591192  0.4973128307117847  0.8188123984104719  1.0000
  C   C28       1.0  0.889581369687342  0.4741608348417402  0.7424309008692233  1.0000
  C   C29       1.0  0.8943301047330863  0.48472960084475863  0.6623863728311361  1.0000
  C   C30       1.0  0.9944218058013166  0.4936059349125018  0.9090040455054265  1.0000
  C   C31       1.0  0.5546585777244318  0.1888712338787571  0.46192213328993853  1.0000
  C   C32       1.0  0.5655723223154611  0.2795522128654326  0.46967963126411394  1.0000
  C   C33       1.0  0.49486707343924513  0.3214969034060717  0.5026886502782874  1.0000
  C   C34       1.0  0.4155320859031164  0.2682452183870653  0.5258434512092973  1.0000
  C   C35       1.0  0.4097005381124676  0.17764029806299678  0.5153147601786756  1.0000
  C   C36       1.0  0.5007589506746442  0.41535883437817495  0.506374819245039  1.0000
  C   C37       1.0  0.5546587943550066  0.46192357857968613  0.18887188130713636  1.0000
  C   C38       1.0  0.5655727789977759  0.46967991965241396  0.2795513399417543  1.0000
  C   C39       1.0  0.49486286621194614  0.5026867711054522  0.32149456944183913  1.0000
  C   C40       1.0  0.41553299832138896  0.5258461069840622  0.2682455691030087  1.0000
  C   C41       1.0  0.4097015657559666  0.5153181032265054  0.17764058898439566  1.0000
  C   C42       1.0  0.5007582977747164  0.5063743116230273  0.4153585781138318  1.0000
  C   C43       1.0  0.36576571187963947  0.8110961570917753  0.27305278221000145  1.0000
  C   C44       1.0  0.2859971172051346  0.7203938582822718  0.1901697824939604  1.0000
  C   C45       1.0  0.17333285437718612  0.6784962234727275  0.18121821229993873  1.0000
  C   C46       1.0  0.14728080806143137  0.7317321477473016  0.2576467785624176  1.0000
  C   C47       1.0  0.23204690346739917  0.822342720546992  0.33771700298319735  1.0000
  C   C48       1.0  0.08539384718338994  0.5846529379836768  0.09101803200972121  1.0000
  C   C49       1.0  0.0927230491825455  0.7269980076565404  0.5381147326877312  1.0000
  C   C50       1.0  0.09582242359818592  0.8099018162616861  0.5303370403419763  1.0000
  C   C51       1.0  0.9921021787246858  0.8188126522845139  0.4973147387749464  1.0000
  C   C52       1.0  0.8895830876226825  0.7424312546685954  0.4741621069576423  1.0000
  C   C53       1.0  0.8943324639306313  0.6623880876800783  0.4847313994098386  1.0000
  C   C54       1.0  0.9944238414781452  0.9090051704769239  0.4936057808872504  1.0000
  C   C55       1.0  0.6342341488697584  0.726947958238739  0.18890385800401072  1.0000
  C   C56       1.0  0.7140034770969238  0.8098306643099207  0.27960660732341575  1.0000
  C   C57       1.0  0.8266672009590081  0.8187817976051052  0.3215051736456259  1.0000
  C   C58       1.0  0.8527195912153903  0.7423524290018266  0.2682683963307044  1.0000
  C   C59       1.0  0.7679533490784538  0.6622827855012761  0.1776575310091887  1.0000
  C   C60       1.0  0.914607024128344  0.9089820988555035  0.41534700986673556  1.0000
  C   C61       1.0  0.9072798705043681  0.4618857703383057  0.2730029377844048  1.0000
  C   C62       1.0  0.9041790266486842  0.46966263028519967  0.19009848727679204  1.0000
  C   C63       1.0  0.00789872545828263  0.5026856538588262  0.18118794680315625  1.0000
  C   C64       1.0  0.11041891725968606  0.525839127926993  0.2575678948815252  1.0000
  C   C65       1.0  0.1056701819815515  0.5152703619528723  0.3376130387435765  1.0000
  C   C66       1.0  0.005576545284284982  0.5063932887024338  0.09099464720679869  1.0000
  C   C67       1.0  0.445340926203265  0.8111287288727453  0.5380764878301391  1.0000
  C   C68       1.0  0.43442598516393366  0.7204484889998357  0.5303190101957896  1.0000
  C   C69       1.0  0.5051354746562282  0.6785060160017269  0.4973124143317023  1.0000
  C   C70       1.0  0.5844674180245732  0.7317547443644373  0.4741551699107802  1.0000
  C   C71       1.0  0.5902981830282741  0.8223596646423773  0.4846830704867741  1.0000
  C   C72       1.0  0.4992404641815683  0.5846440851051612  0.4936286259620885  1.0000
  C   C73       1.0  0.49779347973787946  0.5757776645602279  0.5757772895269754  1.0000
  C   C74       1.0  0.9220056160601899  0.42421129133590796  0.999984895738585  1.0000
  C   C75       1.0  0.9220061647794182  0.9999846092665551  0.4242106940971979  1.0000
  C   C76       1.0  0.0779945353641835  1.4614400072299988e-05  0.5757885225070323  1.0000
  C   C77       1.0  0.07799388740273368  0.5757886714733829  1.4957029421248145e-05  1.0000
  C   C78       1.0  0.5022101761991706  0.4242274724078429  0.4242273471823167  1.0000
  N   N1        1.0  0.5217115170534684  0.5158592745549059  0.8616898897670351  1.0000
  N   N2        1.0  0.6600266142736048  0.13832890479846333  0.6541520232175342  1.0000
  N   N3        1.0  0.005895689452017965  0.3458091348773424  0.4841652344279623  1.0000
  N   N4        1.0  0.339973488973115  0.3458484438771167  0.8616700612011811  1.0000
  N   N5        1.0  0.9941024359733746  0.5158335552397305  0.6541900141317568  1.0000
  N   N6        1.0  0.47828918006837284  0.13830996010624833  0.4841415338359524  1.0000
  N   N7        1.0  0.47828720431965627  0.4841406881215775  0.13830732507445728  1.0000
  N   N8        1.0  0.3399733026182759  0.8616703188798314  0.3458476345799824  1.0000
  N   N9        1.0  0.9941057498723326  0.6541915670857534  0.5158347213785673  1.0000
  N   N10       1.0  0.6600263843125662  0.654152258051518  0.13832954534401426  1.0000
  N   N11       1.0  0.0058986332958284385  0.4841664076329196  0.34581080372154094  1.0000
  N   N12       1.0  0.5217110628076824  0.8616914809706131  0.515858442310396  1.0000
  Cl  Cl1       1.0  0.6407287216881771  0.415060255816215  1.328700567168156e-05  1.0000
  Cl  Cl2       1.0  0.6407262022997602  1.3567180197099993e-05  0.4150606522644153  1.0000
  Cl  Cl3       1.0  0.2256563495612981  0.5849756034771476  0.5849750807240994  1.0000
  Cl  Cl4       1.0  0.3592739143168516  0.5849397070042173  0.9999860326370749  1.0000
  Cl  Cl5       1.0  0.7743438937795304  0.4150258375419256  0.4150236637743204  1.0000
  Cl  Cl6       1.0  0.3592725181438254  0.999986395611856  0.58493902587292  1.0000
