data_image0
_chemical_formula_structural       CoH24C24S2N6O6
_chemical_formula_sum              "Co1 H24 C24 S2 N6 O6"
_cell_length_a       8.220907516105097
_cell_length_b       8.553584721181133
_cell_length_c       9.31659364093883
_cell_angle_alpha    98.54830852988047
_cell_angle_beta     109.3914159502205
_cell_angle_gamma    93.02116976182512

_space_group_name_H-M_alt    "P 1"
_space_group_IT_number       1

loop_
  _space_group_symop_operation_xyz
  'x, y, z'

loop_
  _atom_site_type_symbol
  _atom_site_label
  _atom_site_symmetry_multiplicity
  _atom_site_fract_x
  _atom_site_fract_y
  _atom_site_fract_z
  _atom_site_occupancy
  Co  Co1       1.0  0.5000049406482531  0.5000010708711145  0.500001732234395  1.0000
  H   H1        1.0  0.8054545949187568  0.7118287086190732  0.513302799501453  1.0000
  H   H2        1.0  0.19455550995147058  0.288175811279018  0.4866956882663871  1.0000
  H   H3        1.0  0.8502780665171841  0.9525646427251004  0.40864399412195945  1.0000
  H   H4        1.0  0.14972818304003976  0.04743985063016249  0.5913555276172033  1.0000
  H   H5        1.0  0.5928128587612134  0.07165563749180137  0.2515444529420846  1.0000
  H   H6        1.0  0.4071891304775832  0.9283452611929305  0.7484544239712534  1.0000
  H   H7        1.0  0.2686958426848988  0.7080331465860256  0.3355416274699152  1.0000
  H   H8        1.0  0.7313137658768198  0.2919666163693434  0.6644603592184736  1.0000
  H   H9        1.0  0.2677232489599176  0.09118910405468479  0.20246675447172888  1.0000
  H   H10       1.0  0.7322732549418588  0.9088081918831107  0.7975397110834378  1.0000
  H   H11       1.0  0.1355683234084424  0.9296649764496862  0.21776928804413834  1.0000
  H   H12       1.0  0.864435089302013  0.07032523642352116  0.7822328277209534  1.0000
  H   H13       1.0  0.14203057521531548  0.6232893503418067  0.8638576306880168  1.0000
  H   H14       1.0  0.8579617344562463  0.37671742349506576  0.13613711975542492  1.0000
  H   H15       1.0  0.17396480702711864  0.6456148802962004  0.06438209071613701  1.0000
  H   H16       1.0  0.8260403761714911  0.354380098227125  0.9356147471421038  1.0000
  H   H17       1.0  0.9047384816580005  0.7475339210281503  0.14806808100011176  1.0000
  H   H18       1.0  0.09525736089059217  0.25245742820541756  0.8519373794712877  1.0000
  H   H19       1.0  0.580059379878989  0.7175883454459394  0.05416500269316766  1.0000
  H   H20       1.0  0.4199359008130088  0.28239824600358093  0.9458353507236339  1.0000
  H   H21       1.0  0.4144940515534045  0.6150509730661112  0.7738127055066357  1.0000
  H   H22       1.0  0.585506242747641  0.38493446450311086  0.22618678542957577  1.0000
  H   H23       1.0  0.8698532583086304  0.5783169139741485  0.6781488105825131  1.0000
  H   H24       1.0  0.13015225434499908  0.4216923281422779  0.32185436995685984  1.0000
  C   C1        1.0  0.6945352074659182  0.7664494698896361  0.44897038452487686  1.0000
  C   C2        1.0  0.30546819641668316  0.23355262694849438  0.5510279901658137  1.0000
  C   C3        1.0  0.7189325722910809  0.9018547787931864  0.38885607845439557  1.0000
  C   C4        1.0  0.28107222984829855  0.09814851598801508  0.6111396425198592  1.0000
  C   C5        1.0  0.5755684236342375  0.9680862604212023  0.3028094175626137  1.0000
  C   C6        1.0  0.4244339460294526  0.03191820607572989  0.6971879109072033  1.0000
  C   C7        1.0  0.4091019558174905  0.8983190438802421  0.2814682720098957  1.0000
  C   C8        1.0  0.5909043347072824  0.10168545000085057  0.7185366284637381  1.0000
  C   C9        1.0  0.395534870991021  0.7640428052233261  0.3470459728867468  1.0000
  C   C10       1.0  0.6044708576771638  0.23595693087371214  0.6529538205322963  1.0000
  C   C11       1.0  0.24897983843078453  0.9611307415605806  0.1865736611771496  1.0000
  C   C12       1.0  0.7510233254910685  0.0388689769113526  0.8134275387207097  1.0000
  C   C13       1.0  0.10783353280709207  0.6901868061916615  0.9577006991067022  1.0000
  C   C14       1.0  0.8921715584540947  0.3098188675867277  0.04229865114173479  1.0000
  C   C15       1.0  0.914249840839673  0.6719747953872355  0.9178025611842101  1.0000
  C   C16       1.0  0.08574974050396378  0.3280272753287291  0.082201150465373  1.0000
  C   C17       1.0  0.8309069216211852  0.708212531999301  0.025760994395497547  1.0000
  C   C18       1.0  0.16909444723198416  0.29178242050701897  0.9742422561685301  1.0000
  C   C19       1.0  0.6500509969509167  0.6885994891780455  0.9745886037401091  1.0000
  C   C20       1.0  0.34994751803410645  0.3113930667059819  0.02541242402855194  1.0000
  C   C21       1.0  0.5557320076935139  0.6318984796648622  0.8194515600853477  1.0000
  C   C22       1.0  0.44426504348665213  0.3680928774347692  0.1805435154246027  1.0000
  C   C23       1.0  0.8103927585104386  0.6142597137887618  0.7642059166957014  1.0000
  C   C24       1.0  0.18961248140840328  0.38574714954080486  0.235795786063278  1.0000
  S   S1        1.0  0.19983275710598034  0.8950094089467411  0.9795411469262161  1.0000
  S   S2        1.0  0.8001682224944344  0.10499385971229455  0.020459911006937965  1.0000
  N   N1        1.0  0.5351868477858446  0.6974135245537595  0.42819832482776826  1.0000
  N   N2        1.0  0.4648245476510623  0.302591004262048  0.5718005354475579  1.0000
  N   N3        1.0  0.6351389250916523  0.594095855429735  0.7146562570007403  1.0000
  N   N4        1.0  0.3648667953830156  0.4059038805621426  0.2853424606714086  1.0000
  N   N5        1.0  0.8737868522947563  0.3237101416364751  0.4773598694526696  1.0000
  N   N6        1.0  0.12621021463808546  0.6762930997435674  0.5226346922235621  1.0000
  O   O1        1.0  0.761833918130243  0.4248995984109881  0.4498062700600798  1.0000
  O   O2        1.0  0.2381648771487335  0.5751072204351502  0.5501946459083555  1.0000
  O   O3        1.0  0.955752082381032  0.3100776985202458  0.6153922159402467  1.0000
  O   O4        1.0  0.044245737842423666  0.6899207943089676  0.3846008384295558  1.0000
  O   O5        1.0  0.9007267663193658  0.2405850680992501  0.3658301453802579  1.0000
  O   O6        1.0  0.0992681080985207  0.7594217233627275  0.6341631985843605  1.0000
