data_image0
_chemical_formula_structural       Dy2H32C32N20Cl2O12
_chemical_formula_sum              "Dy2 H32 C32 N20 Cl2 O12"
_cell_length_a       8.981493831916344
_cell_length_b       10.92145246447096
_cell_length_c       12.789466630597852
_cell_angle_alpha    115.28146378060589
_cell_angle_beta     106.38993646711619
_cell_angle_gamma    89.95836963573939

_space_group_name_H-M_alt    "P 1"
_space_group_IT_number       1

loop_
  _space_group_symop_operation_xyz
  'x, y, z'

loop_
  _atom_site_type_symbol
  _atom_site_label
  _atom_site_symmetry_multiplicity
  _atom_site_fract_x
  _atom_site_fract_y
  _atom_site_fract_z
  _atom_site_occupancy
  Dy  Dy1       1.0  0.7498452436259343  0.0685125468652501  7.45553772676486e-06  1.0000
  Dy  Dy2       1.0  0.25015686089284384  0.9314864641997079  0.9999952121960761  1.0000
  H   H1        1.0  0.015936514703120998  0.2223665728074806  0.006020990989412672  1.0000
  H   H2        1.0  0.48386870276767985  0.2167541681714411  0.9943959343221919  1.0000
  H   H3        1.0  0.9840720488083791  0.7776365158470638  0.9939844338353511  1.0000
  H   H4        1.0  0.5161350366986  0.7832407614743886  0.00560086444426131  1.0000
  H   H5        1.0  0.465674666324233  0.2711675487233761  0.3148480851190172  1.0000
  H   H6        1.0  0.034187902260732934  0.957394578632545  0.6855103428624358  1.0000
  H   H7        1.0  0.5343274770192252  0.7288468552814039  0.685141470054134  1.0000
  H   H8        1.0  0.9658128510029798  0.042610580350078905  0.3144911881374739  1.0000
  H   H9        1.0  0.5261903107688541  0.14004977985020867  0.35817953866870766  1.0000
  H   H10       1.0  0.9746022091548738  0.7828445886985377  0.6422240921284085  1.0000
  H   H11       1.0  0.47378485595577763  0.8599626173338775  0.6418102665196486  1.0000
  H   H12       1.0  0.025405496035901386  0.21716056018523483  0.3577772292416411  1.0000
  H   H13       1.0  0.9961581273484514  0.17669708727444086  0.6195973186731507  1.0000
  H   H14       1.0  0.5043218478391225  0.5572695019174175  0.3805524634798302  1.0000
  H   H15       1.0  0.0038353442276601885  0.823298882093539  0.38039941966007956  1.0000
  H   H16       1.0  0.4956804341517086  0.4427233701425167  0.6194487692823287  1.0000
  H   H17       1.0  0.1263591706034148  0.6057760312613071  0.7339840080875817  1.0000
  H   H18       1.0  0.3736988642992358  0.8718408474160669  0.26588698413218737  1.0000
  H   H19       1.0  0.873631652242608  0.3942250530123132  0.26601565262944854  1.0000
  H   H20       1.0  0.6263050760144396  0.1281550872839645  0.7341164776946343  1.0000
  H   H21       1.0  0.4062935172594919  0.415815035635866  0.9206483729419046  1.0000
  H   H22       1.0  0.09418731266634953  0.49525861909500435  0.07935828392830764  1.0000
  H   H23       1.0  0.5937058781628366  0.5841748087228426  0.07933867513221324  1.0000
  H   H24       1.0  0.9058177515062626  0.5047373305497443  0.9206391476793669  1.0000
  H   H25       1.0  0.23774744377001875  0.19122727324340616  0.7870728067926933  1.0000
  H   H26       1.0  0.2628911433286234  0.4044035733691941  0.21315560717044943  1.0000
  H   H27       1.0  0.7622514541794132  0.8087666609726014  0.21291642600908736  1.0000
  H   H28       1.0  0.7371097867245525  0.595588291704928  0.7868403007915673  1.0000
  H   H29       1.0  0.8617882690383853  0.26852041099014906  0.9341497196680422  1.0000
  H   H30       1.0  0.638013947683767  0.334655545812211  0.06610558624169012  1.0000
  H   H31       1.0  0.1382189743053246  0.7314816554966228  0.06585585430865139  1.0000
  H   H32       1.0  0.3619892897710599  0.6653434758597642  0.9338926152592676  1.0000
  C   C1        1.0  0.5987643059641742  0.1351347437550956  0.21003957074442076  1.0000
  C   C2        1.0  0.9013188170147829  0.9256228901646109  0.7901662511373216  1.0000
  C   C3        1.0  0.4012341580521054  0.8648632499542753  0.7899627946891666  1.0000
  C   C4        1.0  0.09869356061530252  0.07438223391282858  0.2098414470891115  1.0000
  C   C5        1.0  0.5627113134498387  0.21327443883661357  0.3295204622172464  1.0000
  C   C6        1.0  0.9374971538241113  0.884570288403047  0.6707888885423187  1.0000
  C   C7        1.0  0.43728277226183104  0.7867399516468935  0.6704784607775237  1.0000
  C   C8        1.0  0.0625049377616023  0.11543588407194959  0.32921562127827286  1.0000
  C   C9        1.0  0.9036749094286809  0.3842268645991922  0.5688824925171971  1.0000
  C   C10       1.0  0.5964730465072918  0.8154165443389444  0.43115603530287666  1.0000
  C   C11       1.0  0.09631526048257649  0.615777282789004  0.43112050979865996  1.0000
  C   C12       1.0  0.40352509750812965  0.18457940022270236  0.56884707988673  1.0000
  C   C13       1.0  0.04431424031644579  0.38975157936460647  0.6629334275711969  1.0000
  C   C14       1.0  0.4559475279310661  0.7268909146441018  0.3370759834927739  1.0000
  C   C15       1.0  0.9556797430308069  0.6102474485430066  0.33706766008008066  1.0000
  C   C16       1.0  0.5440560878432097  0.27310297307704445  0.6629274460969157  1.0000
  C   C17       1.0  0.0764614729678712  0.2716966857910705  0.6785454151133407  1.0000
  C   C18       1.0  0.42395003404019604  0.593280023931733  0.32152881491395385  1.0000
  C   C19       1.0  0.9235296646578633  0.7282992948956492  0.3214485257882701  1.0000
  C   C20       1.0  0.5760547282857829  0.4067138678898771  0.6784724944223441  1.0000
  C   C21       1.0  0.146486152458003  0.511278000280555  0.7419731248789887  1.0000
  C   C22       1.0  0.3537074621378267  0.7693851236877407  0.25796012245518085  1.0000
  C   C23       1.0  0.8535101466854159  0.48872102498371817  0.2580276322312827  1.0000
  C   C24       1.0  0.6462963181754233  0.2306097864384213  0.7420437142496539  1.0000
  C   C25       1.0  0.3029976292415526  0.40523974808397156  0.846063977541263  1.0000
  C   C26       1.0  0.19742945110952798  0.5593021723475003  0.15391408549069033  1.0000
  C   C27       1.0  0.6970022734133678  0.5947531569832234  0.15392663785775074  1.0000
  C   C28       1.0  0.8025776088584068  0.44069172550618424  0.8460837653319898  1.0000
  C   C29       1.0  0.2086124821933026  0.2795488915291315  0.7707311292303984  1.0000
  C   C30       1.0  0.2918878031835064  0.5089777724304411  0.2293137577275458  1.0000
  C   C31       1.0  0.7913796419837027  0.7204460686841897  0.22926106629584098  1.0000
  C   C32       1.0  0.7081147942696192  0.49101715094607806  0.7706859432854499  1.0000
  N   N1        1.0  0.8101566083054124  0.26627669669791487  0.4890438516908232  1.0000
  N   N2        1.0  0.6902225035663393  0.7775052204595029  0.5111301466055095  1.0000
  N   N3        1.0  0.1898327169007815  0.7337295044129563  0.5109573931497877  1.0000
  N   N4        1.0  0.3097782944003171  0.22249276193112874  0.48887501625969065  1.0000
  N   N5        1.0  0.6943690375806497  0.3078753714271016  0.42735400006542784  1.0000
  N   N6        1.0  0.8057190231992665  0.8809464464424506  0.5727909099917241  1.0000
  N   N7        1.0  0.30562507014119683  0.6921318533086661  0.5726446448288626  1.0000
  N   N8        1.0  0.19428125914027564  0.1190556344808797  0.4272133096285201  1.0000
  N   N9        1.0  0.7120929579441935  0.44318562164013303  0.4634663477367411  1.0000
  N   N10       1.0  0.7876046920664806  0.9800211156541181  0.5365317262072437  1.0000
  N   N11       1.0  0.28789819920093157  0.5568246601781439  0.536539097269987  1.0000
  N   N12       1.0  0.2123941010277477  0.019978922865277592  0.4634714534566271  1.0000
  N   N13       1.0  0.8449664445605337  0.4930543942749495  0.5535876806820781  1.0000
  N   N14       1.0  0.6547837849471421  0.9395579255982155  0.44635012659125534  1.0000
  N   N15       1.0  0.15502273426089627  0.5069507757554986  0.44641628501599934  1.0000
  N   N16       1.0  0.3452158437750441  0.0604400635362126  0.5536532465615593  1.0000
  N   N17       1.0  0.27247708105007723  0.5185202883545942  0.8319336122458408  1.0000
  N   N18       1.0  0.2277614925459233  0.6867021960635924  0.16801058057688315  1.0000
  N   N19       1.0  0.7275236806081582  0.4814777113868517  0.16806529467412898  1.0000
  N   N20       1.0  0.7722414385237145  0.3132947699540978  0.831990716659554  1.0000
  Cl  Cl1       1.0  0.7500024397841117  0.8194894402321894  0.9997380734306204  1.0000
  Cl  Cl2       1.0  0.2500016378372223  0.1805075298859649  0.00026110355243249964  1.0000
  O   O1        1.0  0.49537220784696256  0.03854628120717509  0.1262596731694785  1.0000
  O   O2        1.0  0.004920019222787162  0.9129184288688066  0.8739477284222017  1.0000
  O   O3        1.0  0.5046406134759778  0.9614619339426724  0.8737406444776994  1.0000
  O   O4        1.0  0.9950815326778796  0.08707754317618568  0.12604355205517245  1.0000
  O   O5        1.0  0.72610675478132  0.16993218849133027  0.19962154230147178  1.0000
  O   O6        1.0  0.7736923706280195  0.9704386704850946  0.8004642448206737  1.0000
  O   O7        1.0  0.27390210149971483  0.8300729623240526  0.8003784408083517  1.0000
  O   O8        1.0  0.22630343626364888  0.0295715973711026  0.19954366707666793  1.0000
  O   O9        1.0  0.906883056213559  0.2392524016293223  0.0029508176219294998  1.0000
  O   O10       1.0  0.5928511460843994  0.23661100757864523  0.9973355362026481  1.0000
  O   O11       1.0  0.09312286696236069  0.760748642689684  0.997054905506694  1.0000
  O   O12       1.0  0.4071527760750655  0.763384935796786  0.0026647976515618197  1.0000
