data_image0
_chemical_formula_structural       Al2H30C42N6O12
_chemical_formula_sum              "Al2 H30 C42 N6 O12"
_cell_length_a       3.9583085490008982
_cell_length_b       24.59161728391596
_cell_length_c       24.591583841143827
_cell_angle_alpha    119.99968842088835
_cell_angle_beta     90.0000657902764
_cell_angle_gamma    89.99992683150779

_space_group_name_H-M_alt    "P 1"
_space_group_IT_number       1

loop_
  _space_group_symop_operation_xyz
  'x, y, z'

loop_
  _atom_site_type_symbol
  _atom_site_label
  _atom_site_symmetry_multiplicity
  _atom_site_fract_x
  _atom_site_fract_y
  _atom_site_fract_z
  _atom_site_occupancy
  Al  Al1       1.0  0.028423529552966904  0.4999989687910755  0.500000364746306  1.0000
  Al  Al2       1.0  0.027607612025406108  0.16666654797192137  0.8333353187646536  1.0000
  H   H1        1.0  0.3236972369909452  0.4289534463004686  0.7239319110247492  1.0000
  H   H2        1.0  0.32362434398585554  0.2374469892240541  0.6091890068403032  1.0000
  H   H3        1.0  0.8358334454173927  0.32400424211883927  0.8202931220107033  1.0000
  H   H4        1.0  0.8535981488115783  0.3864323057711374  0.7657366553182213  1.0000
  H   H5        1.0  0.8363071834827379  0.3425264321906384  0.5128764606596974  1.0000
  H   H6        1.0  0.8536761737864752  0.2800151304856727  0.5673478154020231  1.0000
  H   H7        1.0  0.32370273295060775  0.7949769493483956  0.5710461396325498  1.0000
  H   H8        1.0  0.32362985823393603  0.8717384269112428  0.7625515750528178  1.0000
  H   H9        1.0  0.8358478079926358  0.9962881663243552  0.6759980739003382  1.0000
  H   H10       1.0  0.8536233318783105  0.8793054109413776  0.6135700831723766  1.0000
  H   H11       1.0  0.8363265683162312  0.6703482666937007  0.6574719919985696  1.0000
  H   H12       1.0  0.8537074753916228  0.7873290803389068  0.7199816255838343  1.0000
  H   H13       1.0  0.32373637594561433  0.2760635673029768  0.20502678444400144  1.0000
  H   H14       1.0  0.32365477379876484  0.3908115989135155  0.1282612011069659  1.0000
  H   H15       1.0  0.8358108173271718  0.17970336913932528  0.0037142369151012653  1.0000
  H   H16       1.0  0.853581239622045  0.23425882430272793  0.12069711666380561  1.0000
  H   H17       1.0  0.8362932752536097  0.4871239756760347  0.32965001674098454  1.0000
  H   H18       1.0  0.8536666516183118  0.4326505486092386  0.212668876202521  1.0000
  H   H19       1.0  0.15738312168430474  0.5159056469972825  0.6448154594228797  1.0000
  H   H20       1.0  0.07221064822906699  0.5076746654415487  0.7087709959710934  1.0000
  H   H21       1.0  0.15675574144947999  0.1506308067448927  0.6884296964062456  1.0000
  H   H22       1.0  0.07185304487018132  0.1587896440479355  0.6244259414519532  1.0000
  H   H23       1.0  0.1573744803045543  0.6289096705536465  0.4840958093462575  1.0000
  H   H24       1.0  0.0722039937743446  0.7010964875756257  0.4923278564782834  1.0000
  H   H25       1.0  0.1567492249507723  0.03779417518575896  0.8493674502175068  1.0000
  H   H26       1.0  0.0718454459188749  0.9656318554397246  0.841208103435278  1.0000
  H   H27       1.0  0.1574156197295267  0.3551812466666391  0.37109422711929335  1.0000
  H   H28       1.0  0.07227319058939942  0.2912228468992595  0.2989092123183639  1.0000
  H   H29       1.0  0.15677882199496912  0.3115737750131586  0.9622056232965547  1.0000
  H   H30       1.0  0.071903019160942  0.37557907421867043  0.034367446092169004  1.0000
  C   C1        1.0  0.5350816999250158  0.45180462464390553  0.4025895053369481  1.0000
  C   C2        1.0  0.5350847682953201  0.45078052147042785  0.5481942001697746  1.0000
  C   C3        1.0  0.5350841638176503  0.5974115888991279  0.5492183461796927  1.0000
  C   C4        1.0  0.5343337710845617  0.21580492370369342  0.7850629468126229  1.0000
  C   C5        1.0  0.5343318494741353  0.06925618833324886  0.7841972003165836  1.0000
  C   C6        1.0  0.5343267337601816  0.21493848632569268  0.9307450142356898  1.0000
  C   C7        1.0  0.5507482939836236  0.41841747975193744  0.5848726097314197  1.0000
  C   C8        1.0  0.5502493905356758  0.24810102243588972  0.7483213545591809  1.0000
  C   C9        1.0  0.4002169437023398  0.44370229135986244  0.6453695797402899  1.0000
  C   C10       1.0  0.43686922111733406  0.4099393997177002  0.6774246680582577  1.0000
  C   C11       1.0  0.3998592778132989  0.2227760286697062  0.6878076423853868  1.0000
  C   C12       1.0  0.43673840820130755  0.2564877243686041  0.6557037150136366  1.0000
  C   C13       1.0  0.7173711342478769  0.30631992020406074  0.7745056283026059  1.0000
  C   C14       1.0  0.7277566278081409  0.34093695133238117  0.7441606789312587  1.0000
  C   C15       1.0  0.7177313789902869  0.36017999990268385  0.55865242217439  1.0000
  C   C16       1.0  0.7278950667514367  0.3255153274233464  0.5889506718196741  1.0000
  C   C17       1.0  0.5889393676638618  0.3510136382786797  0.6496245176787879  1.0000
  C   C18       1.0  0.5888916401011527  0.3154071219477288  0.6834768792202012  1.0000
  C   C19       1.0  0.5507573582427838  0.6664544726549693  0.5815827301490585  1.0000
  C   C20       1.0  0.5502529583627123  0.0002170482989783322  0.7518990143963152  1.0000
  C   C21       1.0  0.4002205972848358  0.7016649544363603  0.5562966488978347  1.0000
  C   C22       1.0  0.4368800469159169  0.7674845489919591  0.5900609497605699  1.0000
  C   C23       1.0  0.3998590553638692  0.9650293175298827  0.7772245734339832  1.0000
  C   C24       1.0  0.4367486979991996  0.8992120304187381  0.7435100139226093  1.0000
  C   C25       1.0  0.7173832481397399  0.9681863244678153  0.6936826511498493  1.0000
  C   C26       1.0  0.727776717995262  0.9032217787165991  0.6590632983152246  1.0000
  C   C27       1.0  0.7177504861237339  0.6984684826601253  0.6398170285329741  1.0000
  C   C28       1.0  0.7279188293920457  0.7634340107586937  0.6744833823522639  1.0000
  C   C29       1.0  0.5889577192246875  0.7986079285518813  0.6489841870715125  1.0000
  C   C30       1.0  0.5889070359765399  0.8680679274169592  0.6845928555707275  1.0000
  C   C31       1.0  0.550762537352668  0.4151273449168968  0.33354740177976067  1.0000
  C   C32       1.0  0.5502528308042473  0.2516779104978397  0.9997835289960121  1.0000
  C   C33       1.0  0.40024129476047693  0.3546264199572279  0.2983364597060572  1.0000
  C   C34       1.0  0.4369007825854966  0.3225722748624236  0.23251776386450723  1.0000
  C   C35       1.0  0.3998716536277199  0.3121939205124633  0.03497137783522667  1.0000
  C   C36       1.0  0.43676125769336244  0.34429484225015733  0.10078802616090593  1.0000
  C   C37       1.0  0.7173611474260398  0.2254912016946449  0.03181549094362169  1.0000
  C   C38       1.0  0.7277520633985474  0.2558354441022601  0.09677981168370307  1.0000
  C   C39       1.0  0.7177300926132945  0.4413464149253272  0.3015303622896468  1.0000
  C   C40       1.0  0.727898463073096  0.41104713764793394  0.23656499321631935  1.0000
  C   C41       1.0  0.588952872773497  0.35037212143699753  0.20139313766656386  1.0000
  C   C42       1.0  0.588897177346155  0.3165218459951262  0.13193296694318238  1.0000
  N   N1        1.0  0.23706126626098012  0.5007203279441441  0.6743300531975791  1.0000
  N   N2        1.0  0.23660785899702572  0.1657671534192174  0.6588868103952165  1.0000
  N   N3        1.0  0.23705484986770392  0.6736101756778511  0.4992812818940635  1.0000
  N   N4        1.0  0.23660507460098054  0.9931139438255913  0.8342312440202092  1.0000
  N   N5        1.0  0.23710870762913322  0.32566743532718334  0.32639603491665525  1.0000
  N   N6        1.0  0.2366451447450117  0.3411157016543882  0.006883949405654699  1.0000
  O   O1        1.0  0.7614360649646059  0.5679671337168487  0.5616611943025802  1.0000
  O   O2        1.0  0.7614283152985524  0.49369268607605926  0.4320335728766337  1.0000
  O   O3        1.0  0.7614389245798138  0.43833814960305517  0.5063076645377648  1.0000
  O   O4        1.0  0.2944207319749522  0.5694021124735756  0.5095733222958784  1.0000
  O   O5        1.0  0.29441871887402743  0.4904265691635388  0.5598296144860767  1.0000
  O   O6        1.0  0.2944184500360549  0.4401696854081294  0.4305983090693956  1.0000
  O   O7        1.0  0.7605597943991854  0.1730213647716639  0.9013137331373641  1.0000
  O   O8        1.0  0.7605643432398992  0.22829084130550828  0.8269799372556149  1.0000
  O   O9        1.0  0.7605621503987124  0.09868757863648621  0.7717112924770361  1.0000
  O   O10       1.0  0.2935444429869206  0.22653641277018724  0.9027301280053023  1.0000
  O   O11       1.0  0.29354468771872894  0.09727146863949805  0.8238104038591132  1.0000
  O   O12       1.0  0.2935467007233257  0.17619187744794834  0.7734661084957963  1.0000
