data_image0
_chemical_formula_structural       Zn2H20C44Br6N2O8
_chemical_formula_sum              "Zn2 H20 C44 Br6 N2 O8"
_cell_length_a       16.527798718048118
_cell_length_b       17.340276449973526
_cell_length_c       17.673736911605484
_cell_angle_alpha    90.90167683262304
_cell_angle_beta     89.97395456739908
_cell_angle_gamma    84.65189606232667

_space_group_name_H-M_alt    "P 1"
_space_group_IT_number       1

loop_
  _space_group_symop_operation_xyz
  'x, y, z'

loop_
  _atom_site_type_symbol
  _atom_site_label
  _atom_site_symmetry_multiplicity
  _atom_site_fract_x
  _atom_site_fract_y
  _atom_site_fract_z
  _atom_site_occupancy
  Zn  Zn1       1.0  0.5826550730011276  0.501150500969615  0.4860070816991495  1.0000
  Zn  Zn2       1.0  0.4130602892281345  0.5107564026070364  0.49853929941553327  1.0000
  H   H1        1.0  0.39755437599313853  0.28192034844501984  0.58528672978359  1.0000
  H   H2        1.0  0.6164708454304277  0.7423254705208108  0.4894567492913494  1.0000
  H   H3        1.0  0.8798306671338949  0.40601822334846815  0.4241100186749662  1.0000
  H   H4        1.0  0.12472435355898168  0.5764049669674448  0.6029092315315481  1.0000
  H   H5        1.0  0.6946105019192289  0.6003267349632536  0.5592848751721177  1.0000
  H   H6        1.0  0.29166712268897743  0.4428288206597628  0.4009530850575587  1.0000
  H   H7        1.0  0.35940787659063733  0.7587017662952461  0.5293002827015983  1.0000
  H   H8        1.0  0.6494394679196205  0.2547092330980404  0.5227357316562546  1.0000
  H   H9        1.0  0.4197440707834517  0.010994718220672396  0.5543441453993265  1.0000
  H   H10       1.0  0.6005925788128579  0.0069176018279008995  0.5942709322346005  1.0000
  H   H11       1.0  0.6087058806319517  0.5219748215514242  0.8873539505462558  1.0000
  H   H12       1.0  0.3699169629050019  0.486181821421127  0.10324140616027928  1.0000
  H   H13       1.0  0.40137311121112174  0.43153019472970283  0.712577106159749  1.0000
  H   H14       1.0  0.609704052182728  0.4149290366341773  0.2639793551760832  1.0000
  H   H15       1.0  0.4023184104748196  0.3914913180725107  0.8477151138032113  1.0000
  H   H16       1.0  0.6186583035249387  0.3893633669325068  0.12482895922759238  1.0000
  H   H17       1.0  0.7273642930521902  0.40579702307017124  0.4198210648858306  1.0000
  H   H18       1.0  0.27759912896569  0.574062936461239  0.599152409967239  1.0000
  H   H19       1.0  0.6553060693677466  0.11451271500437336  0.5539770781054826  1.0000
  H   H20       1.0  0.3621337414504708  0.8986275174631613  0.5622055123119124  1.0000
  C   C1        1.0  0.49020900061506717  0.47978070133358103  0.3466847462609124  1.0000
  C   C2        1.0  0.49938063073533107  0.5146113627912  0.6403238608491647  1.0000
  C   C3        1.0  0.5639746351349757  0.5008886669264497  0.8489358012499721  1.0000
  C   C4        1.0  0.422310599069597  0.46901675069465637  0.1384670478437755  1.0000
  C   C5        1.0  0.5631645650854011  0.5214127796525715  0.773106743029139  1.0000
  C   C6        1.0  0.4181163295481199  0.48176868205526086  0.2164553065703743  1.0000
  C   C7        1.0  0.5042049302979025  0.4973067061811206  0.7231832493417228  1.0000
  C   C8        1.0  0.486019678812994  0.4634828561308734  0.2630390180363449  1.0000
  C   C9        1.0  0.4467580968543956  0.450367279240126  0.751756306590927  1.0000
  C   C10       1.0  0.557233818751456  0.4291823180293335  0.22784451235705205  1.0000
  C   C11       1.0  0.44721393842328167  0.42818226929460207  0.8268282708390515  1.0000
  C   C12       1.0  0.5623977575625503  0.41524531708325435  0.1504866509048952  1.0000
  C   C13       1.0  0.5055028143883503  0.45429511121601246  0.8769401499068366  1.0000
  C   C14       1.0  0.4949831315830551  0.43701227750980093  0.1041385637644368  1.0000
  C   C15       1.0  0.50339811209259  0.4390259718122138  0.9554491452604025  1.0000
  C   C16       1.0  0.5004245865922455  0.43323674726504885  0.0241105826155277  1.0000
  C   C17       1.0  0.8404800049190796  0.4497832768698728  0.45465571532092497  1.0000
  C   C18       1.0  0.1599276521322182  0.5459817981331482  0.5576758389408241  1.0000
  C   C19       1.0  0.7567769764518957  0.4495156960420985  0.4518883931430436  1.0000
  C   C20       1.0  0.24379805993985568  0.5452919117129865  0.555791114027677  1.0000
  C   C21       1.0  0.7379958271092661  0.558626180324623  0.530462777511829  1.0000
  C   C22       1.0  0.2523135774790788  0.4705465938905176  0.4449375614865332  1.0000
  C   C23       1.0  0.5153122785491603  0.3580236124615012  0.5221572614613734  1.0000
  C   C24       1.0  0.48980583277054984  0.6563497719741846  0.4906164100470889  1.0000
  C   C25       1.0  0.8215250256366674  0.5626219234537614  0.5363748302384436  1.0000
  C   C26       1.0  0.1683778723194536  0.4681266248671675  0.4432954716336255  1.0000
  C   C27       1.0  0.8753523474463378  0.5073831318582904  0.49774343134546223  1.0000
  C   C28       1.0  0.11960614674899976  0.5068386040961526  0.5004255335108211  1.0000
  C   C29       1.0  0.9604670700230429  0.5084410883938162  0.5008286103963897  1.0000
  C   C30       1.0  0.03430544226016959  0.5070869295511499  0.5005877764457337  1.0000
  C   C31       1.0  0.521960448147773  0.27596856380680623  0.5482836748142148  1.0000
  C   C32       1.0  0.4881930093324413  0.7413347754908413  0.5079766351686673  1.0000
  C   C33       1.0  0.45374592763231186  0.24454825088926674  0.5777460009663001  1.0000
  C   C34       1.0  0.5608118337828502  0.7767936168639337  0.5063147906735991  1.0000
  C   C35       1.0  0.4577022786736933  0.16657012127564025  0.5959566844929611  1.0000
  C   C36       1.0  0.5620745252192378  0.8548443633911587  0.5249363167318322  1.0000
  C   C37       1.0  0.5290193840342284  0.11633225841951854  0.583912485283939  1.0000
  C   C38       1.0  0.49072470897400705  0.9016280907805693  0.5464165863802393  1.0000
  C   C39       1.0  0.5986739890006022  0.1516800668441221  0.5610533782403735  1.0000
  C   C40       1.0  0.4182534424597294  0.8637968924245811  0.5465185481661052  1.0000
  C   C41       1.0  0.5957104285913672  0.22939651071187936  0.542911319348363  1.0000
  C   C42       1.0  0.41616793073026065  0.785939617003791  0.528167802846738  1.0000
  C   C43       1.0  0.5385369551379782  0.03170298805444818  0.5845217963970697  1.0000
  C   C44       1.0  0.48159969518376766  0.984700542443256  0.563018547549099  1.0000
  Br  Br1       1.0  0.860265471886983  0.6425811468533027  0.5958103153762764  1.0000
  Br  Br2       1.0  0.12207156608894822  0.4137287434665068  0.3635167923491592  1.0000
  Br  Br3       1.0  0.6664847353667512  0.8934408609943458  0.514402635791157  1.0000
  Br  Br4       1.0  0.3622492068919384  0.13206813254917898  0.640998930365235  1.0000
  Br  Br5       1.0  0.6423015954793456  0.588050199569629  0.7421147261846811  1.0000
  Br  Br6       1.0  0.3169910313006241  0.5308726805632273  0.2529065582034775  1.0000
  N   N1        1.0  0.7068677541818218  0.5031506670550739  0.4889466524590773  1.0000
  N   N2        1.0  0.2887134831428426  0.5084984713614913  0.5001778752137795  1.0000
  O   O1        1.0  0.5603847777261564  0.49037241317663666  0.3723463897735328  1.0000
  O   O2        1.0  0.42841036739982746  0.5313250345947365  0.613707816166233  1.0000
  O   O3        1.0  0.4252766730075025  0.48115963564584513  0.38547843245132185  1.0000
  O   O4        1.0  0.5654239124644888  0.5070888574443159  0.6031762525384393  1.0000
  O   O5        1.0  0.5797850803914103  0.3835854065063486  0.4967313805821973  1.0000
  O   O6        1.0  0.42214787877581733  0.6271514681994359  0.4842591449215234  1.0000
  O   O7        1.0  0.44562832117919277  0.3959834066765139  0.5267976854883327  1.0000
  O   O8        1.0  0.5598831262335365  0.6190898803439493  0.4850766558239527  1.0000
