data_image0
_chemical_formula_structural       Zn2H24C36S4N4O8
_chemical_formula_sum              "Zn2 H24 C36 S4 N4 O8"
_cell_length_a       9.633507635390488
_cell_length_b       11.464662375535196
_cell_length_c       11.52261727760658
_cell_angle_alpha    67.7794406180365
_cell_angle_beta     82.30654792966851
_cell_angle_gamma    69.495596631509

_space_group_name_H-M_alt    "P 1"
_space_group_IT_number       1

loop_
  _space_group_symop_operation_xyz
  'x, y, z'

loop_
  _atom_site_type_symbol
  _atom_site_label
  _atom_site_symmetry_multiplicity
  _atom_site_fract_x
  _atom_site_fract_y
  _atom_site_fract_z
  _atom_site_occupancy
  Zn  Zn1       1.0  0.44769368253457026  0.20227311724566724  0.2779593813804624  1.0000
  Zn  Zn2       1.0  0.5523012165359801  0.7977247255075425  0.7220411425408173  1.0000
  H   H1        1.0  0.5619514800530254  0.9128366544302224  0.40296681914852417  1.0000
  H   H2        1.0  0.43804968934902877  0.08716119830621949  0.5970312367097891  1.0000
  H   H3        1.0  0.49130134206031056  0.7126673510466117  0.44120700055069767  1.0000
  H   H4        1.0  0.5087013088623918  0.2873294715887056  0.5588008162051068  1.0000
  H   H5        1.0  0.10053396168896701  0.9739584657440828  0.21519549400710491  1.0000
  H   H6        1.0  0.8994676729329922  0.02602942538339899  0.7848036411097681  1.0000
  H   H7        1.0  0.18488372472679523  0.1658015231927976  0.1914421605631276  1.0000
  H   H8        1.0  0.8151178366213045  0.8341893746353859  0.8085515157824902  1.0000
  H   H9        1.0  0.29994605897350357  0.8327180638121162  0.8812372516676278  1.0000
  H   H10       1.0  0.7000530550575162  0.1672797691860097  0.11876625765953013  1.0000
  H   H11       1.0  0.23397115926110243  0.7553115699313222  0.10880368941050021  1.0000
  H   H12       1.0  0.7660293841813652  0.24468525758153692  0.8912026346423617  1.0000
  H   H13       1.0  0.68046200161249  0.47671400386115426  0.17967856293793016  1.0000
  H   H14       1.0  0.31954545603830553  0.5232868224814664  0.8203237218867656  1.0000
  H   H15       1.0  0.7288804169966665  0.5703209174524274  0.9477805351723632  1.0000
  H   H16       1.0  0.2711227980153409  0.4296829038071123  0.052219383375508216  1.0000
  H   H17       1.0  0.8357089538173383  0.8883365435111656  0.4692052979454075  1.0000
  H   H18       1.0  0.16428262610034491  0.11167624159844536  0.5307934777522973  1.0000
  H   H19       1.0  0.9302368138936783  0.24714799802269025  0.4045196906672076  1.0000
  H   H20       1.0  0.0697557806822217  0.7528648031100431  0.5954746217531265  1.0000
  H   H21       1.0  0.24332967730594385  0.3343847456295065  0.5869583375243438  1.0000
  H   H22       1.0  0.7566704237049818  0.6656160885535697  0.41304132765449014  1.0000
  H   H23       1.0  0.9295818484491746  0.5385808680092694  0.28518131028803856  1.0000
  H   H24       1.0  0.07041892411689325  0.46142096985850856  0.7148161645965487  1.0000
  C   C1        1.0  0.4618388376101304  0.9216120938986662  0.3615832882400982  1.0000
  C   C2        1.0  0.5381623317919236  0.0783857588377757  0.6384147676182151  1.0000
  C   C3        1.0  0.4225267826284309  0.8102381931248386  0.3816077069617735  1.0000
  C   C4        1.0  0.5774734258483248  0.1897566461187168  0.6183976661307469  1.0000
  C   C5        1.0  0.29187795652413223  0.8272525195355698  0.3276487236043764  1.0000
  C   C6        1.0  0.7081243333782509  0.17274232713837992  0.6723546691051894  1.0000
  C   C7        1.0  0.2042862936148564  0.9562906720648741  0.257054082080387  1.0000
  C   C8        1.0  0.7957135880335429  0.0436992029785017  0.7429471161083184  1.0000
  C   C9        1.0  0.2506830912914353  0.0630060962884542  0.24292390243826392  1.0000
  C   C10       1.0  0.7493184684329535  0.9369877743936281  0.7570738661222908  1.0000
  C   C11       1.0  0.38102345986960257  0.7550070909040726  0.9511013642580936  1.0000
  C   C12       1.0  0.6189742508045768  0.24499173527139106  0.04890280342924307  1.0000
  C   C13       1.0  0.34500974743090745  0.7117397055494763  0.0770990088581414  1.0000
  C   C14       1.0  0.6549946434380587  0.2882551393239081  0.9229050082828892  1.0000
  C   C15       1.0  0.45360799424805975  0.6119440403058503  0.1628481893480753  1.0000
  C   C16       1.0  0.5463988064986012  0.3880528033442089  0.8371539300988714  1.0000
  C   C17       1.0  0.5943972817296412  0.5575134398265574  0.11669212974847197  1.0000
  C   C18       1.0  0.4056041884461621  0.44248938941799315  0.8833066279277588  1.0000
  C   C19       1.0  0.621206081074675  0.6072673098831485  0.9888004628317405  1.0000
  C   C20       1.0  0.3787988999382108  0.39273452130652936  0.011199129187247098  1.0000
  C   C21       1.0  0.9090179238174796  0.9360964318222853  0.4825603677250356  1.0000
  C   C22       1.0  0.09097148837340538  0.06391935871160831  0.5174331930414198  1.0000
  C   C23       1.0  0.8700553719723915  0.07543425321874507  0.4293144770763249  1.0000
  C   C24       1.0  0.1299386389876531  0.9245775485826895  0.570680913526786  1.0000
  C   C25       1.0  0.9620280258690741  0.13888772438339458  0.4468021836133431  1.0000
  C   C26       1.0  0.03796566315255487  0.8611220829947752  0.5531939925723606  1.0000
  C   C27       1.0  0.7270122491834385  0.15797802071922717  0.35931600059095103  1.0000
  C   C28       1.0  0.2729817894549241  0.8420307959203869  0.640678770883099  1.0000
  C   C29       1.0  0.1363607378805227  0.4070205828430175  0.5498140523184177  1.0000
  C   C30       1.0  0.8636386248150458  0.592982251279075  0.4501832126548776  1.0000
  C   C31       1.0  0.0962161490003695  0.42938278876290775  0.4285492416232515  1.0000
  C   C32       1.0  0.9037846300793436  0.570619046027886  0.5714491015328064  1.0000
  C   C33       1.0  0.9589653622207948  0.5227722164807743  0.3793684358162466  1.0000
  C   C34       1.0  0.04103305420048286  0.4772246251405717  0.6206337907192605  1.0000
  C   C35       1.0  0.1997862129295243  0.35741438226209243  0.34971219205888804  1.0000
  C   C36       1.0  0.8002138880814014  0.642586451920984  0.6502874731199526  1.0000
  S   S1        1.0  0.23077183196183879  0.6907826908212723  0.3509844486662531  1.0000
  S   S2        1.0  0.7692361706963877  0.30920516413470267  0.6490252424597429  1.0000
  S   S3        1.0  0.42405383776201677  0.5520730200328359  0.32644826448446196  1.0000
  S   S4        1.0  0.5759571925961353  0.4479208348542727  0.6735544846963677  1.0000
  N   N1        1.0  0.37814037969150155  0.04602298467825959  0.2926761257387867  1.0000
  N   N2        1.0  0.6218593944910676  0.95397288530463  0.7073193645362394  1.0000
  N   N3        1.0  0.5171267334408397  0.705576823817367  0.906795619814396  1.0000
  N   N4        1.0  0.4828719772405421  0.29442499738907907  0.09320644026757205  1.0000
  O   O1        1.0  0.6493389576788074  0.09060242829568918  0.34675424306490044  1.0000
  O   O2        1.0  0.35065617540528377  0.909403394589354  0.653242392174512  1.0000
  O   O3        1.0  0.687915594362515  0.2825504281104329  0.31911661463583124  1.0000
  O   O4        1.0  0.3120735577602289  0.7174573945995559  0.6808773617265943  1.0000
  O   O5        1.0  0.32771970711747406  0.2778410376306724  0.40005676431005105  1.0000
  O   O6        1.0  0.6722804818183261  0.7221538108438351  0.5999460039680501  1.0000
  O   O7        1.0  0.16293784345549508  0.3758609401268629  0.24217212452995077  1.0000
  O   O8        1.0  0.8370643113027539  0.6241428866484354  0.7578261793949822  1.0000
