data_image0
_chemical_formula_structural       Zn4H22C36S2N8O16
_chemical_formula_sum              "Zn4 H22 C36 S2 N8 O16"
_cell_length_a       7.747396627083126
_cell_length_b       11.068978359588778
_cell_length_c       11.271123948006498
_cell_angle_alpha    82.42613607421447
_cell_angle_beta     80.44534379121065
_cell_angle_gamma    79.00991427924053

_space_group_name_H-M_alt    "P 1"
_space_group_IT_number       1

loop_
  _space_group_symop_operation_xyz
  'x, y, z'

loop_
  _atom_site_type_symbol
  _atom_site_label
  _atom_site_symmetry_multiplicity
  _atom_site_fract_x
  _atom_site_fract_y
  _atom_site_fract_z
  _atom_site_occupancy
  Zn  Zn1       1.0  0.7850065347930483  0.8057848900985718  0.4647692163781868  1.0000
  Zn  Zn2       1.0  0.2149929719476233  0.19421296653339942  0.5352424812943681  1.0000
  Zn  Zn3       1.0  0.1419562852841878  0.7471245733816761  0.541313568130299  1.0000
  Zn  Zn4       1.0  0.8580285321700246  0.25288547240564446  0.4586912980354541  1.0000
  H   H1        1.0  0.3273190798857398  0.886594001094871  0.6220390024212392  1.0000
  H   H2        1.0  0.6726818597664843  0.11340974731631802  0.37795952141635786  1.0000
  H   H3        1.0  0.41526031434831606  0.8581409964847996  0.4846446604249976  1.0000
  H   H4        1.0  0.5847232643334975  0.1418647304823395  0.5153492331508644  1.0000
  H   H5        1.0  0.40944973755050273  0.8114155191216811  0.9476395631940518  1.0000
  H   H6        1.0  0.5905584344086563  0.18858103377009874  0.0523518482302521  1.0000
  H   H7        1.0  0.08437050860770513  0.8782418801866995  0.014263875795485612  1.0000
  H   H8        1.0  0.9156367169092335  0.12177417781467885  0.9857229852555064  1.0000
  H   H9        1.0  0.9880140721168758  0.9964945482820159  0.1953043454885871  1.0000
  H   H10       1.0  0.011988981403263202  0.0035167048409477032  0.8046896468437267  1.0000
  H   H11       1.0  0.44249630349934677  0.24836244620110656  0.26761833067703117  1.0000
  H   H12       1.0  0.5575406127300581  0.7516416879185571  0.7323995345561655  1.0000
  H   H13       1.0  0.5911800298820963  0.3698830093267773  0.0915153441273588  1.0000
  H   H14       1.0  0.4088632651668576  0.6301063555882608  0.9085024805932348  1.0000
  H   H15       1.0  0.601103293366215  0.5898864726368064  0.0919218934862513  1.0000
  H   H16       1.0  0.3989087073264557  0.41010994533520795  0.9080744639709476  1.0000
  H   H17       1.0  0.4562326912347814  0.7026242582887364  0.27396100008261465  1.0000
  H   H18       1.0  0.5437476799854436  0.2973844054865894  0.7260267108494812  1.0000
  H   H19       1.0  0.02236508284124738  0.3080281326050668  0.726244997855666  1.0000
  H   H20       1.0  0.9776533048180982  0.6919636487068389  0.2737520625129903  1.0000
  H   H21       1.0  0.9465207413381693  0.6967409496919574  0.8416793980225066  1.0000
  H   H22       1.0  0.053480710510854124  0.303259735855768  0.1583300365635125  1.0000
  C   C1        1.0  0.36176718834878596  0.8564390910403715  0.0296767365653707  1.0000
  C   C2        1.0  0.6382360436204735  0.14356103258377576  0.9703192575412557  1.0000
  C   C3        1.0  0.18222500950002996  0.8965502839856259  0.06540138686550989  1.0000
  C   C4        1.0  0.8177813087631733  0.10344229903491711  0.9346003831503109  1.0000
  C   C5        1.0  0.12822754441683062  0.9626112034979644  0.16604726831865685  1.0000
  C   C6        1.0  0.8717763742529597  0.03738612126490182  0.8339498276409144  1.0000
  C   C7        1.0  0.25246636338584233  0.989262851441332  0.23193315964843453  1.0000
  C   C8        1.0  0.747530634512337  0.0107465606387294  0.7680607548457559  1.0000
  C   C9        1.0  0.18268157278201616  0.0727052646525763  0.33092496462933946  1.0000
  C   C10       1.0  0.8173172034376535  0.9272966037967479  0.6690748605319567  1.0000
  C   C11       1.0  0.43485989436062067  0.9428252135289769  0.20197112471817746  1.0000
  C   C12       1.0  0.565138814457754  0.05718795242054851  0.7980204566444156  1.0000
  C   C13       1.0  0.4848563627339074  0.8773918662455531  0.09906386950973459  1.0000
  C   C14       1.0  0.5151385212963505  0.1226100411227478  0.9009345764897388  1.0000
  C   C15       1.0  0.56974045512996  0.956792606075382  0.28063439123017986  1.0000
  C   C16       1.0  0.43025110224377267  0.04320193755519602  0.7193633707258654  1.0000
  C   C17       1.0  0.4414998176719891  0.34654142480462724  0.2689380494173362  1.0000
  C   C18       1.0  0.5585120781472881  0.6534706544610246  0.7310593881534259  1.0000
  C   C19       1.0  0.525596967893989  0.4154643231909888  0.17110567573341487  1.0000
  C   C20       1.0  0.47442413526978544  0.5845364557642443  0.8288999540484807  1.0000
  C   C21       1.0  0.5313812048293515  0.5425865005399474  0.1711408810119366  1.0000
  C   C22       1.0  0.4686390664551539  0.45740231693643113  0.828863388476158  1.0000
  C   C23       1.0  0.45155948673216534  0.6057351152491607  0.26973842713608315  1.0000
  C   C24       1.0  0.5484243065023904  0.3942683778074213  0.7302698740142117  1.0000
  C   C25       1.0  0.3634854396846946  0.5382356034926234  0.36848895520467545  1.0000
  C   C26       1.0  0.6364870698095403  0.46176732136917314  0.6315063613275168  1.0000
  C   C27       1.0  0.35993473153017413  0.4091602490076413  0.3685942190489015  1.0000
  C   C28       1.0  0.6400524454684343  0.5908475529500878  0.6313911047031836  1.0000
  C   C29       1.0  0.21447735307497595  0.4722393190358007  0.5371273814302808  1.0000
  C   C30       1.0  0.7855232909058784  0.5277595615777955  0.46288054456822886  1.0000
  C   C31       1.0  0.10838822689080978  0.4875452944598282  0.6536937452056861  1.0000
  C   C32       1.0  0.8916342217175173  0.5124511237291146  0.346302425906046  1.0000
  C   C33       1.0  0.029904025998703752  0.4034293923303809  0.7375862157303456  1.0000
  C   C34       1.0  0.9701062003178864  0.5965631757713866  0.2624160417295299  1.0000
  C   C35       1.0  0.9869719450239313  0.6125124163563813  0.7969749702987415  1.0000
  C   C36       1.0  0.013004524061017327  0.38747917208623756  0.2030299691939774  1.0000
  S   S1        1.0  0.9271629281309826  0.4737745421923237  0.8624575691907806  1.0000
  S   S2        1.0  0.07286048672894199  0.5261910013862235  0.1375540712462637  1.0000
  N   N1        1.0  0.6708334879125886  0.8259806136748654  0.060873499862040575  1.0000
  N   N2        1.0  0.32916116192950556  0.1740222186471243  0.9391248760923716  1.0000
  N   N3        1.0  0.26589878925998517  0.3696172910196439  0.4782420471144276  1.0000
  N   N4        1.0  0.734113405745781  0.6303680214537553  0.5217554203993231  1.0000
  N   N5        1.0  0.2738563390479598  0.5756040945675664  0.47506998519317983  1.0000
  N   N6        1.0  0.7261285890238085  0.4243858781322912  0.5249262603822941  1.0000
  N   N7        1.0  0.07892073148764206  0.6063380512137259  0.6888070061215856  1.0000
  N   N8        1.0  0.9210645563156065  0.39366444791571126  0.31120390546917776  1.0000
  O   O1        1.0  0.02386000348052159  0.12753487534484978  0.3349635728288973  1.0000
  O   O2        1.0  0.9761222255550236  0.8724536863430719  0.6650508466628509  1.0000
  O   O3        1.0  0.29254839944664457  0.08510461153685613  0.4003109519981152  1.0000
  O   O4        1.0  0.7074442874504143  0.9149010646196704  0.5996846734257132  1.0000
  O   O5        1.0  0.6504497068597245  0.04608267251146712  0.25920552153539933  1.0000
  O   O6        1.0  0.34955883057507714  0.9539219950160601  0.7407930154274708  1.0000
  O   O7        1.0  0.5856763294455049  0.867459466425551  0.3668142120713966  1.0000
  O   O8        1.0  0.4143034883343689  0.13255533905000763  0.6331853578361474  1.0000
  O   O9        1.0  0.7081276137409489  0.7724708591306142  0.9666559042764646  1.0000
  O   O10       1.0  0.2918576124051527  0.2275385257051852  0.03333922303887249  1.0000
  O   O11       1.0  0.7839159496053155  0.835577481136717  0.12360204041149096  1.0000
  O   O12       1.0  0.2160771441848865  0.16442055236113623  0.8764031973084343  1.0000
  O   O13       1.0  0.026725288042506252  0.7916791182563472  0.39962121962454933  1.0000
  O   O14       1.0  0.973269135328266  0.20831453047501475  0.6003754511429803  1.0000
  O   O15       1.0  0.3422814492230374  0.8277682848101126  0.5592849179950576  1.0000
  O   O16       1.0  0.6576985291692807  0.17224106391692834  0.4407116400696791  1.0000
