data_image0
_chemical_formula_structural       Zn2H32C36N16O16
_chemical_formula_sum              "Zn2 H32 C36 N16 O16"
_cell_length_a       7.43907131110597
_cell_length_b       11.479784062477252
_cell_length_c       13.611
_cell_angle_alpha    114.77197773109822
_cell_angle_beta     91.15196667437164
_cell_angle_gamma    89.99193449340592

_space_group_name_H-M_alt    "P 1"
_space_group_IT_number       1

loop_
  _space_group_symop_operation_xyz
  'x, y, z'

loop_
  _atom_site_type_symbol
  _atom_site_label
  _atom_site_symmetry_multiplicity
  _atom_site_fract_x
  _atom_site_fract_y
  _atom_site_fract_z
  _atom_site_occupancy
  Zn  Zn1       1.0  0.5000008206311719  0.0  0.5000006335119521  1.0000
  Zn  Zn2       1.0  4.7462018669976127e-07  0.4999995533439687  0.49999992083702677  1.0000
  H   H1        1.0  0.45231390388624965  0.0674536478882359  0.7331038855492621  1.0000
  H   H2        1.0  0.0470144171306401  0.3344955277283077  0.2676545170825334  1.0000
  H   H3        1.0  0.547684653039795  0.9325454587996944  0.2668957094281978  1.0000
  H   H4        1.0  0.952985508857829  0.6655054977912584  0.7323457710524506  1.0000
  H   H5        1.0  0.3483102220506993  0.255510661128298  0.8990882142536947  1.0000
  H   H6        1.0  0.15124292219162067  0.3567501370334298  0.10138793037702948  1.0000
  H   H7        1.0  0.6516896794009028  0.7444884455596323  0.10091139549734855  1.0000
  H   H8        1.0  0.8487556715397206  0.6432518479019506  0.8986134168762232  1.0000
  H   H9        1.0  0.5111549574199756  0.2909313336983956  0.5639425472543421  1.0000
  H   H10       1.0  0.9889558596186847  0.7264044168136294  0.435819494358199  1.0000
  H   H11       1.0  0.48884763308274876  0.7090677729895418  0.4360578267437346  1.0000
  H   H12       1.0  0.0110413773186693  0.2735966087059367  0.5641807642296257  1.0000
  H   H13       1.0  0.4236180794322522  0.4892185978015604  0.7229767239144846  1.0000
  H   H14       1.0  0.0766673695015143  0.7657548565726272  0.27645951245223427  1.0000
  H   H15       1.0  0.5763858678644668  0.5107814683021914  0.2770232693492644  1.0000
  H   H16       1.0  0.9233285229102749  0.23424616894693878  0.7235407313620073  1.0000
  H   H17       1.0  0.17704224634837834  0.943816675824898  0.1680766485628806  1.0000
  H   H18       1.0  0.323251318268639  0.7766355913600691  0.8315220366902024  1.0000
  H   H19       1.0  0.8229644145363224  0.05618530911048229  0.8319233179321087  1.0000
  H   H20       1.0  0.6767459064002778  0.2233644747436827  0.16847714800577046  1.0000
  H   H21       1.0  0.1863353065957369  0.1576272217531383  0.16200895721124195  1.0000
  H   H22       1.0  0.3135991843741408  0.9965097113593089  0.8376000469502995  1.0000
  H   H23       1.0  0.81366593938143  0.8423718849347992  0.8379906673133775  1.0000
  H   H24       1.0  0.6863966835007886  0.0034893953286215  0.1623987837801195  1.0000
  H   H25       1.0  0.387901827687152  0.1512624572191541  0.397409029967477  1.0000
  H   H26       1.0  0.112345742945287  0.7537717530107669  0.6024080658594781  1.0000
  H   H27       1.0  0.612098086032887  0.8487376088845906  0.6025909189755367  1.0000
  H   H28       1.0  0.8876541707747521  0.2462283130929848  0.3975911483836611  1.0000
  H   H29       1.0  0.2127660574910523  0.0744631398516447  0.4009879832818796  1.0000
  H   H30       1.0  0.2875151247263191  0.6734849591462648  0.5989401747239212  1.0000
  H   H31       1.0  0.7872338562289871  0.9255369262521072  0.5990127003610082  1.0000
  H   H32       1.0  0.7124848012621499  0.3265160663733013  0.40106011341107006  1.0000
  C   C1        1.0  0.43936922144087726  0.16274666455586836  0.7348844356959673  1.0000
  C   C2        1.0  0.0601380004996699  0.42783805203875147  0.2655923360142153  1.0000
  C   C3        1.0  0.560630667742295  0.8372514827162475  0.2651155695629726  1.0000
  C   C4        1.0  0.9398605932316715  0.5721639328966361  0.7344082765391631  1.0000
  C   C5        1.0  0.3851920407783497  0.2671925081234363  0.8266003032548992  1.0000
  C   C6        1.0  0.11445816219612229  0.4406644821042888  0.17373506276923215  1.0000
  C   C7        1.0  0.6148065284161248  0.7328075579803155  0.17339963091453095  1.0000
  C   C8        1.0  0.8855377056788073  0.5593346245836415  0.8262645026610611  1.0000
  C   C9        1.0  0.4746073487730698  0.2871953685046478  0.6395640005585718  1.0000
  C   C10       1.0  0.025376488252767608  0.6472631654353478  0.36035706585143135  1.0000
  C   C11       1.0  0.5253939094725268  0.7128046975991039  0.3604366978578922  1.0000
  C   C12       1.0  0.9746221054785809  0.3527388195000327  0.639642812002073  1.0000
  C   C13       1.0  0.4255010416977001  0.3974763790748739  0.728384875083506  1.0000
  C   C14       1.0  0.074616502883508  0.6687751868976548  0.27136063917950537  1.0000
  C   C15       1.0  0.574498872022339  0.6025236870288708  0.27161580855938167  1.0000
  C   C16       1.0  0.9253833985680942  0.3312239197902827  0.7286389705715307  1.0000
  C   C17       1.0  0.376383801429597  0.3874581591074602  0.8230873446030954  1.0000
  C   C18       1.0  0.1235485493826971  0.5642132540161526  0.17692764207146883  1.0000
  C   C19       1.0  0.6236147677648847  0.6125419069962845  0.1769133242662092  1.0000
  C   C20       1.0  0.8764500075433475  0.4357858526717777  0.8230726876058653  1.0000
  C   C21       1.0  0.3122773125560556  0.5009474561717582  0.9170084224384496  1.0000
  C   C22       1.0  0.18782253665723658  0.5836874762818667  0.08282698889888697  1.0000
  C   C23       1.0  0.6877226011639834  0.4990526099319936  0.08299226120443852  1.0000
  C   C24       1.0  0.81217872158836  0.4163125898218851  0.917173709517584  1.0000
  C   C25       1.0  0.25019219124392583  0.7136307546180589  0.9997449846602604  1.0000
  C   C26       1.0  0.7498077224761133  0.2863693114856929  0.0002542295828788752  1.0000
  C   C27       1.0  0.2503144309237371  0.8425292291288855  0.9997975649123131  1.0000
  C   C28       1.0  0.7496868273218598  0.1574708369748663  0.00020166410440230643  1.0000
  C   C29       1.0  0.2097418388979264  0.9517596793788385  0.09348971660371312  1.0000
  C   C30       1.0  0.29066900620641434  0.8587203304667596  0.9061127865687053  1.0000
  C   C31       1.0  0.7902621083987853  0.0482403867249133  0.9065117460597917  1.0000
  C   C32       1.0  0.7093268616685153  0.1412787762211778  0.09388604416171378  1.0000
  C   C33       1.0  0.21360218732229444  0.070980460433745  0.0892851646926616  1.0000
  C   C34       1.0  0.2865812639847931  0.9821299870850737  0.910350105931627  1.0000
  C   C35       1.0  0.7864017722428543  0.9290205650858212  0.9107151677630653  1.0000
  C   C36       1.0  0.7134173052096813  0.0178700790186781  0.08964909353792899  1.0000
  N   N1        1.0  0.47908153853968843  0.1714005952306508  0.6420334855331261  1.0000
  N   N2        1.0  0.0206515817321105  0.5291667536149234  0.35819302269053566  1.0000
  N   N3        1.0  0.5209183629119138  0.8285985114572794  0.357966858917784  1.0000
  N   N4        1.0  0.9793469997308011  0.4708342719046427  0.6418079853707467  1.0000
  N   N5        1.0  0.3178254216641818  0.6159171318426147  0.9133333012005663  1.0000
  N   N6        1.0  0.18242385548291656  0.7021532631920735  0.0862424232757632  1.0000
  N   N7        1.0  0.6821758365814219  0.3840829342611372  0.08666592781614918  1.0000
  N   N8        1.0  0.8175787595566746  0.2978477623274927  0.9137578944063802  1.0000
  N   N9        1.0  0.2500119959742193  0.4798921166386378  2.062096480421276e-05  1.0000
  N   N10       1.0  0.7499879300142498  0.5201089088809283  0.9999796671701799  1.0000
  N   N11       1.0  0.2500366150189635  0.0879458103364286  0.9998188820174432  1.0000
  N   N12       1.0  0.7499632987010687  0.9120542557673232  0.00018106692556315242  1.0000
  N   N13       1.0  0.8686743969713788  0.036850202138325  0.4112313793841621  1.0000
  N   N14       1.0  0.6313757123752382  0.6257118079245245  0.5887162435069582  1.0000
  N   N15       1.0  0.1313255167486531  0.9631498639654267  0.5887678348589701  1.0000
  N   N16       1.0  0.3686228445508064  0.3742872987634058  0.4112840861703687  1.0000
  O   O1        1.0  0.34571971726152384  0.07122319263559969  0.40138101899648854  1.0000
  O   O2        1.0  0.1545621603683287  0.6697346027152591  0.5982794063404666  1.0000
  O   O3        1.0  0.6542801964585151  0.9287768734681521  0.598618929946525  1.0000
  O   O4        1.0  0.8454377533517106  0.3302654633884927  0.4017212773024211  1.0000
  O   O5        1.0  0.7215978071717616  0.092764955988244  0.45136806692199366  1.0000
  O   O6        1.0  0.7783743672604402  0.6417196608412397  0.5485468513473889  1.0000
  O   O7        1.0  0.2784034633422721  0.9072360695313222  0.5486329706864479  1.0000
  O   O8        1.0  0.2216241896656115  0.35827944584669064  0.4514542130298123  1.0000
  O   O9        1.0  0.9024329716258563  0.9267064541337646  0.4012847160758424  1.0000
  O   O10       1.0  0.5975326599967516  0.5254039247782812  0.5985542700384625  1.0000
  O   O11       1.0  0.09756829888817721  0.0732945713858015  0.598715586832725  1.0000
  O   O12       1.0  0.4024645646721652  0.47459614132546324  0.40144564935738447  1.0000
  O   O13       1.0  0.9808030003461284  0.09976965087256669  0.3810609174136559  1.0000
  O   O14       1.0  0.5192856419152037  0.7186859165610144  0.6190514834389944  1.0000
  O   O15       1.0  0.0191969256423405  0.9002313746469993  0.6189393707213353  1.0000
  O   O16       1.0  0.4807129027424111  0.2813122307111016  0.3809477723464808  1.0000
