data_image0
_chemical_formula_structural       La2H30C18O24
_chemical_formula_sum              "La2 H30 C18 O24"
_cell_length_a       7.282709870202208
_cell_length_b       10.128174827433124
_cell_length_c       10.657320095759292
_cell_angle_alpha    114.99145433844735
_cell_angle_beta     105.59647666886877
_cell_angle_gamma    98.85995104642967

_space_group_name_H-M_alt    "P 1"
_space_group_IT_number       1

loop_
  _space_group_symop_operation_xyz
  'x, y, z'

loop_
  _atom_site_type_symbol
  _atom_site_label
  _atom_site_symmetry_multiplicity
  _atom_site_fract_x
  _atom_site_fract_y
  _atom_site_fract_z
  _atom_site_occupancy
  La  La1       1.0  0.8586169705167562  0.2078489392438456  0.6638515203367206  1.0000
  La  La2       1.0  0.6947586339849678  0.5440429305680468  0.3361558055555208  1.0000
  H   H1        1.0  0.8688477837981806  0.8615780169782212  0.7445442290432924  1.0000
  H   H2        1.0  0.623887360914729  0.1170631711971453  0.255416485342721  1.0000
  H   H3        1.0  0.07382322792032882  0.6290810368761939  0.9847149649647664  1.0000
  H   H4        1.0  0.58866334283357  0.6444657267178402  0.01517269583630555  1.0000
  H   H5        1.0  0.1077672665607565  0.1028757259220896  0.22428839368422623  1.0000
  H   H6        1.0  0.3835236494566558  0.8788803923430067  0.7756455503714363  1.0000
  H   H7        1.0  0.218957203991387  0.32314952758518706  0.5868651384376592  1.0000
  H   H8        1.0  0.13192205783566638  0.7363514787901408  0.4132271613742232  1.0000
  H   H9        1.0  0.12696927296840949  0.14607281366209432  0.46496035663240326  1.0000
  H   H10       1.0  0.1620586393391861  0.6812850112439719  0.535192634638598  1.0000
  H   H11       1.0  0.04092090633917413  0.9093029229411657  0.575191003326772  1.0000
  H   H12       1.0  0.9658204962547428  0.3341511819956793  0.42493668486593356  1.0000
  H   H13       1.0  0.17892190003872335  0.0456493795716284  0.7349311209528224  1.0000
  H   H14       1.0  0.943852090850015  0.3106080265219334  0.265157240176066  1.0000
  H   H15       1.0  0.3097561210511159  0.28372967902180324  0.8809208652951244  1.0000
  H   H16       1.0  0.9285271756140288  0.40257375547305674  0.119083810753871  1.0000
  H   H17       1.0  0.299568710065877  0.4141133459332522  0.833527610426934  1.0000
  H   H18       1.0  0.965981654280341  0.5803474054085243  0.16644561002960506  1.0000
  H   H19       1.0  0.45061351554625145  0.15078060253200928  0.4370413733228915  1.0000
  H   H20       1.0  0.5140485881579834  0.7138912556510915  0.5630424063685452  1.0000
  H   H21       1.0  0.5277741941151887  0.31696549614954267  0.46378105518719803  1.0000
  H   H22       1.0  0.5642367378755963  0.853313595551974  0.5362762204251865  1.0000
  H   H23       1.0  0.3935490213314026  0.0151488050715827  0.543306309524404  1.0000
  H   H24       1.0  0.350199382995143  0.4719116333185339  0.4566348586715351  1.0000
  H   H25       1.0  0.4933184066195436  0.0725486266494357  0.7192169250241067  1.0000
  H   H26       1.0  0.27392093514318105  0.35330062735704365  0.28078595598351097  1.0000
  H   H27       1.0  0.6057846000287627  0.4196513732204964  0.797635988814463  1.0000
  H   H28       1.0  0.307980022955057  0.6218462235313992  0.2022584414105494  1.0000
  H   H29       1.0  0.7458264565783066  0.41500681034131054  0.9408205508443006  1.0000
  H   H30       1.0  0.30496270411430976  0.4741589974129356  0.05904630354196882  1.0000
  C   C1        1.0  0.9886271067014007  0.9989074469469444  0.9849735851209193  1.0000
  C   C2        1.0  0.5034814260612633  0.014089214846592306  0.014995195420247902  1.0000
  C   C3        1.0  0.9353637136763948  0.8635488979620619  0.8501291922206066  1.0000
  C   C4        1.0  0.5848623962804919  0.0134836603556678  0.14983428658806022  1.0000
  C   C5        1.0  0.9681364407237538  0.7308372868017728  0.8506327482725526  1.0000
  C   C6        1.0  0.6170728441064809  0.880258931856801  0.1493019215214772  1.0000
  C   C7        1.0  0.04983235884634496  0.7331571800777823  0.9865144110151932  1.0000
  C   C8        1.0  0.5628641678341424  0.7467291164704974  0.01340112885863931  1.0000
  C   C9        1.0  0.0976554025052464  0.8664425581670158  0.12144156397078373  1.0000
  C   C10       1.0  0.4759531511589046  0.745152554920587  0.8784851888949137  1.0000
  C   C11       1.0  0.06886660992261526  0.9988533960877389  0.11949336612111232  1.0000
  C   C12       1.0  0.44914616116697187  0.8795678453998831  0.8804622031426206  1.0000
  C   C13       1.0  0.9119200859677077  0.5840616174834565  0.7066580138044642  1.0000
  C   C14       1.0  0.705068882386513  0.8774164174475275  0.2932629343069165  1.0000
  C   C15       1.0  0.17477273280628217  0.8696560601255784  0.2675556048692656  1.0000
  C   C16       1.0  0.4071135156322824  0.6022549701176131  0.7323943097320793  1.0000
  C   C17       1.0  0.9608435733710435  0.1440482735365336  0.9881300308450279  1.0000
  C   C18       1.0  0.47279034246436413  0.156173950716493  0.011918867113095607  1.0000
  O   O1        1.0  0.08994810129542688  0.23845064930835497  0.5179569528903231  1.0000
  O   O2        1.0  0.07193519688556192  0.7206430100166586  0.48218207175305866  1.0000
  O   O3        1.0  0.23522870872196938  0.9980401394257898  0.38725452202022137  1.0000
  O   O4        1.0  0.3478952732446173  0.6109264719006262  0.6126842235936323  1.0000
  O   O5        1.0  0.061482515046023395  0.0171839612848572  0.6453862691360117  1.0000
  O   O6        1.0  0.9161879721366758  0.3718334132879662  0.3547259792477035  1.0000
  O   O7        1.0  0.1763052122597699  0.74411796061721  0.26885465011484655  1.0000
  O   O8        1.0  0.40754822472699453  0.4755119727912956  0.731234703667738  1.0000
  O   O9        1.0  0.22940786022710563  0.35448171264975775  0.870082048928744  1.0000
  O   O10       1.0  0.8591395386080974  0.48419355183055746  0.12989241567234433  1.0000
  O   O11       1.0  0.9772483156374251  0.4767668892409987  0.712707305012252  1.0000
  O   O12       1.0  0.7643992287851588  0.7640751182914656  0.2871327503979586  1.0000
  O   O13       1.0  0.800382315304617  0.5761349204999747  0.5876653805842694  1.0000
  O   O14       1.0  0.7127263152368783  0.9884453056022551  0.41231329625706786  1.0000
  O   O15       1.0  0.5680215030815317  0.24339959526179908  0.49516562039172385  1.0000
  O   O16       1.0  0.573343250667193  0.7484358869448259  0.5049739379935119  1.0000
  O   O17       1.0  0.5169579234559336  0.031030753872343605  0.6249233990875285  1.0000
  O   O18       1.0  0.391983936686465  0.4061618992928686  0.37508434019387243  1.0000
  O   O19       1.0  0.8822089448264234  0.1425107551147704  0.866431702067672  1.0000
  O   O20       1.0  0.5157579238760945  0.276223546448378  0.13365720308822665  1.0000
  O   O21       1.0  0.7045076391303269  0.37307023811241186  0.8311694838745967  1.0000
  O   O22       1.0  0.37317083435286247  0.5417267569947769  0.16876279738428931  1.0000
  O   O23       1.0  0.019148019466726424  0.26442365873084833  0.11643792547904039  1.0000
  O   O24       1.0  0.4031201895254738  0.1484435393744903  0.8836635257548907  1.0000
