data_image0
_chemical_formula_structural       U4H52C32N4O28
_chemical_formula_sum              "U4 H52 C32 N4 O28"
_cell_length_a       8.136994352000007
_cell_length_b       12.045404843339881
_cell_length_c       12.309392191010298
_cell_angle_alpha    89.99993880605498
_cell_angle_beta     89.9998704620576
_cell_angle_gamma    95.14054427333875

_space_group_name_H-M_alt    "P 1"
_space_group_IT_number       1

loop_
  _space_group_symop_operation_xyz
  'x, y, z'

loop_
  _atom_site_type_symbol
  _atom_site_label
  _atom_site_symmetry_multiplicity
  _atom_site_fract_x
  _atom_site_fract_y
  _atom_site_fract_z
  _atom_site_occupancy
  U   U1        1.0  0.8633402962018764  0.3015154675595824  0.4000530658711057  1.0000
  U   U2        1.0  0.6366632920347115  0.19848219445323428  0.9000446707322283  1.0000
  U   U3        1.0  0.13665168656829954  0.6984936967942943  0.5999365475896781  1.0000
  U   U4        1.0  0.3633435268709349  0.8015110079690758  0.09994819227692632  1.0000
  H   H1        1.0  0.5688662520208752  0.6039026488737279  0.5944250335505501  1.0000
  H   H2        1.0  0.9311234055645982  0.8961007802245504  0.094419417662337  1.0000
  H   H3        1.0  0.431124007958303  0.39610319044912506  0.4055783905058092  1.0000
  H   H4        1.0  0.06887691353131228  0.10389831045191042  0.9055815692265909  1.0000
  H   H5        1.0  0.6640100064593  0.5851072299918627  0.7207943308382384  1.0000
  H   H6        1.0  0.8359881542355436  0.9148901273190616  0.22079290017128275  1.0000
  H   H7        1.0  0.33598785724080216  0.4148918786104829  0.27920990560370745  1.0000
  H   H8        1.0  0.16401940725962316  0.08510807607581944  0.7792097114882639  1.0000
  H   H9        1.0  0.378445763171669  0.47515070832078277  0.6886394812171375  1.0000
  H   H10       1.0  0.12155298392614361  0.0248477608042492  0.18864202886561543  1.0000
  H   H11       1.0  0.62155308069795  0.5248467243282918  0.3113590685103702  1.0000
  H   H12       1.0  0.8784538449482396  0.9751537855416786  0.811358958017145  1.0000
  H   H13       1.0  0.4730660030283005  0.3951551736155921  0.5911326065851767  1.0000
  H   H14       1.0  0.026931865194406195  0.1048434322496448  0.09113358813961982  1.0000
  H   H15       1.0  0.5269319844483462  0.6048447684864371  0.4088667555294663  1.0000
  H   H16       1.0  0.9730682063687581  0.8951539914348959  0.9088657739747746  1.0000
  H   H17       1.0  0.3214423443816301  0.17832715782248706  0.2609963054677635  1.0000
  H   H18       1.0  0.1785593318831005  0.3216678556064211  0.7609990923809208  1.0000
  H   H19       1.0  0.6785585835701511  0.8216677564075001  0.7390046814228912  1.0000
  H   H20       1.0  0.821440615907882  0.6783287345800277  0.23900270689738792  1.0000
  H   H21       1.0  0.4523957263168228  0.06864032373427882  0.24789163677827733  1.0000
  H   H22       1.0  0.04760133359079789  0.4313564097188873  0.7478904440388592  1.0000
  H   H23       1.0  0.5476028700113387  0.9313554419196779  0.752110162501481  1.0000
  H   H24       1.0  0.9523964063487468  0.5686418653896226  0.2521097304646389  1.0000
  H   H25       1.0  0.5379626234536518  0.2095982562553189  0.23820377455790984  1.0000
  H   H26       1.0  0.9620339300495716  0.29039800463182536  0.7382069807467744  1.0000
  H   H27       1.0  0.46203560157393764  0.790395008910224  0.7617963999478335  1.0000
  H   H28       1.0  0.03796676034691156  0.7096035865330562  0.2617956309161684  1.0000
  H   H29       1.0  0.5169426063423186  0.1417253445845219  0.6053616780326865  1.0000
  H   H30       1.0  0.9830613034694836  0.35827604654181033  0.10536333508790112  1.0000
  H   H31       1.0  0.48306029191140704  0.8582745616604301  0.39463930885388276  1.0000
  H   H32       1.0  0.016938406772005997  0.6417272205816645  0.8946368394115115  1.0000
  H   H33       1.0  0.3478965186227184  0.037217753503057296  0.6249135965586633  1.0000
  H   H34       1.0  0.1521063870713633  0.4627824392326971  0.1249132044933319  1.0000
  H   H35       1.0  0.6521061320924559  0.9627804857478426  0.3750890151045496  1.0000
  H   H36       1.0  0.8478935707072351  0.537222494884297  0.8750861576172327  1.0000
  H   H37       1.0  0.3112283450440144  0.18041156936773464  0.6140259281819951  1.0000
  H   H38       1.0  0.1887722679782726  0.31958948906042656  0.11402481798238992  1.0000
  H   H39       1.0  0.6887734492810935  0.8195891793371789  0.3859758710927609  1.0000
  H   H40       1.0  0.8112274422617674  0.6804137780625085  0.8859761689048257  1.0000
  H   H41       1.0  0.2345170938202088  0.0075058962557577  0.34801212908934803  1.0000
  H   H42       1.0  0.26548218707752375  0.4924915215655049  0.8480113577800881  1.0000
  H   H43       1.0  0.7654832252757017  0.992493194420703  0.6519888577995872  1.0000
  H   H44       1.0  0.7345183795583949  0.5075092361055482  0.1519871919443929  1.0000
  H   H45       1.0  0.1129117244260911  0.0763898371304919  0.4452452550901854  1.0000
  H   H46       1.0  0.3870885600968704  0.42360827780689186  0.9452443729861602  1.0000
  H   H47       1.0  0.8870910500598158  0.9236092356179666  0.5547557317969094  1.0000
  H   H48       1.0  0.6129131104691298  0.5763916374047255  0.0547525519623449  1.0000
  H   H49       1.0  0.21298980264885609  0.9561682311555799  0.4820483255855592  1.0000
  H   H50       1.0  0.2870133703538329  0.543832567191494  0.9820455526355261  1.0000
  H   H51       1.0  0.7870092887491466  0.04383086848382332  0.5179542860798776  1.0000
  H   H52       1.0  0.712992354596274  0.45616982161600117  0.0179538094720328  1.0000
  C   C1        1.0  0.7762233687060203  0.5111920364103214  0.5853107474961021  1.0000
  C   C2        1.0  0.723772459944598  0.988811359806036  0.0853134702091651  1.0000
  C   C3        1.0  0.22377388615564803  0.48881124864487907  0.41468374029057037  1.0000
  C   C4        1.0  0.27622748784202134  0.011185230378814002  0.914690766232532  1.0000
  C   C5        1.0  0.6247753343995017  0.5421885104439285  0.6454307915580558  1.0000
  C   C6        1.0  0.8752222395020866  0.9578114550769995  0.14543169437690304  1.0000
  C   C7        1.0  0.3752214253821506  0.4578114406221019  0.354568570557504  1.0000
  C   C8        1.0  0.1247832379065628  0.0421892667353703  0.8545709172828991  1.0000
  C   C9        1.0  0.49667874036103393  0.4444401177235946  0.6656415223143598  1.0000
  C   C10       1.0  0.0033188613134668998  0.055558390502390906  0.1656442154991851  1.0000
  C   C11       1.0  0.5033188758135837  0.5555573238894882  0.33435702741407175  1.0000
  C   C12       1.0  0.9966864923288056  0.9444414978140259  0.8343575837733398  1.0000
  C   C13       1.0  0.5446241491273653  0.36489289369673383  0.7518862410544855  1.0000
  C   C14       1.0  0.9553689198889684  0.13510504314909613  0.25188411046711684  1.0000
  C   C15       1.0  0.4553711354207266  0.6351053993392526  0.24811474583864174  1.0000
  C   C16       1.0  0.044633121979060796  0.8648973725514681  0.7481136268675996  1.0000
  C   C17       1.0  0.4451300674691367  0.15336327705799846  0.2793943720382757  1.0000
  C   C18       1.0  0.054869211359552084  0.3466325636871376  0.7793956938971079  1.0000
  C   C19       1.0  0.5548681575599019  0.8466299881080772  0.7206049900796715  1.0000
  C   C20       1.0  0.9451323354342589  0.6533665180263882  0.22060366821531122  1.0000
  C   C21       1.0  0.47405592485412734  0.15857559600431162  0.3996529255246061  1.0000
  C   C22       1.0  0.025942438679862782  0.3414250970948202  0.8996534838693863  1.0000
  C   C23       1.0  0.5259468496332288  0.84142347674468  0.6003472489746927  1.0000
  C   C24       1.0  0.9740593556437885  0.6585756516095672  0.10034912779316582  1.0000
  C   C25       1.0  0.38848455504206925  0.11623950848225212  0.5849635425928456  1.0000
  C   C26       1.0  0.1115175134080886  0.3837624125618362  0.0849632938839306  1.0000
  C   C27       1.0  0.6115169917488357  0.883759573230215  0.415037444295166  1.0000
  C   C28       1.0  0.8884825681383292  0.6162433550516511  0.9150360682261081  1.0000
  C   C29       1.0  0.2237727303927812  0.03217823489104891  0.43278072893345154  1.0000
  C   C30       1.0  0.27622895018286897  0.46782072091254173  0.9327799672137689  1.0000
  C   C31       1.0  0.7762300440931255  0.96782083785741  0.5672202579536432  1.0000
  C   C32       1.0  0.7237716164501435  0.5321800367574454  0.0672202072863044  1.0000
  N   N1        1.0  0.3696108931436512  0.10219592718996756  0.46770594668373633  1.0000
  N   N2        1.0  0.13039091002563197  0.39780464983910946  0.9677062893808782  1.0000
  N   N3        1.0  0.6303916338051465  0.897801478564972  0.5322958525922135  1.0000
  N   N4        1.0  0.8696085526816617  0.602196950291912  0.0322930727317896  1.0000
  O   O1        1.0  0.7804703359845747  0.37311305509138043  0.28504903711156265  1.0000
  O   O2        1.0  0.7195310844875422  0.1268839420504193  0.7850503408363637  1.0000
  O   O3        1.0  0.21953083950285904  0.6268835261315999  0.7149519497780332  1.0000
  O   O4        1.0  0.2804692346040056  0.8731151486244502  0.21495308321595266  1.0000
  O   O5        1.0  0.952008518398898  0.2301642480895865  0.5127304114987652  1.0000
  O   O6        1.0  0.5479888416991158  0.26983230826124344  0.012736063708331403  1.0000
  O   O7        1.0  0.0479943798795404  0.7698356581644108  0.4872567647952621  1.0000
  O   O8        1.0  0.4520025122225135  0.7301643446716356  0.9872681727397891  1.0000
  O   O9        1.0  0.7599905069416195  0.43094117965517853  0.5182091943005247  1.0000
  O   O10       1.0  0.7400149423469883  0.06906031671591961  0.018207456008809703  1.0000
  O   O11       1.0  0.24001091608291594  0.5690570685613211  0.48179098020022343  1.0000
  O   O12       1.0  0.25999053506311753  0.9309404050969903  0.9817943432631964  1.0000
  O   O13       1.0  0.9128519982184643  0.5685432030908899  0.60188738799107  1.0000
  O   O14       1.0  0.5871344546140377  0.9314719210255974  0.1018968747982925  1.0000
  O   O15       1.0  0.08714035585374089  0.4314684617519404  0.39810303785592543  1.0000
  O   O16       1.0  0.41285788944729523  0.06853139987817511  0.8981089864211996  1.0000
  O   O17       1.0  0.6839484501889501  0.3788856111901923  0.8002280773683239  1.0000
  O   O18       1.0  0.8160499755099977  0.12111639393373252  0.3002261706006167  1.0000
  O   O19       1.0  0.3160522402133452  0.6211159799768212  0.19977128474342723  1.0000
  O   O20       1.0  0.1839513337386904  0.8788893647184041  0.6997691295695178  1.0000
  O   O21       1.0  0.44440719304736115  0.2805224664247988  0.7772149870199174  1.0000
  O   O22       1.0  0.0555826433134499  0.21947594937490322  0.277220680331233  1.0000
  O   O23       1.0  0.5555882152787318  0.7194766601114112  0.22278031315810412  1.0000
  O   O24       1.0  0.9444154679266604  0.7805248262220275  0.7227811189462727  1.0000
  O   O25       1.0  0.5967366488940512  0.21939706124438632  0.43940212419484237  1.0000
  O   O26       1.0  0.9032622590822894  0.28060308554344  0.9394038040879878  1.0000
  O   O27       1.0  0.40326391774622283  0.7806036964282583  0.5605939883662501  1.0000
  O   O28       1.0  0.09673818377999047  0.7193968386289812  0.060597995188210504  1.0000
