data_image0
_chemical_formula_structural       Al2H3C12S2ClO10F2
_chemical_formula_sum              "Al2 H3 C12 S2 Cl1 O10 F2"
_cell_length_a       6.655835811201949
_cell_length_b       8.812002174681947
_cell_length_c       12.645428743210875
_cell_angle_alpha    71.06755677281437
_cell_angle_beta     75.9385886110586
_cell_angle_gamma    75.61023395597358

_space_group_name_H-M_alt    "P 1"
_space_group_IT_number       1

loop_
  _space_group_symop_operation_xyz
  'x, y, z'

loop_
  _atom_site_type_symbol
  _atom_site_label
  _atom_site_symmetry_multiplicity
  _atom_site_fract_x
  _atom_site_fract_y
  _atom_site_fract_z
  _atom_site_occupancy
  Al  Al1       1.0  0.5032222989098685  0.5019959209228588  0.49414806040191905  1.0000
  Al  Al2       1.0  0.002052939422377219  0.49800182161601464  0.4989708185475266  1.0000
  H   H1        1.0  0.7259972217844747  0.704937240786812  0.41971134065320825  1.0000
  H   H2        1.0  0.24082349957948418  0.3665098065712229  0.6348123680286405  1.0000
  H   H3        1.0  0.6800897928721882  0.6106294454184465  0.12769065229914384  1.0000
  C   C1        1.0  0.3291448845517522  0.5171019343482327  0.29962946467480117  1.0000
  C   C2        1.0  0.16766186851437226  0.7852371927777001  0.48856022698206647  1.0000
  C   C3        1.0  0.6700233212116802  0.47560574877361017  0.6973726265121343  1.0000
  C   C4        1.0  0.835111489459969  0.22007087491588356  0.5012819968696148  1.0000
  C   C5        1.0  0.9025032595179567  0.04866723943099767  0.493668096046413  1.0000
  C   C6        1.0  0.09896027010337598  0.9563778865074894  0.49685502877273535  1.0000
  C   C7        1.0  0.4263806579705618  0.42953151661579614  0.8943147829378332  1.0000
  C   C8        1.0  0.5682783257239591  0.5599781346544432  0.10527459004940447  1.0000
  C   C9        1.0  0.5996709520498342  0.4813812273234746  0.8155608000041991  1.0000
  C   C10       1.0  0.3931582609550333  0.510323743510611  0.1813807675357779  1.0000
  C   C11       1.0  0.578116382777715  0.5337561264183039  0.9995183270379329  1.0000
  C   C12       1.0  0.4123106042938289  0.46107739339039006  0.9988536358432112  1.0000
  S   S1        1.0  0.7468270456201296  0.5657304679864554  0.870743323607762  1.0000
  S   S2        1.0  0.24043068832975217  0.43002729423947283  0.12646882933126588  1.0000
  Cl  Cl1       1.0  0.2530334214073164  0.3306161811540705  0.875135760010842  1.0000
  O   O1        1.0  0.4600836083973761  0.5532477960810239  0.3420362325571985  1.0000
  O   O2        1.0  0.033918602403076585  0.7215627398004258  0.4689540443703351  1.0000
  O   O3        1.0  0.8568274886769345  0.5014830618999753  0.6513959513738498  1.0000
  O   O4        1.0  0.6523289144873557  0.2902572278806801  0.48078196937958495  1.0000
  O   O5        1.0  0.5409892744303023  0.44638778781524013  0.6499361215600885  1.0000
  O   O6        1.0  0.9645196566551351  0.2796245925939687  0.5278246391762662  1.0000
  O   O7        1.0  0.14673137280973236  0.4870462526401129  0.35013080227013654  1.0000
  O   O8        1.0  0.355938954033121  0.7197711476546687  0.5019256734214252  1.0000
  O   O9        1.0  0.7505348868054752  0.5864061884764028  0.4427454046989466  1.0000
  O   O10       1.0  0.2537093552003851  0.42086218321609453  0.5540349238302084  1.0000
  F   F1        1.0  0.7473101199153052  0.9871578030911011  0.4802467328092986  1.0000
  F   F2        1.0  0.25388611270121697  0.018402346850841404  0.5095234077798735  1.0000
