data_image0
_chemical_formula_structural       Zn2H36C52N8O8
_chemical_formula_sum              "Zn2 H36 C52 N8 O8"
_cell_length_a       9.069152188093113
_cell_length_b       10.069186065
_cell_length_c       13.136
_cell_angle_alpha    90.0
_cell_angle_beta     110.24021421167137
_cell_angle_gamma    90.0

_space_group_name_H-M_alt    "P 1"
_space_group_IT_number       1

loop_
  _space_group_symop_operation_xyz
  'x, y, z'

loop_
  _atom_site_type_symbol
  _atom_site_label
  _atom_site_symmetry_multiplicity
  _atom_site_fract_x
  _atom_site_fract_y
  _atom_site_fract_z
  _atom_site_occupancy
  Zn  Zn1       1.0  2.3504148956e-06  9.931289284e-07  0.999999800130098  1.0000
  Zn  Zn2       1.0  0.4999978843915542  0.5000006919625833  0.5000000656367547  1.0000
  H   H1        1.0  0.8382237628646578  0.41486769367787707  0.9001542626232891  1.0000
  H   H2        1.0  0.6617734159323445  0.9148713650272597  0.5998429700485133  1.0000
  H   H3        1.0  0.1617708307110064  0.585128724602626  0.09984482668505021  1.0000
  H   H4        1.0  0.3382341049252345  0.08512505325325041  0.40015616187550057  1.0000
  H   H5        1.0  0.6765340214674964  0.40481325637316706  0.7235535300734667  1.0000
  H   H6        1.0  0.8234561060848191  0.9048149414646858  0.7764465860082835  1.0000
  H   H7        1.0  0.3234582216932651  0.5951861412941355  0.2764488041717712  1.0000
  H   H8        1.0  0.176543188320629  0.0951834630736883  0.2235490584932691  1.0000
  H   H9        1.0  0.7951218545360561  0.4159174309587073  0.4462623818416418  1.0000
  H   H10       1.0  0.7048788498832863  0.915915143534491  0.05374178305942222  1.0000
  H   H11       1.0  0.20487979028428774  0.5840889186111227  0.55374372052448  1.0000
  H   H12       1.0  0.2951286709742931  0.08409120603533181  0.946259632664841  1.0000
  H   H13       1.0  0.0316788919431161  0.2756399556114459  0.5308871522710703  1.0000
  H   H14       1.0  0.4683248684856736  0.7756396544451007  0.9691120330575701  1.0000
  H   H15       1.0  0.9683251032921233  0.7243683802162408  0.46911266009117014  1.0000
  H   H16       1.0  0.5316814771644616  0.2243676882536576  0.03089290830200747  1.0000
  H   H17       1.0  0.0806638887517295  0.1835173159053127  0.7190359146006884  1.0000
  H   H18       1.0  0.41933517084726896  0.6835170147389675  0.7809667155347384  1.0000
  H   H19       1.0  0.9193318800313788  0.8164840680198537  0.2809642166728281  1.0000
  H   H20       1.0  0.580671174802859  0.3164853623151345  0.21904127089182876  1.0000
  H   H21       1.0  0.9714476294789733  0.2626379116373982  0.24198241003024631  1.0000
  H   H22       1.0  0.5285518997329248  0.7626346310842536  0.25801386150491373  1.0000
  H   H23       1.0  0.0285504897190236  0.7373634722877682  0.7580152375731259  1.0000
  H   H24       1.0  0.47144739467253055  0.23736278032518504  0.7419840667968816  1.0000
  H   H25       1.0  0.725349788403733  0.5786674277728707  0.3075548377252844  1.0000
  H   H26       1.0  0.7746544416379493  0.078667728939223  0.19244636293731082  1.0000
  H   H27       1.0  0.2746518564166109  0.4213349492812242  0.6924459357736054  1.0000
  H   H28       1.0  0.22534367756005477  0.9213316687280795  0.8075505233993142  1.0000
  H   H29       1.0  0.6241456238921825  0.6461147860415437  0.11260800396304661  1.0000
  H   H30       1.0  0.8758550805271595  0.146115087207896  0.38739311587102776  1.0000
  H   H31       1.0  0.3758548457207169  0.35388659788362287  0.887391727570673  1.0000
  H   H32       1.0  0.1241406882559417  0.8538843104594065  0.6126039703354992  1.0000
  H   H33       1.0  0.6876103516560973  0.5057866611187691  0.9761854099180383  1.0000
  H   H34       1.0  0.8123915279706964  0.005783982898321901  0.5238159906144589  1.0000
  H   H35       1.0  0.3123865923344552  0.49421273654853354  0.02381424078715358  1.0000
  H   H36       1.0  0.18761011684964757  0.9942124353821811  0.47618249908418875  1.0000
  C   C1        1.0  0.8713129037442542  0.27086697796561054  0.026023502698627993  1.0000
  C   C2        1.0  0.6286913262974352  0.7708636974124659  0.4739769366972126  1.0000
  C   C3        1.0  0.12868874107608969  0.7291344059595559  0.9739749870000125  1.0000
  C   C4        1.0  0.3713091433154644  0.2291327208680372  0.5260243173699948  1.0000
  C   C5        1.0  0.8698709242067009  0.3120242271538558  0.9229507057080469  1.0000
  C   C6        1.0  0.6301286050051971  0.8120229328585752  0.5770493721608503  1.0000
  C   C7        1.0  0.13012601978385158  0.6879731842555828  0.0770466611969027  1.0000
  C   C8        1.0  0.3698706894002512  0.1879724922929995  0.4229500786744396  1.0000
  C   C9        1.0  0.9113216660721761  0.23360974609222043  0.8476144658617385  1.0000
  C   C10       1.0  0.588677863139722  0.7336094449258752  0.6523856120071655  1.0000
  C   C11       1.0  0.0886776283332722  0.7663896515750821  0.1523849849735583  1.0000
  C   C12       1.0  0.4113214312657263  0.2663879664835633  0.3476130775613839  1.0000
  C   C13       1.0  0.8856751139548464  0.2895457469133547  0.7373870789176564  1.0000
  C   C14       1.0  0.6143173640123649  0.7895474320048735  0.7626105534939498  1.0000
  C   C15       1.0  0.11431947962081067  0.7104566301407402  0.2626120103906899  1.0000
  C   C16       1.0  0.3856807551856321  0.2104549450492286  0.23738861664291733  1.0000
  C   C17       1.0  0.7591675579005113  0.3728424498033149  0.6847719841487035  1.0000
  C   C18       1.0  0.7408296208964913  0.8728431417658982  0.8152290548568429  1.0000
  C   C19       1.0  0.2408293860900415  0.6271549616061236  0.315230711623478  1.0000
  C   C20       1.0  0.259169673508957  0.1271542696435404  0.1847703959784539  1.0000
  C   C21       1.0  0.8237722368880824  0.3797387371051641  0.52902894528507  1.0000
  C   C22       1.0  0.67622846753126  0.8797404221966758  0.9709721745490043  1.0000
  C   C23       1.0  0.1762270575173659  0.6202656262068018  0.4709727893504693  1.0000
  C   C24       1.0  0.3237767029114238  0.1202629479863546  0.02902715724491149  1.0000
  C   C25       1.0  0.9543072288635129  0.2988652688085978  0.5759829728465533  1.0000
  C   C26       1.0  0.5456923003483851  0.7988629813843815  0.9240201500893405  1.0000
  C   C27       1.0  0.045692065541935285  0.7011420738901607  0.42401952305573337  1.0000
  C   C28       1.0  0.4543105196794102  0.201138402540785  0.07598242664146679  1.0000
  C   C29       1.0  0.9831256658804718  0.25021982747519905  0.6800777395020035  1.0000
  C   C30       1.0  0.5168738633314263  0.7502225056956462  0.819924622167143  1.0000
  C   C31       1.0  0.016873628524976397  0.749778577063168  0.3199239951335358  1.0000
  C   C32       1.0  0.48312895669636896  0.2497778851005847  0.1800764320301695  1.0000
  C   C33       1.0  0.8324123620389157  0.369452900759363  0.0983886206097537  1.0000
  C   C34       1.0  0.6675918680027735  0.8694486270772899  0.401610296252592  1.0000
  C   C35       1.0  0.1675869323665324  0.6305464969079395  0.9016100689587888  1.0000
  C   C36       1.0  0.3324109520250218  0.1305467980742918  0.5983892354112257  1.0000
  C   C37       1.0  0.8916439925784942  0.3461670066973781  0.21100519444691912  1.0000
  C   C38       1.0  0.6083590622557438  0.8461627330153051  0.2889942029837513  1.0000
  C   C39       1.0  0.1083553018269541  0.6538353703567168  0.7889942563883707  1.0000
  C   C40       1.0  0.3916425825646002  0.1538316990073412  0.7110058092483911  1.0000
  C   C41       1.0  0.7587151030333885  0.5233660363391053  0.2471791405904256  1.0000
  C   C42       1.0  0.7412879518008495  0.023365344376522  0.2528202568402449  1.0000
  C   C43       1.0  0.2412853665795041  0.4766363407149896  0.7528190684097923  1.0000
  C   C44       1.0  0.2587101673971546  0.9766320670329166  0.74717662949638  1.0000
  C   C45       1.0  0.699142662334161  0.5590044680537929  0.1377736428948424  1.0000
  C   C46       1.0  0.8008615677075281  0.059001789833345704  0.3622275577677527  1.0000
  C   C47       1.0  0.3008554568638431  0.440995922742438  0.8622247659752844  1.0000
  C   C48       1.0  0.19913890190537128  0.9409946284471573  0.6377698899657176  1.0000
  C   C49       1.0  0.7363755846721103  0.4812553833764142  0.06228031136222971  1.0000
  C   C50       1.0  0.7636262949546833  0.9812521028232695  0.4377188053700253  1.0000
  C   C51       1.0  0.2636225345258936  0.518745007419824  0.9377173362411428  1.0000
  C   C52       1.0  0.23637417465821636  0.0187433223283051  0.5622786423634523  1.0000
  N   N1        1.0  0.7267518108880822  0.41395798757642416  0.5820903808598317  1.0000
  N   N2        1.0  0.7732465431163646  0.9139596726679429  0.9179078937771479  1.0000
  N   N3        1.0  0.2732451331024706  0.5860394238330144  0.41791003111210767  1.0000
  N   N4        1.0  0.2267586273263191  0.0860397249993596  0.0820906767500205  1.0000
  N   N5        1.0  0.8563090302675603  0.41977573685842634  0.2841968295737303  1.0000
  N   N6        1.0  0.6436940245666773  0.9197734494342171  0.21580485165718946  1.0000
  N   N7        1.0  0.1436914393453392  0.5802256470667403  0.715802140693235  1.0000
  N   N8        1.0  0.35630526983877076  0.080222968846293  0.7841961217116025  1.0000
  O   O1        1.0  0.9028860270171319  0.1540640911773608  0.06608377822603727  1.0000
  O   O2        1.0  0.5971240790617856  0.6540608106242232  0.4339203484621734  1.0000
  O   O3        1.0  0.09711561780321178  0.8459362996188702  0.9339177565396001  1.0000
  O   O4        1.0  0.40287639055110697  0.3459356076562869  0.5660801443382866  1.0000
  O   O5        1.0  0.9704346006596012  0.117094866694174  0.8628876769778131  1.0000
  O   O6        1.0  0.5295637533448456  0.6170935723988933  0.6371113589259139  1.0000
  O   O7        1.0  0.0295670441607356  0.882907510359928  0.1371123352543293  1.0000
  O   O8        1.0  0.47042613940102734  0.3829058252684092  0.3628866075887345  1.0000
