data_image0
_chemical_formula_structural       Cd2H36C40N20Cl4
_chemical_formula_sum              "Cd2 H36 C40 N20 Cl4"
_cell_length_a       4.014637135625463
_cell_length_b       14.84806357858118
_cell_length_c       20.919680937007094
_cell_angle_alpha    108.28339663303579
_cell_angle_beta     90.01984298787659
_cell_angle_gamma    97.76664204649444

_space_group_name_H-M_alt    "P 1"
_space_group_IT_number       1

loop_
  _space_group_symop_operation_xyz
  'x, y, z'

loop_
  _atom_site_type_symbol
  _atom_site_label
  _atom_site_symmetry_multiplicity
  _atom_site_fract_x
  _atom_site_fract_y
  _atom_site_fract_z
  _atom_site_occupancy
  Cd  Cd1       1.0  1.8289958845012087e-06  1.5981337213994362e-06  0.9999998362184856  1.0000
  Cd  Cd2       1.0  0.9999963786162669  2.338391311993932e-07  0.49999834325382864  1.0000
  H   H1        1.0  0.37609571077597787  0.2283641746030298  0.08466977624469509  1.0000
  H   H2        1.0  0.14819710275030928  0.7715063833334029  0.4152524790813105  1.0000
  H   H3        1.0  0.6239010318093249  0.7716440517971679  0.9153290624958431  1.0000
  H   H4        1.0  0.8517992502737357  0.22849110075225101  0.5847449564293896  1.0000
  H   H5        1.0  0.23101090503842409  0.3914013758567734  0.057427443493843086  1.0000
  H   H6        1.0  0.840505708180963  0.6084715787702563  0.4425350656225789  1.0000
  H   H7        1.0  0.7689769313947039  0.6086039840916372  0.9425707654024297  1.0000
  H   H8        1.0  0.15949386897207057  0.39152736481347017  0.5574665147286028  1.0000
  H   H9        1.0  0.7315449088853824  0.13936083437509691  0.9110876705052179  1.0000
  H   H10       1.0  0.5928861864176511  0.8604902443578055  0.5887677359415164  1.0000
  H   H11       1.0  0.2684639048112275  0.8606366596834791  0.08891120169283086  1.0000
  H   H12       1.0  0.4071233637329641  0.13951370232221902  0.41123303145243284  1.0000
  H   H13       1.0  0.5833221115865541  0.2992954044437681  0.9090559787933401  1.0000
  H   H14       1.0  0.28424917359479457  0.7006224392769697  0.5907081369724524  1.0000
  H   H15       1.0  0.41667139217521765  0.7007013630231145  0.09094129923373377  1.0000
  H   H16       1.0  0.7157596660131063  0.29938008406854516  0.40929375187097616  1.0000
  H   H17       1.0  0.7356966261272503  0.4051216573494756  0.9780648062102983  1.0000
  H   H18       1.0  0.33112476127880797  0.594724743758796  0.5217635635470401  1.0000
  H   H19       1.0  0.2642894090691285  0.5948751166184677  0.021933429037012772  1.0000
  H   H20       1.0  0.6688734177340123  0.4052813657330674  0.4782395905578128  1.0000
  H   H21       1.0  0.8444241329552253  0.1852513797466742  0.7976727192387685  1.0000
  H   H22       1.0  0.6577288234592941  0.8145788604062502  0.7023510122427014  1.0000
  H   H23       1.0  0.15555123545806274  0.8147489705111824  0.20232534503365682  1.0000
  H   H24       1.0  0.3422647194931938  0.18541796948471756  0.29765536194758374  1.0000
  H   H25       1.0  0.08359395583216407  0.15285997754346428  0.6841777804360234  1.0000
  H   H26       1.0  0.9296095733791815  0.8471324678774155  0.815837624176119  1.0000
  H   H27       1.0  0.9164024013172208  0.8471375131131467  0.3158206125655383  1.0000
  H   H28       1.0  0.0703903630426126  0.1528622057260733  0.18416732061371022  1.0000
  H   H29       1.0  0.4630873420867019  0.27619427390641965  0.6545923522151469  1.0000
  H   H30       1.0  0.1869927610585052  0.7240328610113451  0.8454880038989927  1.0000
  H   H31       1.0  0.5369296713447085  0.7238046698403978  0.34540922876751523  1.0000
  H   H32       1.0  0.8130074975040172  0.27595748347329874  0.15451168791171455  1.0000
  H   H33       1.0  0.6323176325939173  0.43946813358088127  0.7369036048293368  1.0000
  H   H34       1.0  0.19323208400268746  0.5606825139890788  0.7632672883439825  1.0000
  H   H35       1.0  0.36769938083749315  0.5605308101659362  0.26309797615333264  1.0000
  H   H36       1.0  0.8067596341202828  0.4393106803568757  0.23673063895234497  1.0000
  C   C1        1.0  0.22431704839117117  0.2352039794697234  0.044033277451099195  1.0000
  C   C2        1.0  0.9895421672129668  0.7646461333560453  0.4558525940010512  1.0000
  C   C3        1.0  0.7756942594242844  0.764798507758826  0.9559633452827898  1.0000
  C   C4        1.0  0.010465234808151517  0.23535351703661433  0.5441477077778744  1.0000
  C   C5        1.0  0.15654219789483648  0.3158475538370666  0.03072512980281771  1.0000
  C   C6        1.0  0.841501426756224  0.6840217519080481  0.4692202052439499  1.0000
  C   C7        1.0  0.8434715987548599  0.6841549301293031  0.9692710142758474  1.0000
  C   C8        1.0  0.15850420522404818  0.3159793382232152  0.5307813687224511  1.0000
  C   C9        1.0  0.8966273316238894  0.18520092954557296  0.9532133210948149  1.0000
  C   C10       1.0  0.7121703534850993  0.8146494133421386  0.5466788856902981  1.0000
  C   C11       1.0  0.10338788495197081  0.8147994112286269  0.04678330838470399  1.0000
  C   C12       1.0  0.2878331377129441  0.18535238021938477  0.45332093059757045  1.0000
  C   C13       1.0  0.8058068026162886  0.3421360519504405  0.9395293380407639  1.0000
  C   C14       1.0  0.4640124974825214  0.6577217245991209  0.5603318880532698  1.0000
  C   C15       1.0  0.19418813666959517  0.6578635851838115  0.0604690483053858  1.0000
  C   C16       1.0  0.5359967025534117  0.34228151862734524  0.43967063692900155  1.0000
  C   C17       1.0  0.11207244970499627  0.3321057445232327  0.8312498230721915  1.0000
  C   C18       1.0  0.7795293954068753  0.6678235518039841  0.6687958387394631  1.0000
  C   C19       1.0  0.887923558488964  0.6678960325410018  0.1687475992178805  1.0000
  C   C20       1.0  0.22046235687806612  0.3321746849708093  0.3312070201839817  1.0000
  C   C21       1.0  0.01723875879054051  0.24013326962145243  0.7855241471987  1.0000
  C   C22       1.0  0.776448240447003  0.7598048014538534  0.7144703822913314  1.0000
  C   C23       1.0  0.9827394609476982  0.7598678005406612  0.21447455330278592  1.0000
  C   C24       1.0  0.22354672152824406  0.24019487182066265  0.2855332702545682  1.0000
  C   C25       1.0  0.1502487667968353  0.222843158718625  0.722199728204771  1.0000
  C   C26       1.0  0.9265730749492106  0.7771514562199044  0.7778388812495579  1.0000
  C   C27       1.0  0.8497600530877776  0.7771543451963937  0.27780058022958093  1.0000
  C   C28       1.0  0.0734389628763807  0.22284749733675116  0.22216413578897945  1.0000
  C   C29       1.0  0.36787927993074726  0.2942250298765927  0.7050555332963527  1.0000
  C   C30       1.0  0.07343597860582918  0.7058799882783617  0.7950233768633554  1.0000
  C   C31       1.0  0.6321345258730277  0.7057724806559805  0.294945732809289  1.0000
  C   C32       1.0  0.9265671468795773  0.294116088970064  0.20497757409462036  1.0000
  C   C33       1.0  0.4625126108580274  0.38513492600719706  0.7502538504823024  1.0000
  C   C34       1.0  0.07780987346430386  0.6149890283006274  0.7498464634961197  1.0000
  C   C35       1.0  0.5374969175066365  0.6148639979568528  0.24974485775713617  1.0000
  C   C36       1.0  0.9221882702272808  0.3850070489012083  0.250154487281428  1.0000
  C   C37       1.0  0.33185660046705573  0.4036292564186399  0.8146196133950812  1.0000
  C   C38       1.0  0.928043538653405  0.5963617226182335  0.6854803806730132  1.0000
  C   C39       1.0  0.6681490191372036  0.5963718139997526  0.18537908809872763  1.0000
  C   C40       1.0  0.07194073062746043  0.40363649765926374  0.314520084252635  1.0000
  N   N1        1.0  0.06012669732454869  0.1549823308559226  0.9957644054107748  1.0000
  N   N2        1.0  0.9056450220520131  0.8448800338051825  0.5041261613302765  1.0000
  N   N3        1.0  0.9398856720517158  0.8450172965849845  0.00423254533055232  1.0000
  N   N4        1.0  0.09435561988375699  0.1551210431375694  0.4958734974739727  1.0000
  N   N5        1.0  0.9506332734438914  0.282945787860001  0.9724570277513254  1.0000
  N   N6        1.0  0.6685196058793963  0.7169056510274102  0.5274768835435992  1.0000
  N   N7        1.0  0.04936343382018287  0.7170524062501684  0.02753960766192171  1.0000
  N   N8        1.0  0.33148638652890117  0.2830961589848116  0.4725253265616446  1.0000
  N   N9        1.0  0.03366455158851516  0.3770160703418881  0.8962768408450048  1.0000
  N   N10       1.0  0.656454895081474  0.6228890087723044  0.6037394103584434  1.0000
  N   N11       1.0  0.9663140203270755  0.6229857065592626  0.10372058081358658  1.0000
  N   N12       1.0  0.343539003270301  0.3771135210043751  0.39626343543458387  1.0000
  N   N13       1.0  0.19619652647046584  0.46926654966211595  0.9181972016610089  1.0000
  N   N14       1.0  0.7271960092968114  0.530676718410284  0.5818612191419633  1.0000
  N   N15       1.0  0.803791296427377  0.530733800712234  0.08180086306248313  1.0000
  N   N16       1.0  0.27280001333583925  0.46932508165230047  0.4181395543661353  1.0000
  N   N17       1.0  0.3743528413287791  0.48555158117967073  0.8699969790850873  1.0000
  N   N18       1.0  0.8888634039873435  0.5144209190414912  0.6301167567677269  1.0000
  N   N19       1.0  0.6256474463669688  0.5144487857385655  0.1300034798166152  1.0000
  N   N20       1.0  0.11113367608076892  0.48557801466250083  0.3698833872569481  1.0000
  Cl  Cl1       1.0  0.48534579189784915  0.9540065567162799  0.907789097981926  1.0000
  Cl  Cl2       1.0  0.5316231517720881  0.04599429961891839  0.5921957768810915  1.0000
  Cl  Cl3       1.0  0.5146580597282265  0.0459959567262018  0.09221135444478533  1.0000
  Cl  Cl4       1.0  0.4683749889534282  0.954006760873142  0.40780148810578254  1.0000
