data_image0
_chemical_formula_structural       In3H24C48O24
_chemical_formula_sum              "In3 H24 C48 O24"
_cell_length_a       12.654104412741114
_cell_length_b       14.402390229293966
_cell_length_c       14.411417589197768
_cell_angle_alpha    120.01051770357816
_cell_angle_beta     90.00468342348128
_cell_angle_gamma    89.99729962092941

_space_group_name_H-M_alt    "P 1"
_space_group_IT_number       1

loop_
  _space_group_symop_operation_xyz
  'x, y, z'

loop_
  _atom_site_type_symbol
  _atom_site_label
  _atom_site_symmetry_multiplicity
  _atom_site_fract_x
  _atom_site_fract_y
  _atom_site_fract_z
  _atom_site_occupancy
  In  In1       1.0  0.166606833801751  2.289660146456303e-05  0.5000284145723413  1.0000
  In  In2       1.0  0.8333847665726707  0.5000041834075546  0.49999918109411823  1.0000
  In  In3       1.0  0.5000075726751447  0.4999570021610398  0.9999611810722159  1.0000
  H   H1        1.0  0.9136427031002157  0.11444692102097784  0.7815841564390525  1.0000
  H   H2        1.0  0.5801695727871489  0.7813651697093748  0.6669726868739331  1.0000
  H   H3        1.0  0.24677977514752314  0.6672315376201398  0.885767614417297  1.0000
  H   H4        1.0  0.913581491773101  0.8855671853449891  0.21848022635184344  1.0000
  H   H5        1.0  0.5801666364900414  0.21850399663536288  0.33289688258569333  1.0000
  H   H6        1.0  0.24681625581359157  0.3328107949568705  0.11431650230720443  1.0000
  H   H7        1.0  0.41972591857854263  0.11442959637506087  0.33294633586317707  1.0000
  H   H8        1.0  0.0865340454830985  0.3328489449740459  0.2185421496422251  1.0000
  H   H9        1.0  0.7532090437785327  0.21855529734542514  0.885683063479732  1.0000
  H   H10       1.0  0.41975550846328263  0.8855298401640398  0.6670267311799448  1.0000
  H   H11       1.0  0.0864893207256117  0.6672597720573638  0.7815583045707087  1.0000
  H   H12       1.0  0.7531334932338893  0.7814926589559266  0.11436911626537946  1.0000
  H   H13       1.0  0.9108476259684364  0.2854812236639432  0.6071367234857803  1.0000
  H   H14       1.0  0.5774927517424472  0.6068446834246759  0.32156457516892795  1.0000
  H   H15       1.0  0.2440847045806294  0.3215840753365954  0.7146443650805382  1.0000
  H   H16       1.0  0.910799718329663  0.7144810578352008  0.3928826394807813  1.0000
  H   H17       1.0  0.5775684953010866  0.3931217871897703  0.6783593950472168  1.0000
  H   H18       1.0  0.24412492850579784  0.6784529562666037  0.28536352710632673  1.0000
  H   H19       1.0  0.4225314110709064  0.2854969192259703  0.6783561169239435  1.0000
  H   H20       1.0  0.08925453981343878  0.6784890194093549  0.3930996602901047  1.0000
  H   H21       1.0  0.7558117075568377  0.39312283240680307  0.714745651290528  1.0000
  H   H22       1.0  0.422487352161049  0.7145330008225699  0.32160449446595857  1.0000
  H   H23       1.0  0.0891884061825863  0.321571757430121  0.6069068057990493  1.0000
  H   H24       1.0  0.7557639091838909  0.6068613595328075  0.2852463887690249  1.0000
  C   C1        1.0  0.8775527797335059  0.17514109527422772  0.7677498241249127  1.0000
  C   C2        1.0  0.5441145183090869  0.7675211460723194  0.5924622616511288  1.0000
  C   C3        1.0  0.21075361438449386  0.5926947104257183  0.8250244411868124  1.0000
  C   C4        1.0  0.8774924624575533  0.824874053094078  0.23231251435723274  1.0000
  C   C5        1.0  0.5441272977192425  0.23236785160094803  0.4074336687247708  1.0000
  C   C6        1.0  0.21079385627128744  0.40735769305257463  0.1750458328454982  1.0000
  C   C7        1.0  0.455807377681289  0.17512010970148148  0.40744430669500536  1.0000
  C   C8        1.0  0.12255914121947599  0.4073903062785362  0.23237130282493001  1.0000
  C   C9        1.0  0.7892619121388975  0.2323994484526893  0.8249950726903991  1.0000
  C   C10       1.0  0.4558040039145794  0.8248156203170682  0.59249932955899  1.0000
  C   C11       1.0  0.12250409169648438  0.5927098484162558  0.7677220646782105  1.0000
  C   C12       1.0  0.7891987266037931  0.7676207505112559  0.17505808241944726  1.0000
  C   C13       1.0  0.9214105832833043  0.19507204627638702  0.6897359873174623  1.0000
  C   C14       1.0  0.5880726510931069  0.6895106749702508  0.4945301841809809  1.0000
  C   C15       1.0  0.2546365709150962  0.49465836879235786  0.8050747415004906  1.0000
  C   C16       1.0  0.9213595538842937  0.8049232785089657  0.31030038552727035  1.0000
  C   C17       1.0  0.5880979491146618  0.3103936028837922  0.5053740867373336  1.0000
  C   C18       1.0  0.2546753081458207  0.5053811517387174  0.19497650820693482  1.0000
  C   C19       1.0  0.4119385505580341  0.19505242722226518  0.5053809539761006  1.0000
  C   C20       1.0  0.07870060771180928  0.5053898250965504  0.3104067224475671  1.0000
  C   C21       1.0  0.7453196637614994  0.31040913329765385  0.8050458258907157  1.0000
  C   C22       1.0  0.4119305516520554  0.8049416624842679  0.4945806935420834  1.0000
  C   C23       1.0  0.0786464190099281  0.4946943037883429  0.6896471253609135  1.0000
  C   C24       1.0  0.7452588158336156  0.689602521774873  0.1949880973385873  1.0000
  C   C25       1.0  0.8769285446070398  0.2725180619436929  0.6692424509380502  1.0000
  C   C26       1.0  0.5435764504905265  0.668985442041212  0.3966375547554436  1.0000
  C   C27       1.0  0.2102202111267175  0.3966778839887155  0.7275933237905646  1.0000
  C   C28       1.0  0.8768996982008445  0.727467990639916  0.33077548398562556  1.0000
  C   C29       1.0  0.543641195998447  0.33097075563238587  0.6032926212924535  1.0000
  C   C30       1.0  0.21026673257660633  0.603372689192746  0.27244138469678353  1.0000
  C   C31       1.0  0.45642442561692315  0.2725086698168725  0.6032961859418151  1.0000
  C   C32       1.0  0.1231257789897171  0.6033802350794347  0.3309350358714126  1.0000
  C   C33       1.0  0.7897354404699543  0.3309692902040881  0.7276842644407112  1.0000
  C   C34       1.0  0.4563778775190173  0.7274958775218325  0.3966674549551924  1.0000
  C   C35       1.0  0.12307858127074668  0.3966814294927232  0.6690870873316612  1.0000
  C   C36       1.0  0.7896893100071053  0.6690317050803146  0.2723297339059342  1.0000
  C   C37       1.0  0.0142595648445223  0.1322910965977045  0.6271474974587791  1.0000
  C   C38       1.0  0.6809427472875598  0.627008298980414  0.4947065969284806  1.0000
  C   C39       1.0  0.3474366178334947  0.4948232256775643  0.8678036030681258  1.0000
  C   C40       1.0  0.014202001907193602  0.8676897050768205  0.37288861122262046  1.0000
  C   C41       1.0  0.6809905048815922  0.37289397007872804  0.5051713318225596  1.0000
  C   C42       1.0  0.3474616841454505  0.505176918430621  0.13221839249019496  1.0000
  C   C43       1.0  0.3190925949855483  0.1323049715200924  0.5052060926022293  1.0000
  C   C44       1.0  0.9859114937511038  0.5052260858025336  0.37298923900478087  1.0000
  C   C45       1.0  0.6524046391665124  0.37291969891020943  0.8677439055606159  1.0000
  C   C46       1.0  0.31911105787355615  0.8677025229475533  0.49479409793352847  1.0000
  C   C47       1.0  0.9858697532095773  0.4948638840042393  0.6270457861624692  1.0000
  C   C48       1.0  0.6523613990439471  0.6270753521356555  0.13225447850202696  1.0000
  O   O1        1.0  0.0710094997899802  0.08077664289775296  0.6593919834980966  1.0000
  O   O2        1.0  0.7376744269701234  0.65935002798971  0.5784965828074178  1.0000
  O   O3        1.0  0.40417623127100205  0.5786507329857573  0.9193672237654837  1.0000
  O   O4        1.0  0.0709591119286941  0.9192031078560277  0.3406324763764914  1.0000
  O   O5        1.0  0.7376907956971052  0.3405403676985658  0.42138050809251837  1.0000
  O   O6        1.0  0.40416273375669926  0.42133206032927734  0.08065246558958712  1.0000
  O   O7        1.0  0.2622992882598894  0.08082840554840945  0.42146073114320615  1.0000
  O   O8        1.0  0.9291939792650296  0.42138898713241  0.3407020634556233  1.0000
  O   O9        1.0  0.5957510141735086  0.3405923537259242  0.9192349596031164  1.0000
  O   O10       1.0  0.2623190839806924  0.9191788643182194  0.5785482245264575  1.0000
  O   O11       1.0  0.9291466022509879  0.5786884769113244  0.6593054213754286  1.0000
  O   O12       1.0  0.5957134430574983  0.6593745534766458  0.08073067895377038  1.0000
  O   O13       1.0  0.03695995067877789  0.127616076980715  0.5381518706856597  1.0000
  O   O14       1.0  0.7037750164521056  0.537950379246418  0.4103775970778329  1.0000
  O   O15       1.0  0.37023149898357843  0.4104053954237161  0.8723857511993957  1.0000
  O   O16       1.0  0.0369406293288179  0.8723801244467924  0.46190068471373286  1.0000
  O   O17       1.0  0.7038137771714756  0.4619409194559482  0.5894848243978927  1.0000
  O   O18       1.0  0.3702670258667737  0.5895720264921495  0.12761860075443104  1.0000
  O   O19       1.0  0.2963576599990603  0.1275826070546842  0.5895112002094152  1.0000
  O   O20       1.0  0.9631313763161559  0.5896091942540311  0.4619971386756418  1.0000
  O   O21       1.0  0.6295478779801583  0.46191631790962623  0.87236258855787  1.0000
  O   O22       1.0  0.2963358573838235  0.8724220984136366  0.41048354209303284  1.0000
  O   O23       1.0  0.9631365752505232  0.41048986841887114  0.5380483224683204  1.0000
  O   O24       1.0  0.6295231040745363  0.5380740115207844  0.12762118941039097  1.0000
