data_image0
_chemical_formula_structural       Zn2H32C66N10O12F14
_chemical_formula_sum              "Zn2 H32 C66 N10 O12 F14"
_cell_length_a       14.082266910722742
_cell_length_b       15.249920230507803
_cell_length_c       23.71266650320758
_cell_angle_alpha    89.00871361256434
_cell_angle_beta     89.84511949730332
_cell_angle_gamma    89.55225941296541

_space_group_name_H-M_alt    "P 1"
_space_group_IT_number       1

loop_
  _space_group_symop_operation_xyz
  'x, y, z'

loop_
  _atom_site_type_symbol
  _atom_site_label
  _atom_site_symmetry_multiplicity
  _atom_site_fract_x
  _atom_site_fract_y
  _atom_site_fract_z
  _atom_site_occupancy
  Zn  Zn1       1.0  0.401335729203467  0.5012925893750264  0.5001697768467892  1.0000
  Zn  Zn2       1.0  0.5983583596117157  0.4974997759500964  0.4994966946228132  1.0000
  H   H1        1.0  0.503188559886553  0.28268854340269206  0.0563668826820489  1.0000
  H   H2        1.0  0.5029803976154383  0.7230311274304524  0.9434346562103357  1.0000
  H   H3        1.0  0.6476355321166097  0.5297821884676351  0.3213825826743602  1.0000
  H   H4        1.0  0.6482088582027927  0.4717579297051272  0.678652697262244  1.0000
  H   H5        1.0  0.3532229638505271  0.4587670105468859  0.3213273155348588  1.0000
  H   H6        1.0  0.3529037910491014  0.543309060263347  0.6780236111869086  1.0000
  H   H7        1.0  0.3840756989474344  0.9101834537039792  0.6244144922130417  1.0000
  H   H8        1.0  0.6066127816463621  0.08871814428221107  0.3722549014418489  1.0000
  H   H9        1.0  0.7092394721465782  0.5806865135515978  0.233938730300892  1.0000
  H   H10       1.0  0.7809081932819881  0.5015916569719536  0.1588620836342116  1.0000
  H   H11       1.0  0.6774353092355625  0.43614079427359076  0.1546307764168304  1.0000
  H   H12       1.0  0.750879190642344  0.4263507857867167  0.21498038843903092  1.0000
  H   H13       1.0  0.7104737823702435  0.4244787906752875  0.7660731242145786  1.0000
  H   H14       1.0  0.7790807498258802  0.5021736557049292  0.8419147009637199  1.0000
  H   H15       1.0  0.6744281041327725  0.5673828175932698  0.8464294116770787  1.0000
  H   H16       1.0  0.7486333902794867  0.5784925128188475  0.7863356289914876  1.0000
  H   H17       1.0  0.28822905563546913  0.42310462465291476  0.2340015635502795  1.0000
  H   H18       1.0  0.2506880691289339  0.5786877580727533  0.21454789118662632  1.0000
  H   H19       1.0  0.2207099598024342  0.5072952857889064  0.1580549114729166  1.0000
  H   H20       1.0  0.3256973795557201  0.5710242028150105  0.1548058084577448  1.0000
  H   H21       1.0  0.2862215504927548  0.5809140337916644  0.7646096600280216  1.0000
  H   H22       1.0  0.21974846706677914  0.4996732008327383  0.8419230672782874  1.0000
  H   H23       1.0  0.3257890177334914  0.43615704754122214  0.8460772608922937  1.0000
  H   H24       1.0  0.2514837301808583  0.4262829901683744  0.7865125106895546  1.0000
  H   H25       1.0  0.4175287412354436  0.6973316855016376  0.5790065438273047  1.0000
  H   H26       1.0  0.552491382849439  0.7289819205929361  0.6430131723238901  1.0000
  H   H27       1.0  0.4392521974479351  0.7264605167913912  0.6769323070833692  1.0000
  H   H28       1.0  0.49209642639579  0.8285533710975058  0.6587570345045037  1.0000
  H   H29       1.0  0.5721416713497122  0.3037196493217279  0.4185899338037586  1.0000
  H   H30       1.0  0.7321786159009067  0.2645693683037962  0.443752332819848  1.0000
  H   H31       1.0  0.713432520961959  0.26439875021993225  0.3689441400590567  1.0000
  H   H32       1.0  0.7167795427717253  0.1638743629134609  0.4080777012057411  1.0000
  C   C1        1.0  0.4960472002390618  0.32927853848475036  0.5063802166420928  1.0000
  C   C2        1.0  0.5027105865993491  0.6697833576218103  0.4935130065280404  1.0000
  C   C3        1.0  0.5839022489355801  0.520575483277966  0.23879641673718774  1.0000
  C   C4        1.0  0.5838178548907252  0.48367054364587136  0.7611826641590653  1.0000
  C   C5        1.0  0.583256371616322  0.5159587285852325  0.2977925245605064  1.0000
  C   C6        1.0  0.583509997956135  0.48639342057408896  0.7021504759763744  1.0000
  C   C7        1.0  0.5006603283487436  0.49296432049590777  0.3270629485494396  1.0000
  C   C8        1.0  0.5009075223556252  0.5087792672182373  0.6726486024599083  1.0000
  C   C9        1.0  0.41746375244715495  0.474864336659479  0.2976893089447969  1.0000
  C   C10       1.0  0.4172682271506147  0.5281391245928262  0.7018376590771354  1.0000
  C   C11       1.0  0.4156643668810391  0.47873793886373744  0.23870289114384494  1.0000
  C   C12       1.0  0.4149152510724151  0.5257708610096118  0.7608523349551533  1.0000
  C   C13       1.0  0.4997475396194632  0.5012516697168151  0.2098385219574013  1.0000
  C   C14       1.0  0.499088939222247  0.5038849377849246  0.7899482219742638  1.0000
  C   C15       1.0  0.541367473663442  0.8171582149398874  0.45234949881121617  1.0000
  C   C16       1.0  0.4535685740504007  0.18164979635425735  0.545574653617706  1.0000
  C   C17       1.0  0.504083050198993  0.767707139735698  0.4967616951031744  1.0000
  C   C18       1.0  0.4976530458338005  0.23115988527152345  0.5034496157645378  1.0000
  C   C19       1.0  0.46825511352547283  0.8092330587347404  0.5452402061699715  1.0000
  C   C20       1.0  0.5469099937618296  0.1894998046679389  0.45937752943684973  1.0000
  C   C21       1.0  0.46691875436092545  0.902381487136324  0.5464697511430998  1.0000
  C   C22       1.0  0.546048931418632  0.09640109884974629  0.4571568720406489  1.0000
  C   C23       1.0  0.500923003034835  0.48929281348702597  0.3900795226000183  1.0000
  C   C24       1.0  0.5014615308876955  0.5105411586955595  0.6095950470033813  1.0000
  C   C25       1.0  0.5068678029076494  0.9524623591484057  0.5008716653319496  1.0000
  C   C26       1.0  0.5046794215126411  0.0462824983340226  0.5022893183095576  1.0000
  C   C27       1.0  0.5456579345174362  0.9089865649342739  0.45255439117232044  1.0000
  C   C28       1.0  0.45774771580876455  0.0897689042013425  0.5480313030206503  1.0000
  C   C29       1.0  0.42042650151086763  0.9470820727957586  0.5912990349383449  1.0000
  C   C30       1.0  0.5821737384804281  0.05180689707149359  0.4090910383222592  1.0000
  C   C31       1.0  0.41615612074664204  0.0361744261661769  0.5912692287363797  1.0000
  C   C32       1.0  0.5812824151590233  0.9627169593627086  0.40749094632410987  1.0000
  C   C33       1.0  0.1999784809323445  0.5534732725121572  0.4644567482808455  1.0000
  C   C34       1.0  0.7998199816880601  0.4459575143229058  0.5348857946745369  1.0000
  C   C35       1.0  0.20112526495744726  0.4510568897018529  0.5366665349539375  1.0000
  C   C36       1.0  0.7986235628835346  0.5473920176487467  0.46219420574617226  1.0000
  C   C37       1.0  0.1017038817811482  0.4451823027941656  0.5385554802539829  1.0000
  C   C38       1.0  0.8980228160535477  0.5534753605554239  0.4603685548666476  1.0000
  C   C39       1.0  0.1004273628319439  0.5565493098408822  0.4614775545905374  1.0000
  C   C40       1.0  0.8993304433117757  0.4425542997404006  0.5376951170471216  1.0000
  C   C41       1.0  0.0502603825031684  0.5001259267660174  0.4997540208534375  1.0000
  C   C42       1.0  0.9495042612070889  0.49875438562637675  0.499288423353704  1.0000
  C   C43       1.0  0.0498709773848276  0.3889200565107273  0.576148889593746  1.0000
  C   C44       1.0  0.9498583395667597  0.6097590569722866  0.4227994340969801  1.0000
  C   C45       1.0  0.0471792573387191  0.611342539200656  0.42339651952075735  1.0000
  C   C46       1.0  0.9525441984726654  0.38771823052503146  0.5757267409910867  1.0000
  C   C47       1.0  0.502400977858926  0.5850769885677494  0.8767254532301791  1.0000
  C   C48       1.0  0.5042593513644321  0.42060601940246295  0.1229492709539812  1.0000
  C   C49       1.0  0.4958652849641823  0.4201961131385731  0.8782714796919037  1.0000
  C   C50       1.0  0.49638084596835347  0.5854462165292061  0.1215573556985348  1.0000
  C   C51       1.0  0.4998296933049176  0.4210378406919232  0.9407347517510445  1.0000
  C   C52       1.0  0.5005416265071077  0.5846385314038754  0.0590176600941987  1.0000
  C   C53       1.0  0.5002760742470187  0.5019518865082374  0.9697722008172603  1.0000
  C   C54       1.0  0.500620639997031  0.5037698356261514  0.0299256910737853  1.0000
  C   C55       1.0  0.5006573714221503  0.5827244318074277  0.9392700280770114  1.0000
  C   C56       1.0  0.5013633800917815  0.423010305176632  0.0604256898489837  1.0000
  C   C57       1.0  0.500785373979241  0.3438875773224693  0.9732682261943778  1.0000
  C   C58       1.0  0.5015117775934073  0.6617858405856935  0.026489034108784903  1.0000
  C   C59       1.0  0.5018517390454208  0.344243638159952  0.0323214244377823  1.0000
  C   C60       1.0  0.5018046324566755  0.6614280210184944  0.9674218907689679  1.0000
  C   C61       1.0  0.721890605813492  0.4734456985773433  0.18331853397075548  1.0000
  C   C62       1.0  0.7199841210481281  0.5307625447902067  0.8175203542179688  1.0000
  C   C63       1.0  0.27955996179339593  0.5329195623064038  0.1830257684982612  1.0000
  C   C64       1.0  0.27923318756555915  0.47318646216015026  0.817325628630563  1.0000
  C   C65       1.0  0.4819758869120819  0.7610773525335472  0.6449571097265832  1.0000
  C   C66       1.0  0.6937838996210248  0.23258304350963493  0.4091553753658417  1.0000
  N   N1        1.0  0.4990365975195985  0.5033130025987304  0.8506165957738786  1.0000
  N   N2        1.0  0.5002923287511223  0.5023395221069505  0.1491625080702974  1.0000
  N   N3        1.0  0.2482617410806682  0.502827445622671  0.5007336152842327  1.0000
  N   N4        1.0  0.7514767867532158  0.49618444976768217  0.4984309353164988  1.0000
  N   N5        1.0  0.6667258725047632  0.5448670041443006  0.20853974753170232  1.0000
  N   N6        1.0  0.6667025121632121  0.4597517314526058  0.7915168671111772  1.0000
  N   N7        1.0  0.33225028069487195  0.45892891306630185  0.2086158535660232  1.0000
  N   N8        1.0  0.3307799711275905  0.5463373336175649  0.790596239604767  1.0000
  N   N9        1.0  0.4320894849484774  0.7598418465499391  0.5906392170846004  1.0000
  N   N10       1.0  0.5905419526923553  0.23913202426045632  0.4164879380309827  1.0000
  O   O1        1.0  0.4158100087782585  0.3675488547071025  0.504286405131829  1.0000
  O   O2        1.0  0.5817535730247769  0.6299768991788992  0.4896929740745293  1.0000
  O   O3        1.0  0.42089637733082  0.6348334957270507  0.4966512643748118  1.0000
  O   O4        1.0  0.5769061717980435  0.3657638726729217  0.5093353517713837  1.0000
  O   O5        1.0  0.4208608176063607  0.4953646993438879  0.41491615769939466  1.0000
  O   O6        1.0  0.5819647980819838  0.5102382252175274  0.5849262482253863  1.0000
  O   O7        1.0  0.4207483043622204  0.5123414413053878  0.5851800728315125  1.0000
  O   O8        1.0  0.58138155419703  0.48026278121117366  0.4144094716957838  1.0000
  O   O9        1.0  0.5084712584734987  0.6537584907793171  0.8491218332013162  1.0000
  O   O10       1.0  0.5115482687668234  0.3518249715443602  0.150382119751292  1.0000
  O   O11       1.0  0.4877221494230001  0.35343431469376446  0.8507474453608026  1.0000
  O   O12       1.0  0.487330985047926  0.6522926267622041  0.1490486318595714  1.0000
  F   F1        1.0  0.501213278555852  0.26474701556169583  0.9490337170787555  1.0000
  F   F2        1.0  0.502555324008263  0.74091120875223  0.05072400507339841  1.0000
  F   F3        1.0  0.36806999402271157  0.07569772450683127  0.6339712683303347  1.0000
  F   F4        1.0  0.6143450968690447  0.9233108222973029  0.3600778348414693  1.0000
  F   F5        1.0  0.2518409669303879  0.6029741840943429  0.4296767841971203  1.0000
  F   F6        1.0  0.7480074595259797  0.3970496287214332  0.5701426370686988  1.0000
  F   F7        1.0  0.25382424622604566  0.4035674700768653  0.5722994210824055  1.0000
  F   F8        1.0  0.7459389455710623  0.5942996180439906  0.42614674512823575  1.0000
  F   F9        1.0  0.09634464429974092  0.3359149021685396  0.6126597720599704  1.0000
  F   F10       1.0  0.9032981119242507  0.662605424457169  0.38614940920830776  1.0000
  F   F11       1.0  0.0923392548759452  0.6657147824105534  0.3873276344409505  1.0000
  F   F12       1.0  0.9072711116763159  0.3335275171677523  0.6119249563869928  1.0000
  F   F13       1.0  0.574349717457487  0.772958627601511  0.4068600092112078  1.0000
  F   F14       1.0  0.4090104613694123  0.22590438543505084  0.5874661550727325  1.0000
