data_image0
_chemical_formula_structural       Zn12H144C184I24N48O10
_chemical_formula_sum              "Zn12 H144 C184 I24 N48 O10"
_cell_length_a       14.838032168798627
_cell_length_b       19.06244149640413
_cell_length_c       30.47401905757734
_cell_angle_alpha    100.40114787299218
_cell_angle_beta     89.99923518070395
_cell_angle_gamma    112.91339149381294

_space_group_name_H-M_alt    "P 1"
_space_group_IT_number       1

loop_
  _space_group_symop_operation_xyz
  'x, y, z'

loop_
  _atom_site_type_symbol
  _atom_site_label
  _atom_site_symmetry_multiplicity
  _atom_site_fract_x
  _atom_site_fract_y
  _atom_site_fract_z
  _atom_site_occupancy
  Zn  Zn1       1.0  0.2557325001557231  0.21690055134945402  0.17275003864756394  1.0000
  Zn  Zn2       1.0  0.9612155386095578  0.21679446536428057  0.6726990760255447  1.0000
  Zn  Zn3       1.0  0.30418886981033216  0.8146123213580125  0.007246300458483299  1.0000
  Zn  Zn4       1.0  0.5104609043366821  0.8146465337411684  0.5070878127190638  1.0000
  Zn  Zn5       1.0  0.5753531410629262  0.41505734817517487  0.34599263981154127  1.0000
  Zn  Zn6       1.0  0.8394503283940009  0.4150378579916634  0.8459909744259233  1.0000
  Zn  Zn7       1.0  0.31335318594234013  0.9168358020312581  0.7159251686885567  1.0000
  Zn  Zn8       1.0  0.6035223462180284  0.9169377524831859  0.21600394573611936  1.0000
  Zn  Zn9       1.0  0.26264584398560226  0.3187629584886267  0.8848312933319775  1.0000
  Zn  Zn10      1.0  0.05611630351181418  0.3186127251916559  0.3848112587286251  1.0000
  Zn  Zn11      1.0  0.9873902695196362  0.7203211635197063  0.5436059173679835  1.0000
  Zn  Zn12      1.0  0.7328705024025336  0.7202153303547049  0.04353692062493051  1.0000
  H   H1        1.0  0.0706779406215148  0.1008312190195539  0.11431052062886238  1.0000
  H   H2        1.0  0.03015547705792439  0.10066669895093128  0.6142573230613024  1.0000
  H   H3        1.0  0.8905403762754033  0.0753330033840314  0.10761105246701418  1.0000
  H   H4        1.0  0.18488238822747854  0.07526251136605568  0.6075617919471412  1.0000
  H   H5        1.0  0.9518151363118506  0.2745182837840191  0.21379304901203963  1.0000
  H   H6        1.0  0.3227597704960132  0.274530289594189  0.7137203948393491  1.0000
  H   H7        1.0  0.1294106950304794  0.29269754630841766  0.21569390350193623  1.0000
  H   H8        1.0  0.1633047789216064  0.2926078357226913  0.7156046355008739  1.0000
  H   H9        1.0  0.31529508745453677  0.9301242879563104  0.0910875914541265  1.0000
  H   H10       1.0  0.6146710494334258  0.9300370861849387  0.5909081645186376  1.0000
  H   H11       1.0  0.44579961795663064  0.04203270341633919  0.14201362976225335  1.0000
  H   H12       1.0  0.5960546388517044  0.0418132586069433  0.6419385016542873  1.0000
  H   H13       1.0  0.6618214282339777  0.9813150102209601  0.06764775381726194  1.0000
  H   H14       1.0  0.31937313504303694  0.9812751250250359  0.5675725634748331  1.0000
  H   H15       1.0  0.5235148030573171  0.8758083831943466  0.018161794877379095  1.0000
  H   H16       1.0  0.3520591272142681  0.8757447713768655  0.518042018478269  1.0000
  H   H17       1.0  0.7542612584932797  0.410136611229369  0.30666713198955614  1.0000
  H   H18       1.0  0.6555601649721934  0.409948322992868  0.8066698418397138  1.0000
  H   H19       1.0  0.8048435005004461  0.32697886825797445  0.2471360198882593  1.0000
  H   H20       1.0  0.5219985953977683  0.32683211321231914  0.7470560839757139  1.0000
  H   H21       1.0  0.5005468110177986  0.16794248330860742  0.22312217473920265  1.0000
  H   H22       1.0  0.6676041228242223  0.16806169047617195  0.723003626923436  1.0000
  H   H23       1.0  0.46335683810902834  0.25439868647816166  0.2869303625490573  1.0000
  H   H24       1.0  0.7910957464507928  0.2545096329700626  0.7868697547036942  1.0000
  H   H25       1.0  0.6171903932230122  0.3381995314898632  0.41401111703314086  1.0000
  H   H26       1.0  0.7204973524566044  0.33794143067178334  0.9139606410059287  1.0000
  H   H27       1.0  0.7603308180659595  0.34947961675231193  0.4635929210924559  1.0000
  H   H28       1.0  0.5887177262021906  0.3493653708511032  0.9635717634002745  1.0000
  H   H29       1.0  0.9302408948920228  0.5641242187499955  0.42187022066404  1.0000
  H   H30       1.0  0.6341027579082447  0.5642098828752039  0.9219757951862133  1.0000
  H   H31       1.0  0.7800367294516163  0.5440370589710782  0.37349839221752024  1.0000
  H   H32       1.0  0.7640894519176058  0.5439826990790593  0.8735895036418029  1.0000
  H   H33       1.0  0.0809735442505115  0.3794507245198702  0.6668106165188801  1.0000
  H   H34       1.0  0.2983583205046969  0.37953151127216955  0.16681930595913738  1.0000
  H   H35       1.0  0.10572873065823532  0.4681736486300778  0.6122003738021531  1.0000
  H   H36       1.0  0.36231295817287185  0.468217066512686  0.11217090613921238  1.0000
  H   H37       1.0  0.8646646356117739  0.285400850145372  0.5279593230933982  1.0000
  H   H38       1.0  0.420683056639504  0.28543241910085726  0.028011503735967794  1.0000
  H   H39       1.0  0.8538350501271023  0.20136488101388747  0.5846671060046018  1.0000
  H   H40       1.0  0.34747509028433393  0.2014432919245195  0.0847375897855613  1.0000
  H   H41       1.0  0.3414481670186332  0.7182792747023752  0.4370829772749828  1.0000
  H   H42       1.0  0.3769410976628293  0.7183666155221999  0.9372254063327643  1.0000
  H   H43       1.0  0.17639373076201528  0.6061738466834254  0.4329544867031813  1.0000
  H   H44       1.0  0.42986432553148285  0.6062813439873551  0.9330308945249396  1.0000
  H   H45       1.0  0.23711751375721238  0.6071805247067203  0.5714484612801342  1.0000
  H   H46       1.0  0.3699494415960771  0.6070028507726093  0.0714891957491375  1.0000
  H   H47       1.0  0.39884663057778613  0.7192088250981924  0.5701357327247577  1.0000
  H   H48       1.0  0.3202028565856949  0.7190131943437804  0.0702276216322986  1.0000
  H   H49       1.0  0.4399313151222374  0.8423774882961224  0.6737927805320112  1.0000
  H   H50       1.0  0.4026334425452731  0.8425594378914525  0.17375336829117316  1.0000
  H   H51       1.0  0.6170833504074693  0.8599343414632443  0.6775635541641307  1.0000
  H   H52       1.0  0.24297817044330833  0.8600910028461684  0.1775144922383873  1.0000
  H   H53       1.0  0.6784945688657302  0.06697026122289879  0.7779193845435444  1.0000
  H   H54       1.0  0.38838241657384726  0.06695594363650059  0.2780160788719782  1.0000
  H   H55       1.0  0.4987147285111816  0.04220723657765289  0.7692354455327645  1.0000
  H   H56       1.0  0.5434614845189711  0.042234324290007  0.26935641847850883  1.0000
  H   H57       1.0  0.10321431020469157  0.8799251708197245  0.6031525151617814  1.0000
  H   H58       1.0  0.7768432528174926  0.8798112986740491  0.10298050608874118  1.0000
  H   H59       1.0  0.06789075688178069  0.9671015582088742  0.6671570911315995  1.0000
  H   H60       1.0  0.8994872166754674  0.9670263750434529  0.16694826137072027  1.0000
  H   H61       1.0  0.7628790042608528  0.8075170060759689  0.6451072187487411  1.0000
  H   H62       1.0  0.04469525369574263  0.8073557728024311  0.1449937427385564  1.0000
  H   H63       1.0  0.8115561272893141  0.7254497172057267  0.5845582783265754  1.0000
  H   H64       1.0  0.913802582715611  0.7252183738477311  0.08447785492599989  1.0000
  H   H65       1.0  0.04373838249127718  0.2508489158934139  0.8777695830408587  1.0000
  H   H66       1.0  0.20689061068754455  0.2505194407816517  0.37775332594611644  1.0000
  H   H67       1.0  0.9052444391378245  0.14619299190470514  0.8275218845493268  1.0000
  H   H68       1.0  0.24070035427774875  0.1459302921905774  0.3274016688625707  1.0000
  H   H69       1.0  0.12151513274930888  0.09833592036818567  0.7467721524226858  1.0000
  H   H70       1.0  0.9765302868354194  0.0981768284281443  0.2466974754444209  1.0000
  H   H71       1.0  0.25192750212155346  0.20901550988437376  0.7987986213402178  1.0000
  H   H72       1.0  0.9569242404875951  0.20887285113953163  0.2987810908890224  1.0000
  H   H73       1.0  0.7829102771068148  0.5947107095822801  0.5169390844541439  1.0000
  H   H74       1.0  0.8118068028553722  0.5946897872503384  0.01693063265283  1.0000
  H   H75       1.0  0.6346926477293664  0.5732753613045604  0.4668903526535644  1.0000
  H   H76       1.0  0.9387379553505749  0.5733962277161807  0.9669175757833698  1.0000
  H   H77       1.0  0.807047733838587  0.7840439487903338  0.42228768973645  1.0000
  H   H78       1.0  0.9770787018682936  0.7841272060192138  0.9223225731475039  1.0000
  H   H79       1.0  0.9493603852342714  0.7960002392539918  0.4729515060052449  1.0000
  H   H80       1.0  0.846646131835733  0.7959928863745701  0.9729671676709015  1.0000
  H   H81       1.0  0.16079636331627967  0.4191027786952404  0.32352888442237315  1.0000
  H   H82       1.0  0.25835991578260575  0.4191612633405128  0.8236520944258527  1.0000
  H   H83       1.0  0.32132701064372776  0.5325564856048501  0.32209042031337276  1.0000
  H   H84       1.0  0.21119362985711382  0.5325201258756566  0.8221494187701877  1.0000
  H   H85       1.0  0.3916748605895605  0.5241393300385581  0.457876944239544  1.0000
  H   H86       1.0  0.1322571213338506  0.5241439236120229  0.9579115289729571  1.0000
  H   H87       1.0  0.22992203204544373  0.4121308543578975  0.4540452376155599  1.0000
  H   H88       1.0  0.18199154075494306  0.4121684098934891  0.9541347180165756  1.0000
  H   H89       1.0  0.7171799003824758  0.9275493311915638  0.3006712577459395  1.0000
  H   H90       1.0  0.21067749464786806  0.9276590124481814  0.8007431510578015  1.0000
  H   H91       1.0  0.7055473988749412  0.8425802848375951  0.3569632961160777  1.0000
  H   H92       1.0  0.13732975646453124  0.8426869119578269  0.8570419343077234  1.0000
  H   H93       1.0  0.43203190109975503  0.6786294076624415  0.2859418619727592  1.0000
  H   H94       1.0  0.2463041531972721  0.6785160061699856  0.7858502936184735  1.0000
  H   H95       1.0  0.4544465718172788  0.7684737863221612  0.23257594794932146  1.0000
  H   H96       1.0  0.3136975700055941  0.7683396417413703  0.73248090108612  1.0000
  H   H97       1.0  0.3667839981685147  0.27009278658463387  0.5638407192928837  1.0000
  H   H98       1.0  0.9033921498357597  0.2702162530789707  0.06385452145084258  1.0000
  H   H99       1.0  0.24457346701904464  0.2910966538342663  0.5165572769247859  1.0000
  H   H100      1.0  0.04665083554780126  0.29125362964886387  0.01660218763562678  1.0000
  H   H101      1.0  0.20609471048576472  0.291813918273732  0.5719598433249828  1.0000
  H   H102      1.0  0.08578111795171138  0.29191636997501996  0.07199570444227987  1.0000
  H   H103      1.0  0.20592741342502308  0.4078904802801802  0.5404654682653031  1.0000
  H   H104      1.0  0.20210454866201388  0.408039178760589  0.040538675639837186  1.0000
  H   H105      1.0  0.24395817617780577  0.42259716529607516  0.6249804270174832  1.0000
  H   H106      1.0  0.17871365534742265  0.4226452613857248  0.1250470364652401  1.0000
  H   H107      1.0  0.30130640435354633  0.5097883098566242  0.6045373771066805  1.0000
  H   H108      1.0  0.20862096887686465  0.5098850335029609  0.10464042705420697  1.0000
  H   H109      1.0  0.46409093735549306  0.3723958218222306  0.6270285283314081  1.0000
  H   H110      1.0  0.9083458947521308  0.3724479094871781  0.1270703154973134  1.0000
  H   H111      1.0  0.33853963048142777  0.3426248176243334  0.6388238452443742  1.0000
  H   H112      1.0  0.0040637673805435405  0.3426185619399931  0.1388638417083712  1.0000
  H   H113      1.0  0.3793542714790873  0.48549757371299757  0.6870279741350913  1.0000
  H   H114      1.0  0.1061782510908031  0.4855262283612802  0.18712816659925113  1.0000
  H   H115      1.0  0.42954222453085583  0.6017099964905626  0.632770396068558  1.0000
  H   H116      1.0  0.1722296941692106  0.6016393242484169  0.13278808282493768  1.0000
  H   H117      1.0  0.6873316422301129  0.6048269694766049  0.6883767671277424  1.0000
  H   H118      1.0  0.9176822021073431  0.6049248348075693  0.18846085359599835  1.0000
  H   H119      1.0  0.6313908579041295  0.5581510768959888  0.6334849279225734  1.0000
  H   H120      1.0  0.926850633662546  0.5582115635813948  0.13356850946675536  1.0000
  H   H121      1.0  0.5384489703705454  0.5252919895667674  0.7214547064248577  1.0000
  H   H122      1.0  0.9868075028469643  0.5252752107119746  0.22152576374004698  1.0000
  H   H123      1.0  0.5447180650993031  0.4561932424413158  0.6758739533022009  1.0000
  H   H124      1.0  0.9115194871755959  0.45623076904135457  0.17589891928480478  1.0000
  H   H125      1.0  0.4474977628238149  0.6279668907167419  0.7351006888675258  1.0000
  H   H126      1.0  0.1807691602207129  0.6280018757472519  0.23511133641843424  1.0000
  H   H127      1.0  0.5184392133365419  0.7321224107086832  0.691760834795545  1.0000
  H   H128      1.0  0.2138022037176412  0.7321147869225015  0.1917119797945972  1.0000
  H   H129      1.0  0.30010183289363107  0.5314228949380035  0.7509945465307692  1.0000
  H   H130      1.0  0.23151708800101994  0.5314261971238777  0.250888739331323  1.0000
  H   H131      1.0  0.11716401386843962  0.4805794386115565  0.7506154710069878  1.0000
  H   H132      1.0  0.363612857265771  0.4805757998376805  0.250475372523951  1.0000
  H   H133      1.0  0.023357439847181624  0.5260590233162431  0.703709992653273  1.0000
  H   H134      1.0  0.5028436641736675  0.5261195498436422  0.2035042130195208  1.0000
  H   H135      1.0  0.1112252508287028  0.6198070742035497  0.654714449890619  1.0000
  H   H136      1.0  0.5086488928100221  0.6198706702983896  0.1545581772821691  1.0000
  H   H137      1.0  0.2925458419359046  0.6693141378486018  0.6548513216038572  1.0000
  H   H138      1.0  0.3769076654359508  0.6694422459585707  0.15480148202178157  1.0000
  H   H139      1.0  0.5241255797283983  0.5456288213680907  0.5161050501382646  1.0000
  H   H140      1.0  0.021669496424102912  0.5458427856330131  0.016227621832477692  1.0000
  H   H141      1.0  0.49872513782578654  0.45445004900906844  0.4784070234729896  1.0000
  H   H142      1.0  0.9558702583968424  0.4546544638470706  0.9785213105577739  1.0000
  H   H143      1.0  0.5894295140259017  0.4868923574975242  0.5246985877942762  1.0000
  H   H144      1.0  0.8976121402174254  0.4870582390050158  0.024807843670394892  1.0000
  C   C1        1.0  0.040980833337364665  0.13864302251644026  0.134951993857797  1.0000
  C   C2        1.0  0.0976697627231644  0.1385048852803408  0.6348949061488866  1.0000
  C   C3        1.0  0.9416280058027978  0.12464385216376431  0.1314778401693033  1.0000
  C   C4        1.0  0.18302963037197625  0.12453546902912653  0.631440211774482  1.0000
  C   C5        1.0  0.9078219443412363  0.17400801735832513  0.15992237479673574  1.0000
  C   C6        1.0  0.2662086685455519  0.17392910264953088  0.6598870483548251  1.0000
  C   C7        1.0  0.9760267424003997  0.23607247205816154  0.1905579878345591  1.0000
  C   C8        1.0  0.2600882884716142  0.23601115957627172  0.6905015961925827  1.0000
  C   C9        1.0  0.07382168536797451  0.2463202914528821  0.19172284663149233  1.0000
  C   C10       1.0  0.17252364617389304  0.24623615488240352  0.6916425320372709  1.0000
  C   C11       1.0  0.8023150123810721  0.1604729524956383  0.16012481231607717  1.0000
  C   C12       1.0  0.35816434628110716  0.16042321945666058  0.660056711391064  1.0000
  C   C13       1.0  0.6423031469167453  0.08619423021749378  0.13832574431557987  1.0000
  C   C14       1.0  0.4438512015737572  0.08611828665584649  0.6382443649208156  1.0000
  C   C15       1.0  0.6839627240765436  0.19119811338362777  0.19489625904763838  1.0000
  C   C16       1.0  0.5072805801644833  0.1911533013591935  0.6947888007408167  1.0000
  C   C17       1.0  0.3932074138756079  0.9445096545715045  0.0869849981959163  1.0000
  C   C18       1.0  0.5511095764655634  0.9443924313495056  0.5868515236978239  1.0000
  C   C19       1.0  0.46567660229824526  0.0057824722625242  0.11527414181447428  1.0000
  C   C20       1.0  0.5399231875743452  0.005622914842746201  0.6151791320184542  1.0000
  C   C21       1.0  0.5644210307939443  0.020846626306699496  0.10852076661732468  1.0000
  C   C22       1.0  0.45630288503844696  0.020743166285733108  0.608428104025627  1.0000
  C   C23       1.0  0.5863119807585376  0.9730148305106494  0.07345199546347905  1.0000
  C   C24       1.0  0.38657368588098934  0.9729568240638211  0.573350008901599  1.0000
  C   C25       1.0  0.5093688519513364  0.9138236868464772  0.04605700948872029  1.0000
  C   C26       1.0  0.4042579229268242  0.9137419471701589  0.5459379193789714  1.0000
  C   C27       1.0  0.7005761950976106  0.35549182693796405  0.28779102485954405  1.0000
  C   C28       1.0  0.654720006145787  0.35538094500981987  0.7877550747186745  1.0000
  C   C29       1.0  0.728291981989507  0.3099955655300235  0.2543434210184117  1.0000
  C   C30       1.0  0.5816089972126193  0.3098993399052858  0.7542608903957841  1.0000
  C   C31       1.0  0.6561119117070574  0.2411910386383552  0.23041891855316976  1.0000
  C   C32       1.0  0.5851244730561403  0.24117202470052487  0.730309445356198  1.0000
  C   C33       1.0  0.5587499013493086  0.22037963400784116  0.24156421855461466  1.0000
  C   C34       1.0  0.6617391012956018  0.22044160684607308  0.7414544924312664  1.0000
  C   C35       1.0  0.5376712913967336  0.2681605462110355  0.2765292559365449  1.0000
  C   C36       1.0  0.7305092670411137  0.2682169974164522  0.7764560230128126  1.0000
  C   C37       1.0  0.6883368555864063  0.3869294459587706  0.4167058855538385  1.0000
  C   C38       1.0  0.6981934409638482  0.3867131696386749  0.9166670102232714  1.0000
  C   C39       1.0  0.766958869749004  0.3935317582782076  0.4441099816514295  1.0000
  C   C40       1.0  0.6262353778363162  0.39340684909476653  0.944079969318558  1.0000
  C   C41       1.0  0.8560283827976246  0.45757392993981927  0.44597163255497907  1.0000
  C   C42       1.0  0.6014486766837521  0.45754576070910963  0.945990022463121  1.0000
  C   C43       1.0  0.8620938903794976  0.5133521350190052  0.4206066194829673  1.0000
  C   C44       1.0  0.6512873035862085  0.5133478138241115  0.9206771184303122  1.0000
  C   C45       1.0  0.7798255559168296  0.5026079765396716  0.3940888311559475  1.0000
  C   C46       1.0  0.7227500066084714  0.5025357435091847  0.8941429400219005  1.0000
  C   C47       1.0  0.9410564588759056  0.46644212641931654  0.47507184788634754  1.0000
  C   C48       1.0  0.5253674004603325  0.4664778705740602  0.9751176842084346  1.0000
  C   C49       1.0  0.0011595152896504393  0.4329492946048106  0.5324482434951959  1.0000
  C   C50       1.0  0.4317971943184418  0.43297663774902867  0.03249153894665819  1.0000
  C   C51       1.0  0.09966494781826198  0.5332044560171597  0.5019524307718015  1.0000
  C   C52       1.0  0.4335955643080566  0.5332449389832661  0.002009011879145804  1.0000
  C   C53       1.0  0.03678944932656953  0.360208887187575  0.6349438744288278  1.0000
  C   C54       1.0  0.3233008358506665  0.3602792789801299  0.13496166412759436  1.0000
  C   C55       1.0  0.049430941636494224  0.40948118096668656  0.604965796470182  1.0000
  C   C56       1.0  0.35990311470993663  0.40952070044519223  0.10496163688506499  1.0000
  C   C57       1.0  0.9875334506491312  0.382685631457008  0.5656612394581088  1.0000
  C   C58       1.0  0.39508231777661956  0.382716389793373  0.06568821283901369  1.0000
  C   C59       1.0  0.9140117332517547  0.30759516380006596  0.5582203266259639  1.0000
  C   C60       1.0  0.3934879749681812  0.3076314063933481  0.058250313557351795  1.0000
  C   C61       1.0  0.9078201627570976  0.2611858491595385  0.5892707205177243  1.0000
  C   C62       1.0  0.3532797355272591  0.26124763981933086  0.08931355455764838  1.0000
  C   C63       1.0  0.3149085727929092  0.6909976939092318  0.46576447530593157  1.0000
  C   C64       1.0  0.37619385256302  0.6910577719955953  0.9658853578489042  1.0000
  C   C65       1.0  0.224497311308852  0.629312687890028  0.46366043046416644  1.0000
  C   C66       1.0  0.40490968935941396  0.6293756910145731  0.9637520537681394  1.0000
  C   C67       1.0  0.19582341450769292  0.5977002063535792  0.5018702723906684  1.0000
  C   C68       1.0  0.4019181528111346  0.5977093074993576  0.0019371677786992122  1.0000
  C   C69       1.0  0.2586111620479484  0.6298555621607064  0.5410499628974037  1.0000
  C   C70       1.0  0.37116255503776313  0.6297461836387653  0.041114246760791694  1.0000
  C   C71       1.0  0.34715863073293457  0.691931983795456  0.5405600181325594  1.0000
  C   C72       1.0  0.34468368645649133  0.6918071774339507  0.04065803902712868  1.0000
  C   C73       1.0  0.4954427165078172  0.8909700220717056  0.6965274920673821  1.0000
  C   C74       1.0  0.39564867854078056  0.8911209620019847  0.19651889830983288  1.0000
  C   C75       1.0  0.592987696215232  0.9006320762913164  0.6988881355933144  1.0000
  C   C76       1.0  0.30774671551974814  0.900744245023418  0.1988622975830623  1.0000
  C   C77       1.0  0.6608477665494944  0.9644922242398692  0.7285089786367392  1.0000
  C   C78       1.0  0.303686529939725  0.9645349813393266  0.2285191578580239  1.0000
  C   C79       1.0  0.6274410642339915  0.016491881608658308  0.7547414314021167  1.0000
  C   C80       1.0  0.3890299189883493  0.0165275879975013  0.2548049009561026  1.0000
  C   C81       1.0  0.5284834873997538  0.0029593181529747993  0.7501767906496823  1.0000
  C   C82       1.0  0.47447711418083555  0.0030238550795331992  0.2502524445224523  1.0000
  C   C83       1.0  0.7659791571292299  0.9770742287667243  0.7294429717108384  1.0000
  C   C84       1.0  0.21108678474348624  0.9770413894829987  0.2294091346604787  1.0000
  C   C85       1.0  0.8845703614411631  0.944981922632621  0.6957974936486052  1.0000
  C   C86       1.0  0.060476361044244725  0.9448692457462825  0.19566196525367727  1.0000
  C   C87       1.0  0.925605668557068  0.049327914287204094  0.7526540098248589  1.0000
  C   C88       1.0  0.12354388500404667  0.049175448680102804  0.25257526889695464  1.0000
  C   C89       1.0  0.029137571499745774  0.8668044179522028  0.613720060235444  1.0000
  C   C90       1.0  0.8378197474429853  0.8667032425311091  0.11354839572784667  1.0000
  C   C91       1.0  0.009030383939084225  0.9149012214007611  0.6488485107313265  1.0000
  C   C92       1.0  0.9060874632224836  0.9148148224003236  0.1486378712425349  1.0000
  C   C93       1.0  0.9119339714977738  0.8944904916002016  0.6603998589040073  1.0000
  C   C94       1.0  0.982709938024257  0.8943790687058595  0.16021990395382346  1.0000
  C   C95       1.0  0.8389863963665503  0.8255501015527286  0.6369935452686305  1.0000
  C   C96       1.0  0.9866526858767058  0.8253997439910563  0.136852577078642  1.0000
  C   C97       1.0  0.8658195910097816  0.7800651591194806  0.6031721522134105  1.0000
  C   C98       1.0  0.9142624565185852  0.7798743253880429  0.10305251757344536  1.0000
  C   C99       1.0  0.057713236273343696  0.21596700132368338  0.8482080781533197  1.0000
  C   C100      1.0  0.1580601814440427  0.21571342365860596  0.34816353680022155  1.0000
  C   C101      1.0  0.9809458222896051  0.15733638342609882  0.8204483708141552  1.0000
  C   C102      1.0  0.17615997582236523  0.1571192667760357  0.3203613341901814  1.0000
  C   C103      1.0  0.0031341087609462123  0.1136998514298782  0.7832718814484138  1.0000
  C   C104      1.0  0.11030042038269978  0.11349963622146929  0.2831824969569539  1.0000
  C   C105      1.0  0.10176723466429388  0.1318309933852078  0.7750589784867755  1.0000
  C   C106      1.0  0.029807078330712503  0.1316382871444404  0.2749926812183787  1.0000
  C   C107      1.0  0.17400689584491855  0.1922983650666481  0.803860210197058  1.0000
  C   C108      1.0  0.018091390976273727  0.1921121068531875  0.3038188693174675  1.0000
  C   C109      1.0  0.7842416024975021  0.63490948004452  0.4952760867459745  1.0000
  C   C110      1.0  0.8506724035072183  0.6349061358111785  0.9952677004979334  1.0000
  C   C111      1.0  0.703102240478408  0.623391983068025  0.4678441282919862  1.0000
  C   C112      1.0  0.920368909056833  0.6234651114449719  0.9678698365669262  1.0000
  C   C113      1.0  0.7098223699578624  0.6779199949812025  0.44151653368518134  1.0000
  C   C114      1.0  0.9681417877861306  0.6779906991363376  0.941538881394024  1.0000
  C   C115      1.0  0.7995271675161532  0.741035828872448  0.442687881937509  1.0000
  C   C116      1.0  0.9415760504697274  0.7411003431788359  0.9427118736736089  1.0000
  C   C117      1.0  0.8775175011513809  0.7482415140489709  0.47080412366621965  1.0000
  C   C118      1.0  0.870739462842941  0.7482482628379401  0.9708122117506331  1.0000
  C   C119      1.0  0.6234764984236771  0.668707701528433  0.41321414101034276  1.0000
  C   C120      1.0  0.045226755193738165  0.6687312266211123  0.9132263046598151  1.0000
  C   C121      1.0  0.46329954578369836  0.6023611929269846  0.3891675609023792  1.0000
  C   C122      1.0  0.13897810292503726  0.6023491778323802  0.8891847238842983  1.0000
  C   C123      1.0  0.5577379490034886  0.7029415552469659  0.3578107678370656  1.0000
  C   C124      1.0  0.14516584710172964  0.7029206299888315  0.8578130969619051  1.0000
  C   C125      1.0  0.21462135987195546  0.4446355937223813  0.3523850420667003  1.0000
  C   C126      1.0  0.23001979297882966  0.44468616977702874  0.852487277116836  1.0000
  C   C127      1.0  0.3024032459871505  0.5071837214924244  0.3517654014831065  1.0000
  C   C128      1.0  0.20471954780727936  0.5071754995513231  0.8518360774183265  1.0000
  C   C129      1.0  0.368082404772089  0.5372398109315455  0.3900291121945541  1.0000
  C   C130      1.0  0.16905645471843658  0.5372276008926065  0.8900776783407165  1.0000
  C   C131      1.0  0.3426627740668096  0.5031148898770541  0.4275659470323561  1.0000
  C   C132      1.0  0.16030705395734662  0.5031206584542288  0.9276174793318004  1.0000
  C   C133      1.0  0.2527394772167  0.4409232350783086  0.42567164855253736  1.0000
  C   C134      1.0  0.18804650465658307  0.44093757932328964  0.9257569143365956  1.0000
  C   C135      1.0  0.6559498316799833  0.8715286680027675  0.2988097586134372  1.0000
  C   C136      1.0  0.2157245661781387  0.87157262840401  0.7988385563909686  1.0000
  C   C137      1.0  0.6494563234963096  0.8245870042463537  0.3295350629262969  1.0000
  C   C138      1.0  0.1752637095856002  0.824629804896702  0.8295687614565778  1.0000
  C   C139      1.0  0.5679745064390218  0.7540432709837361  0.3253562345859535  1.0000
  C   C140      1.0  0.18602409191887398  0.7540244451620166  0.8253468890548986  1.0000
  C   C141      1.0  0.4960590616207979  0.7332301749350449  0.2902694136904386  1.0000
  C   C142      1.0  0.23695496231954394  0.7331355525185258  0.7902107266572853  1.0000
  C   C143      1.0  0.5082890666946723  0.7830812017285638  0.2606538379407795  1.0000
  C   C144      1.0  0.27456357297685235  0.7829877334310424  0.7605909335869682  1.0000
  C   C145      1.0  0.4417229729979295  0.445515620370827  0.5424799169488991  1.0000
  C   C146      1.0  0.003966345866636785  0.44569220154622957  0.04257638896375938  1.0000
  C   C147      1.0  0.363855604385769  0.3276194588098207  0.5680029539093281  1.0000
  C   C148      1.0  0.9638559902645126  0.3277437357627306  0.06804781694343379  1.0000
  C   C149      1.0  0.2639488417791113  0.3225438145682702  0.5514169172309876  1.0000
  C   C150      1.0  0.05869675085063623  0.32267589214611553  0.051465267381011884  1.0000
  C   C151      1.0  0.272597907585343  0.4058611842506109  0.5547442418044141  1.0000
  C   C152      1.0  0.1334054503343935  0.40600471301164026  0.0548195986173852  1.0000
  C   C153      1.0  0.2994555604713938  0.45124363591568073  0.6029595726543419  1.0000
  C   C154      1.0  0.1518996730851185  0.4513255985839635  0.1030434087190315  1.0000
  C   C155      1.0  0.4000449507941538  0.4550091933260347  0.6186586115525401  1.0000
  C   C156      1.0  0.055064718762366655  0.4550724553127167  0.11874982865520416  1.0000
  C   C157      1.0  0.3929956690565815  0.3717831796009463  0.616535757623943  1.0000
  C   C158      1.0  0.9788536500510499  0.37184607737677305  0.11658881161182678  1.0000
  C   C159      1.0  0.43796477468488576  0.5083441366863538  0.6648836612774643  1.0000
  C   C160      1.0  0.0704620614009456  0.508387278267527  0.16497201679705134  1.0000
  C   C161      1.0  0.4588850348832452  0.5942677790188712  0.6639982642684643  1.0000
  C   C162      1.0  0.1354977941584323  0.5942767969406972  0.16404225125589988  1.0000
  C   C163      1.0  0.5707863716545702  0.6352032088148362  0.6661861070409499  1.0000
  C   C164      1.0  0.06457444256074756  0.6352218484529429  0.16620781979330698  1.0000
  C   C165      1.0  0.6170224359438093  0.5779719189668882  0.6680570425980434  1.0000
  C   C166      1.0  0.9610818478893034  0.5780287616811889  0.16812856920809335  1.0000
  C   C167      1.0  0.5362457127499027  0.5114935469452604  0.6847073380661683  1.0000
  C   C168      1.0  0.975303271329679  0.5115295753547927  0.1847732474685841  1.0000
  C   C169      1.0  0.41911134487884266  0.6357191851211964  0.7034091401669256  1.0000
  C   C170      1.0  0.2168141156109442  0.6357736818234443  0.20340341225063696  1.0000
  C   C171      1.0  0.308207254424822  0.6020714412400494  0.7020037769233268  1.0000
  C   C172      1.0  0.29405505770345297  0.6021208201744486  0.2019384507391919  1.0000
  C   C173      1.0  0.258145712941328  0.5492143547229916  0.7290608330966037  1.0000
  C   C174      1.0  0.2912526352687976  0.549222269201934  0.22895587558271296  1.0000
  C   C175      1.0  0.15592954860212418  0.5213415328990721  0.7292983417569727  1.0000
  C   C176      1.0  0.365578820159321  0.5213266776479059  0.22915151377117834  1.0000
  C   C177      1.0  0.10283636850182629  0.5466537714370858  0.7026255334129061  1.0000
  C   C178      1.0  0.443935314137633  0.5466624298959388  0.202449768585673  1.0000
  C   C179      1.0  0.15204564330161216  0.5990248960261865  0.6752893319949179  1.0000
  C   C180      1.0  0.4470755019194855  0.599073365614423  0.1751444755938181  1.0000
  C   C181      1.0  0.2540084006532766  0.6261120286027548  0.6748342309737154  1.0000
  C   C182      1.0  0.37223781985650806  0.6261995005982894  0.17474555345031456  1.0000
  C   C183      1.0  0.5188452165926661  0.4859443675865053  0.5132021051634084  1.0000
  C   C184      1.0  0.9672673995323748  0.48614246426576824  0.013314883239147007  1.0000
  I   I1        1.0  0.3146775675576591  0.30398982193945995  0.25007120988253456  1.0000
  I   I2        1.0  0.9893527236301902  0.3038880021100994  0.7500438003037216  1.0000
  I   I3        1.0  0.2678022424565754  0.08736861199509599  0.1422093475961788  1.0000
  I   I4        1.0  0.8191470205426583  0.08746623092392979  0.6422780952061513  1.0000
  I   I5        1.0  0.33517632119384183  0.8613947883950814  0.9333964960722978  1.0000
  I   I6        1.0  0.5261155778526642  0.8614379082226761  0.4332431668300315  1.0000
  I   I7        1.0  0.14667989194970943  0.776559667332279  0.04838098049030039  1.0000
  I   I8        1.0  0.6301163305231651  0.7767777425383215  0.5482227253074183  1.0000
  I   I9        1.0  0.6126355955504649  0.528071908274448  0.30571245805071356  1.0000
  I   I10       1.0  0.9151474787834031  0.528143855974946  0.8057656496083039  1.0000
  I   I11       1.0  0.4249057557162458  0.34114794128204545  0.3844597803814906  1.0000
  I   I12       1.0  0.9160483176753399  0.34117650174190567  0.8844178649719296  1.0000
  I   I13       1.0  0.2898251779314406  0.043432895734284195  0.7434990793468399  1.0000
  I   I14       1.0  0.7535113436682437  0.0435767485874763  0.24372675312190484  1.0000
  I   I15       1.0  0.24554736347808162  0.8226423503371123  0.6410752388083835  1.0000
  I   I16       1.0  0.5770250122556533  0.8229406068297749  0.14107799248494496  1.0000
  I   I17       1.0  0.4195177758697142  0.3540903075645829  0.842406224935061  1.0000
  I   I18       1.0  0.9344278077218249  0.3538596958118418  0.3424531841467982  1.0000
  I   I19       1.0  0.23462682224516834  0.2725588152739106  0.959016471898927  1.0000
  I   I20       1.0  0.03851200200374906  0.2725573567869334  0.459049672994766  1.0000
  I   I21       1.0  0.13838425955758268  0.7895742248830755  0.5040316781518114  1.0000
  I   I22       1.0  0.6513391017031225  0.7898730825049967  0.004209472465952002  1.0000
  I   I23       1.0  0.9425252896455729  0.6040250898020858  0.5824589235732063  1.0000
  I   I24       1.0  0.661379675074187  0.6040991454685738  0.08249537113072587  1.0000
  N   N1        1.0  0.1060678125287637  0.19843366758716033  0.16454359503938318  1.0000
  N   N2        1.0  0.0923871913042902  0.198320373196303  0.664464608410057  1.0000
  N   N3        1.0  0.736809626179081  0.0990290166046748  0.13201760811349314  1.0000
  N   N4        1.0  0.362183799116174  0.09897009178396839  0.6319429912636848  1.0000
  N   N5        1.0  0.6124978865977155  0.12857287057561  0.17064888797118266  1.0000
  N   N6        1.0  0.5160407793673016  0.1284945933837633  0.6705646174995364  1.0000
  N   N7        1.0  0.7800690327095907  0.21103370962424606  0.1899855559692938  1.0000
  N   N8        1.0  0.4310326914655035  0.21101489152195543  0.689882582578967  1.0000
  N   N9        1.0  0.4146997871343316  0.899628810341696  0.0527361886474296  1.0000
  N   N10       1.0  0.48472109505920696  0.8995346391401995  0.5525977328076479  1.0000
  N   N11       1.0  0.6072920854635625  0.3347933583561796  0.2989628809965764  1.0000
  N   N12       1.0  0.7273631628006283  0.3347652360862908  0.7989282172848817  1.0000
  N   N13       1.0  0.694682195647658  0.44029433301646737  0.39193131234708284  1.0000
  N   N14       1.0  0.7453648910142546  0.44011971773166175  0.8919357435490054  1.0000
  N   N15       1.0  0.9242520813173624  0.41838146734526294  0.5040976728469814  1.0000
  N   N16       1.0  0.49412745080522297  0.4184116676672147  0.004139481117633195  1.0000
  N   N17       1.0  0.08970508299320562  0.49067312254977935  0.5336430729582274  1.0000
  N   N18       1.0  0.4009945096457271  0.4906946436886628  0.0336913455221719  1.0000
  N   N19       1.0  0.028288696669875338  0.5228034390929107  0.4713286163832178  1.0000
  N   N20       1.0  0.49456527552124635  0.5228546081459556  0.9713851605600609  1.0000
  N   N21       1.0  0.9685629331062555  0.28690570911837915  0.6268456077911466  1.0000
  N   N22       1.0  0.3183051906135218  0.2870056922320855  0.1268917630608968  1.0000
  N   N23       1.0  0.37498264807611287  0.721650988230813  0.5034976075797388  1.0000
  N   N24       1.0  0.3467052019160093  0.7216423020535956  0.003627892128200495  1.0000
  N   N25       1.0  0.4635744063125671  0.9412063435136631  0.7216045377697782  1.0000
  N   N26       1.0  0.477688042080331  0.9413284080087793  0.2216530137377291  1.0000
  N   N27       1.0  0.788517353522991  0.9265156230240663  0.6997911730996191  1.0000
  N   N28       1.0  0.13809772743353932  0.926479216669506  0.19970867510461687  1.0000
  N   N29       1.0  0.9560689286311328  0.006817677395147799  0.7207363222676904  1.0000
  N   N30       1.0  0.05066197884823249  0.006630320710293299  0.22061589979096397  1.0000
  N   N31       1.0  0.8312712176691475  0.03787747736333099  0.7581072056698516  1.0000
  N   N32       1.0  0.20648413498797416  0.037797476281156185  0.2580659577402925  1.0000
  N   N33       1.0  0.9586948652456184  0.8004824507366234  0.5913942016322479  1.0000
  N   N34       1.0  0.8418330339441338  0.8003163593625543  0.09126805850785756  1.0000
  N   N35       1.0  0.1523827856203041  0.23344970057522116  0.8399503175469503  1.0000
  N   N36       1.0  0.08090527889209645  0.23322621116496822  0.339918598536876  1.0000
  N   N37       1.0  0.8698076129222869  0.6966020244903461  0.4970338197542218  1.0000
  N   N38       1.0  0.8267476826834893  0.6965505706403049  0.9970065581554833  1.0000
  N   N39       1.0  0.5370180734620787  0.6125754914796956  0.41836181364926245  1.0000
  N   N40       1.0  0.0754864002837792  0.6125796743592105  0.9183786291341673  1.0000
  N   N41       1.0  0.4696299963784655  0.645553784452666  0.3581825021064304  1.0000
  N   N42       1.0  0.1758467031938623  0.6455223692576341  0.8581911349589928  1.0000
  N   N43       1.0  0.637536689622344  0.7162106599994261  0.3840907241616661  1.0000
  N   N44       1.0  0.07867000026431736  0.7162215679066861  0.8841020528600506  1.0000
  N   N45       1.0  0.18988386318836356  0.4123018635732266  0.38882619745155  1.0000
  N   N46       1.0  0.22239770255264094  0.4123617315419636  0.8889363203426155  1.0000
  N   N47       1.0  0.5868354361070091  0.8509894521945683  0.26486242389641745  1.0000
  N   N48       1.0  0.2641157893659026  0.8509595799596709  0.7648365412860798  1.0000
  O   O1        1.0  0.4701478047222665  0.4890333599403577  0.587263991796668  1.0000
  O   O2        1.0  0.0190682590440616  0.48916197960078006  0.08736590538926238  1.0000
  O   O3        1.0  0.35018365295216813  0.4443005243392618  0.5274440399622404  1.0000
  O   O4        1.0  0.09428663237115838  0.4444755801783913  0.027529578602496895  1.0000
  O   O5        1.0  0.43710180642048607  0.3691381038329452  0.5400640191761211  1.0000
  O   O6        1.0  0.9321722626133062  0.36931444530131324  0.040134477233465304  1.0000
  O   O7        1.0  0.6148876432633584  0.7056695675907817  0.6683552465025143  1.0000
  O   O8        1.0  0.09097136564521688  0.7056696490212743  0.16829583149672797  1.0000
  O   O9        1.0  0.45191485215840294  0.7164468621058903  0.7025582216777835  1.0000
  O   O10       1.0  0.2646844402662225  0.7164989216896486  0.20253051130413263  1.0000
