data_image0
_chemical_formula_structural       Zn4H42C92S2N4O40
_chemical_formula_sum              "Zn4 H42 C92 S2 N4 O40"
_cell_length_a       16.518665548801113
_cell_length_b       17.849286714487448
_cell_length_c       30.5746885031224
_cell_angle_alpha    90.2427032577607
_cell_angle_beta     90.095847070793
_cell_angle_gamma    89.98575594763354

_space_group_name_H-M_alt    "P 1"
_space_group_IT_number       1

loop_
  _space_group_symop_operation_xyz
  'x, y, z'

loop_
  _atom_site_type_symbol
  _atom_site_label
  _atom_site_symmetry_multiplicity
  _atom_site_fract_x
  _atom_site_fract_y
  _atom_site_fract_z
  _atom_site_occupancy
  Zn  Zn1       1.0  0.5849592968923858  0.5018869194442105  0.5021304152179056  1.0000
  Zn  Zn2       1.0  0.41571239278366784  0.49973985961732836  0.5019452172114498  1.0000
  Zn  Zn3       1.0  0.4150245598286446  0.5041423696795917  0.9175399460626534  1.0000
  Zn  Zn4       1.0  0.5842831206181243  0.5020203129948583  0.9176587122179212  1.0000
  H   H1        1.0  0.2851392572530429  0.5719405023028015  0.554311352187298  1.0000
  H   H2        1.0  0.13340997305682833  0.5750848390507882  0.5545068642108788  1.0000
  H   H3        1.0  0.288971932418697  0.4200354022358326  0.4512139868803543  1.0000
  H   H4        1.0  0.7133290174010227  0.5873100779141182  0.5492574126362866  1.0000
  H   H5        1.0  0.7149474585408981  0.4147064515740341  0.4580164273918611  1.0000
  H   H6        1.0  0.8670430066385181  0.41268096000216303  0.4563279228596355  1.0000
  H   H7        1.0  0.6279309996238779  0.7422182700263845  0.5041775109988648  1.0000
  H   H8        1.0  0.6234666059006243  0.8818285442088792  0.5016957858384855  1.0000
  H   H9        1.0  0.3682039448317198  0.7354195222223509  0.4966935848898613  1.0000
  H   H10       1.0  0.634214215052758  0.2636889427293029  0.4977479760661366  1.0000
  H   H11       1.0  0.37438375875759533  0.2625610219380191  0.5049996993205922  1.0000
  H   H12       1.0  0.3753706156983442  0.12283998147403  0.5016036463743204  1.0000
  H   H13       1.0  0.37217088306872637  0.50716556118865  0.05791650364626828  1.0000
  H   H14       1.0  0.3753497202223742  0.5054246263419201  0.13958104775541358  1.0000
  H   H15       1.0  0.6319290761168191  0.4949170794600022  0.055492127743363484  1.0000
  H   H16       1.0  0.3679598686054391  0.49219146834847993  0.36406396430115245  1.0000
  H   H17       1.0  0.62767407024036  0.5048293535024797  0.3617469280077613  1.0000
  H   H18       1.0  0.6245035865527414  0.5044284483676975  0.2800764598722978  1.0000
  H   H19       1.0  0.7147725015805477  0.5738446360876069  0.8654604358896165  1.0000
  H   H20       1.0  0.8665049650382528  0.5768440151629408  0.8651845316938489  1.0000
  H   H21       1.0  0.7110522626120357  0.42285929242256504  0.9682742236862791  1.0000
  H   H22       1.0  0.28671558431580024  0.5892945235900057  0.8704874641223198  1.0000
  H   H23       1.0  0.2849241496384707  0.4175540756147598  0.9614449960490032  1.0000
  H   H24       1.0  0.1328387820484309  0.4156012197412906  0.9630357314892845  1.0000
  H   H25       1.0  0.3721563844803342  0.7444070835572986  0.9146112054314625  1.0000
  H   H26       1.0  0.3765563006925277  0.8840961621035319  0.9165514948532942  1.0000
  H   H27       1.0  0.6318804928876532  0.7377558702521084  0.9220309761672778  1.0000
  H   H28       1.0  0.3661222463143475  0.2661579931631336  0.921521582995062  1.0000
  H   H29       1.0  0.6259128735288044  0.2646487951815502  0.9140959203602532  1.0000
  H   H30       1.0  0.6247744247909139  0.12491296321101689  0.9168664034553159  1.0000
  H   H31       1.0  0.0319753845751123  0.45062430748677673  0.438510639844992  1.0000
  H   H32       1.0  0.9733896821196666  0.6010092509854416  0.5344008317422675  1.0000
  H   H33       1.0  0.37980434928949347  0.9766944148682203  0.48444609508084097  1.0000
  H   H34       1.0  0.6163905373746205  0.0223944786592938  0.48616197127778077  1.0000
  H   H35       1.0  0.6181818946932792  0.47717449599612377  0.19619259616403886  1.0000
  H   H36       1.0  0.3816936393823198  0.4764662992154739  0.22322786160709274  1.0000
  H   H37       1.0  0.9680260509852375  0.45377199287872133  0.980991487895764  1.0000
  H   H38       1.0  0.0266514903747606  0.6031871764548598  0.8853389799258193  1.0000
  H   H39       1.0  0.6201951315046658  0.9792154910146851  0.933641853490961  1.0000
  H   H40       1.0  0.3836394448597318  0.0249413434424639  0.9321873135072564  1.0000
  H   H41       1.0  0.3314202627183107  0.581210614838781  0.6873479631016934  1.0000
  H   H42       1.0  0.6682865051971091  0.5813993980038674  0.7325551884550874  1.0000
  C   C1        1.0  0.50037559182271  0.6462137513819428  0.5009127015462552  1.0000
  C   C2        1.0  0.498134184265716  0.5011611630540713  0.5868340117945081  1.0000
  C   C3        1.0  0.5041390248293993  0.35564016407315785  0.5025335790839589  1.0000
  C   C4        1.0  0.4995268716746679  0.497412714060786  0.41694711182547184  1.0000
  C   C5        1.0  0.4996514322265567  0.648489607136753  0.9183560298280468  1.0000
  C   C6        1.0  0.5016585037602611  0.502241626063828  0.8328305743024413  1.0000
  C   C7        1.0  0.4962253084772286  0.3578858055100228  0.9169630947407723  1.0000
  C   C8        1.0  0.5003869579322924  0.5004498688117704  0.002661594499180399  1.0000
  C   C9        1.0  0.24971121046068134  0.5393327438435449  0.5309248175966914  1.0000
  C   C10       1.0  0.1658560363879999  0.5406477305159286  0.5308551389216232  1.0000
  C   C11       1.0  0.123349384246886  0.49663819486532645  0.5000758084822223  1.0000
  C   C12       1.0  0.1680043103734334  0.4509132874786842  0.47075532484004856  1.0000
  C   C13       1.0  0.25237901112825517  0.4538609015785795  0.4734460647484936  1.0000
  C   C14       1.0  0.03764591853250471  0.4991747022568873  0.5001575998640674  1.0000
  C   C15       1.0  0.9637584826664922  0.5029754331692047  0.501897588882066  1.0000
  C   C16       1.0  0.8780683479885597  0.5040794278383984  0.5032690834794238  1.0000
  C   C17       1.0  0.8338718797808937  0.5539703830080711  0.5304185193076876  1.0000
  C   C18       1.0  0.7494104953107694  0.549847944550592  0.5288536174016867  1.0000
  C   C19       1.0  0.7510221656641036  0.453446162889996  0.4776713688795836  1.0000
  C   C20       1.0  0.8348818200388947  0.4527435011088343  0.4769013326693423  1.0000
  C   C21       1.0  0.49836503187521697  0.7302034034233316  0.5002120147379256  1.0000
  C   C22       1.0  0.5703511864891695  0.7717351056956688  0.5018811225068518  1.0000
  C   C23       1.0  0.5676598253905852  0.8492957016748548  0.5005020922428185  1.0000
  C   C24       1.0  0.4927965570727438  0.88751179017531  0.49779068523059766  1.0000
  C   C25       1.0  0.41953788673362163  0.8456022297950483  0.4967256065903029  1.0000
  C   C26       1.0  0.42422547645870884  0.7675070065996293  0.49778115874074996  1.0000
  C   C27       1.0  0.4950747523250171  0.9667553341679066  0.4968228337410493  1.0000
  C   C28       1.0  0.5018961898259846  0.0352243465484818  0.4966893051869902  1.0000
  C   C29       1.0  0.5058373970860474  0.11441565428848577  0.49771191868453696  1.0000
  C   C30       1.0  0.5801664822049375  0.1547409708303462  0.49659693756909445  1.0000
  C   C31       1.0  0.5773794656541256  0.23286639881469984  0.4984402836222228  1.0000
  C   C32       1.0  0.5042390500360341  0.27168308745766  0.5012617819307081  1.0000
  C   C33       1.0  0.43117803262112625  0.23178776013205046  0.5025499777937341  1.0000
  C   C34       1.0  0.43195900475728166  0.15418125663684626  0.5006614665648357  1.0000
  C   C35       1.0  0.43069033097579285  0.49459412442500644  0.6633050784572843  1.0000
  C   C36       1.0  0.5689818052807  0.49499451762700614  0.7563647954781345  1.0000
  C   C37       1.0  0.4965208507068369  0.49504745478174084  0.6351109117972766  1.0000
  C   C38       1.0  0.5031609315119212  0.495723319692672  0.7845500939075618  1.0000
  C   C39       1.0  0.5422834430517582  0.4944583243203127  0.7120863713705032  1.0000
  C   C40       1.0  0.4573957318950264  0.49444177034521897  0.7075896573600814  1.0000
  C   C41       1.0  0.5017361059833333  0.5001477479174454  0.051699982526351086  1.0000
  C   C42       1.0  0.42942101083026074  0.5036706628620278  0.07555105729715449  1.0000
  C   C43       1.0  0.4314033577431076  0.5028010044971865  0.12086198027970599  1.0000
  C   C44       1.0  0.5059732296670845  0.49894245448712843  0.14355876242759535  1.0000
  C   C45       1.0  0.5795848442238878  0.4965201410662771  0.1194792717719153  1.0000
  C   C46       1.0  0.5755681669025279  0.49689577344337715  0.07385969587383558  1.0000
  C   C47       1.0  0.5031607502888704  0.49820571041669826  0.18981308368154254  1.0000
  C   C48       1.0  0.4966716177168493  0.4978730137336953  0.22978045479480608  1.0000
  C   C49       1.0  0.4938920919792622  0.49781922339628437  0.2760380859203052  1.0000
  C   C50       1.0  0.42029285093432384  0.4948849738096327  0.3000929510209075  1.0000
  C   C51       1.0  0.4243137662235767  0.4945110231013459  0.3457128574287295  1.0000
  C   C52       1.0  0.49813421678211267  0.49753162330001993  0.36790468251736996  1.0000
  C   C53       1.0  0.5704388662928039  0.5015244813193008  0.34408387129914075  1.0000
  C   C54       1.0  0.5684588520987219  0.5013756028102136  0.2987697883899471  1.0000
  C   C55       1.0  0.7502309322782567  0.5414032751607395  0.8887595662708134  1.0000
  C   C56       1.0  0.834084609838321  0.5426542384346221  0.8887838801061462  1.0000
  C   C57       1.0  0.8766261268188345  0.49892054731715524  0.9194696968407567  1.0000
  C   C58       1.0  0.8320249597607444  0.45352671853002846  0.9487495223893914  1.0000
  C   C59       1.0  0.747637656978327  0.45646398502549346  0.946095827965429  1.0000
  C   C60       1.0  0.9623298357343516  0.5014526338652203  0.9193454256756579  1.0000
  C   C61       1.0  0.0361949490174354  0.5053889701155897  0.9175646184846823  1.0000
  C   C62       1.0  0.12189015025115424  0.5065394304533086  0.9162428228423776  1.0000
  C   C63       1.0  0.16614261802650532  0.5561866977482809  0.8892198240747857  1.0000
  C   C64       1.0  0.2506065754176916  0.5520359036326781  0.8908117999241865  1.0000
  C   C65       1.0  0.248892426402719  0.45611731854138066  0.9418261487587427  1.0000
  C   C66       1.0  0.1650435915282529  0.4554524068530129  0.9425467025554537  1.0000
  C   C67       1.0  0.5016913022213103  0.7324795962954552  0.9186100464923398  1.0000
  C   C68       1.0  0.4297092964514277  0.7739939707656233  0.9167733386157406  1.0000
  C   C69       1.0  0.43238269196744733  0.8515793300526013  0.9178569693985635  1.0000
  C   C70       1.0  0.5072536538515919  0.8898095574394134  0.9204342559887377  1.0000
  C   C71       1.0  0.5805259220950347  0.8479133417533902  0.9216114238640782  1.0000
  C   C72       1.0  0.5758368372054434  0.7697970067972193  0.9208414576995521  1.0000
  C   C73       1.0  0.5049358656820432  0.969072359730909  0.9212974817279045  1.0000
  C   C74       1.0  0.4981509529874019  0.0375362478586254  0.9215151554089189  1.0000
  C   C75       1.0  0.4942848149833167  0.11672302722825378  0.9207679625955335  1.0000
  C   C76       1.0  0.4200158742236653  0.1571512656096274  0.9221345573156012  1.0000
  C   C77       1.0  0.422904103854421  0.23525984988593504  0.9206244778741846  1.0000
  C   C78       1.0  0.4960840738017255  0.2739494891617865  0.9179233041394281  1.0000
  C   C79       1.0  0.5691022296171866  0.23394901204230226  0.9164304101322426  1.0000
  C   C80       1.0  0.5682206316583277  0.15634788325687052  0.9179607055927687  1.0000
  C   C81       1.0  0.13397355312906  0.3969839676133944  0.4374193462359769  1.0000
  C   C82       1.0  0.868190457200896  0.6111777240359403  0.5618099146494941  1.0000
  C   C83       1.0  0.3351830128339941  0.8778608611568686  0.4950123988622862  1.0000
  C   C84       1.0  0.6637393598221949  0.12103710743873111  0.49351287464254057  1.0000
  C   C85       1.0  0.6637181618328539  0.49451176902200433  0.13872093977758473  1.0000
  C   C86       1.0  0.3361620409559976  0.4931671132608102  0.2808430979869242  1.0000
  C   C87       1.0  0.8661583465799011  0.3999549962190089  0.9819943984023138  1.0000
  C   C88       1.0  0.1318452552887663  0.6132107287744901  0.857975641628677  1.0000
  C   C89       1.0  0.6648679699221774  0.8802231291195567  0.9231789588747856  1.0000
  C   C90       1.0  0.3364149048903826  0.12360029010791608  0.925216725039604  1.0000
  C   C91       1.0  0.3434194583151324  0.49373579986880844  0.6499745253401058  1.0000
  C   C92       1.0  0.6562511505347004  0.4942085040798786  0.7697066763099869  1.0000
  S   S1        1.0  0.5892526619459701  0.4932647264625416  0.6617585186626727  1.0000
  S   S2        1.0  0.4104190437262858  0.49373387317331213  0.7579229731034685  1.0000
  N   N1        1.0  0.29186134104753586  0.4973526067623411  0.5022033339472924  1.0000
  N   N2        1.0  0.709309854474583  0.5017643943531597  0.5030251739411611  1.0000
  N   N3        1.0  0.7081288050451491  0.4996980910840205  0.9174171398484814  1.0000
  N   N4        1.0  0.290664097377892  0.504159002366336  0.9165703568564181  1.0000
  O   O1        1.0  0.5682486786504555  0.6153003839568567  0.5093178585141799  1.0000
  O   O2        1.0  0.4341331965365143  0.612555131812364  0.4929005339459991  1.0000
  O   O3        1.0  0.43270569834920286  0.5194213817335366  0.5678909057953092  1.0000
  O   O4        1.0  0.5664092063322457  0.48842987085070905  0.5688491645096078  1.0000
  O   O5        1.0  0.4371748268925445  0.3876065074824169  0.5112159437983975  1.0000
  O   O6        1.0  0.5710846822606683  0.3883145449320651  0.4946359034505717  1.0000
  O   O7        1.0  0.566971261545646  0.511873275582559  0.4353989851353147  1.0000
  O   O8        1.0  0.4330046513446746  0.48305794327155366  0.43612229650403816  1.0000
  O   O9        1.0  0.4317487643424016  0.617414506003023  0.9101228499046808  1.0000
  O   O10       1.0  0.5658802394666934  0.6150160924703344  0.9265422374960647  1.0000
  O   O11       1.0  0.5671223736457591  0.5206885332521197  0.8517557073389239  1.0000
  O   O12       1.0  0.43346270036035156  0.4896299587780176  0.8508403970415868  1.0000
  O   O13       1.0  0.5632203849077513  0.3897197946794009  0.9083892554793349  1.0000
  O   O14       1.0  0.42928298001324094  0.390653287681161  0.9249524058118295  1.0000
  O   O15       1.0  0.4329292195861427  0.5148113484418602  0.9842659422231674  1.0000
  O   O16       1.0  0.5669916894194316  0.4863527447097766  0.9834249540178062  1.0000
  O   O17       1.0  0.056732515453482804  0.40761235416538  0.4235570963922014  1.0000
  O   O18       1.0  0.1744122626244149  0.3456354709455595  0.42308345059005587  1.0000
  O   O19       1.0  0.9471654599054915  0.6302446170454489  0.5577538640663064  1.0000
  O   O20       1.0  0.8260881629901177  0.6402905442321156  0.5897036544097602  1.0000
  O   O21       1.0  0.3265605761116532  0.9522388481369574  0.4871682173103621  1.0000
  O   O22       1.0  0.2753479818603423  0.8389685409556973  0.5001763271097984  1.0000
  O   O23       1.0  0.6703751133463881  0.04594945860591789  0.48723510534156117  1.0000
  O   O24       1.0  0.7246684669144372  0.15933888053753978  0.4960867377200485  1.0000
  O   O25       1.0  0.6717376744223813  0.481852838459126  0.18229326656044256  1.0000
  O   O26       1.0  0.7237700275923017  0.5033852213130885  0.11626003161384087  1.0000
  O   O27       1.0  0.32813506968637546  0.4809615159818605  0.23716839978543183  1.0000
  O   O28       1.0  0.2761249756686581  0.5018592328806761  0.30338580577450347  1.0000
  O   O29       1.0  0.9433858514371708  0.41085371150911226  0.9958706818781095  1.0000
  O   O30       1.0  0.8258457457834184  0.3486676795682584  0.9962312039582526  1.0000
  O   O31       1.0  0.05285607282177551  0.6323081675643962  0.8620758571045781  1.0000
  O   O32       1.0  0.1739632077357101  0.6421545390111731  0.8301802262283003  1.0000
  O   O33       1.0  0.6734679212130458  0.9547454197819857  0.9309236648035506  1.0000
  O   O34       1.0  0.7246974027192081  0.8412169571774443  0.9180196572303954  1.0000
  O   O35       1.0  0.3296818972264006  0.048565716025720504  0.9312894266410507  1.0000
  O   O36       1.0  0.2755352231463206  0.16199808859813908  0.9228648811846936  1.0000
  O   O37       1.0  0.29726881376387837  0.548322646714631  0.6695095750678204  1.0000
  O   O38       1.0  0.3120775106409539  0.448797173132199  0.6254508427783206  1.0000
  O   O39       1.0  0.7024184950095106  0.5486443704864288  0.7503321933954223  1.0000
  O   O40       1.0  0.6875689822481803  0.4494217208640735  0.7941159526923085  1.0000
