data_image0
_chemical_formula_structural       Cu4H58C60N6O20
_chemical_formula_sum              "Cu4 H58 C60 N6 O20"
_cell_length_a       11.122850931738478
_cell_length_b       11.123102753078967
_cell_length_c       19.11480467647975
_cell_angle_alpha    93.27382366188452
_cell_angle_beta     93.27329352851112
_cell_angle_gamma    94.51091021337275

_space_group_name_H-M_alt    "P 1"
_space_group_IT_number       1

loop_
  _space_group_symop_operation_xyz
  'x, y, z'

loop_
  _atom_site_type_symbol
  _atom_site_label
  _atom_site_symmetry_multiplicity
  _atom_site_fract_x
  _atom_site_fract_y
  _atom_site_fract_z
  _atom_site_occupancy
  Cu  Cu1       1.0  0.03252014068113599  0.9036401282430048  0.5268592066307178  1.0000
  Cu  Cu2       1.0  0.09636693977969907  0.9674875706401946  0.9731388178019174  1.0000
  Cu  Cu3       1.0  0.9674850111140072  0.0963604512334371  0.47314002330794114  1.0000
  Cu  Cu4       1.0  0.9036354762401331  0.032517292857711794  0.026857860288082208  1.0000
  H   H1        1.0  0.2427091926599161  0.7810763860073422  0.3641090482396834  1.0000
  H   H2        1.0  0.21893756153738053  0.7572970642813175  0.1358896575100985  1.0000
  H   H3        1.0  0.7572877287175144  0.21892600582187066  0.6358914841016271  1.0000
  H   H4        1.0  0.7810718743870169  0.24271201265955974  0.8641121981407949  1.0000
  H   H5        1.0  0.004344410243348299  0.995670478648485  0.24999767767746311  1.0000
  H   H6        1.0  0.9956543604048916  0.004332142752971898  0.7500013714608967  1.0000
  H   H7        1.0  0.6914610174124006  0.6690856231556238  0.4872567884029734  1.0000
  H   H8        1.0  0.3309084361450658  0.3085378609197278  0.012753073176582993  1.0000
  H   H9        1.0  0.3085496654462645  0.3309110380327169  0.5127419854490682  1.0000
  H   H10       1.0  0.6690838861461188  0.6914584727480458  0.9872543409283027  1.0000
  H   H11       1.0  0.5119129032607431  0.5540629188565802  0.4245458285770809  1.0000
  H   H12       1.0  0.4459345138078064  0.48807953151877104  0.0754672560213976  1.0000
  H   H13       1.0  0.4880922369885211  0.44593214076405024  0.5754578803358967  1.0000
  H   H14       1.0  0.5540678766260142  0.5119096995126639  0.9245418514522115  1.0000
  H   H15       1.0  0.4726905020945081  0.8472908224673573  0.2896906005847413  1.0000
  H   H16       1.0  0.15269167065462597  0.527312684349553  0.21031502591225856  1.0000
  H   H17       1.0  0.5273185584281137  0.1526984915909182  0.7103067529528744  1.0000
  H   H18       1.0  0.8473077283452497  0.47269801812183954  0.7896880490824927  1.0000
  H   H19       1.0  0.3962210084621347  0.528059496983566  0.3014227353406724  1.0000
  H   H20       1.0  0.47193635296618197  0.6037607685190878  0.1985838536110762  1.0000
  H   H21       1.0  0.6037724594117435  0.47193717234527094  0.6985758448104704  1.0000
  H   H22       1.0  0.5280640802878551  0.39624465000758136  0.8014185210149591  1.0000
  H   H23       1.0  0.299234476129186  0.6121772170773666  0.3498977775707104  1.0000
  H   H24       1.0  0.38783160732492655  0.7007515003017557  0.1501069804587871  1.0000
  H   H25       1.0  0.7007687589704616  0.3878249015287878  0.6501040530156743  1.0000
  H   H26       1.0  0.6121679278787154  0.2992529119628102  0.8498958380899495  1.0000
  H   H27       1.0  0.6527305723029855  0.9618604921973032  0.3531969889212689  1.0000
  H   H28       1.0  0.0381229096358453  0.34727380260378043  0.14680955710132082  1.0000
  H   H29       1.0  0.34728318594867597  0.0381276342146251  0.6467952781205852  1.0000
  H   H30       1.0  0.9618744961922017  0.6527392805983182  0.8531982435252772  1.0000
  H   H31       1.0  0.9140948582904045  0.6729527281531915  0.5834876695473312  1.0000
  H   H32       1.0  0.32705930081591816  0.08592207585716949  0.9165198619024438  1.0000
  H   H33       1.0  0.08591295030287677  0.32703970763557066  0.4164872610854786  1.0000
  H   H34       1.0  0.6729194555027574  0.9140885548724994  0.08350851371329779  1.0000
  H   H35       1.0  0.9466237796536631  0.4244274112327488  0.666243501993435  1.0000
  H   H36       1.0  0.5755763990659303  0.05337458388797959  0.8337489108186205  1.0000
  H   H37       1.0  0.05338243604480649  0.5755752583567143  0.3337485335235044  1.0000
  H   H38       1.0  0.42439143809481544  0.9466237206841722  0.1662575651684293  1.0000
  H   H39       1.0  0.922634194295199  0.3708664900148122  0.5765815646219323  1.0000
  H   H40       1.0  0.6291492050255698  0.0773513041426952  0.9234091406279178  1.0000
  H   H41       1.0  0.07737677116249127  0.6291258634186009  0.4234102389202192  1.0000
  H   H42       1.0  0.37083609101817666  0.9226343833753177  0.0765980603424907  1.0000
  H   H43       1.0  0.8457931700332465  0.4965153472105824  0.6089614693664345  1.0000
  H   H44       1.0  0.5035061910790474  0.15420870807728448  0.891040244021795  1.0000
  H   H45       1.0  0.15421515038013206  0.5034804628933001  0.3910251352557026  1.0000
  H   H46       1.0  0.49648566444233205  0.8457990936532268  0.10897547764862028  1.0000
  H   H47       1.0  0.2088550168741747  0.5639449720722921  0.5720767596951859  1.0000
  H   H48       1.0  0.43602806996609883  0.791149903028753  0.927902865660208  1.0000
  H   H49       1.0  0.7911574867459662  0.43605189018830254  0.427921575128387  1.0000
  H   H50       1.0  0.5639337528203682  0.20884897401636945  0.07209134824966408  1.0000
  H   H51       1.0  0.1434430182277708  0.40993081454818986  0.5582906954525129  1.0000
  H   H52       1.0  0.5900563194817322  0.8565342090588501  0.9416974918815412  1.0000
  H   H53       1.0  0.856574920521872  0.5900638696262702  0.4417093449037068  1.0000
  H   H54       1.0  0.4099138778380079  0.1434501469698901  0.0582996055188474  1.0000
  H   H55       1.0  0.1815510529159639  0.473349274265999  0.6449988786513287  1.0000
  H   H56       1.0  0.5266366778047525  0.8184613712228099  0.8549860995484906  1.0000
  H   H57       1.0  0.8184548957925339  0.5266549645254768  0.35500158353178785  1.0000
  H   H58       1.0  0.47331935056229907  0.18155493162502978  0.1450080758006891  1.0000
  C   C1        1.0  0.20604582830674184  0.8052846228951225  0.3133222545430101  1.0000
  C   C2        1.0  0.19472657570103988  0.7939593595084203  0.18667649146408394  1.0000
  C   C3        1.0  0.793953826137219  0.19471899051844588  0.6866768727598824  1.0000
  C   C4        1.0  0.805280290515533  0.20604498694417822  0.8133234901611814  1.0000
  C   C5        1.0  0.24500432867532138  0.7550001204160991  0.2500006406833677  1.0000
  C   C6        1.0  0.7549969987804699  0.24500446442073098  0.7500027830113963  1.0000
  C   C7        1.0  0.11976924917096446  0.8900017659553894  0.3129587632631115  1.0000
  C   C8        1.0  0.11001458095871187  0.8802413579629798  0.18703784344374702  1.0000
  C   C9        1.0  0.8802304351367168  0.10999912315525509  0.6870412983088414  1.0000
  C   C10       1.0  0.8899922449881075  0.11976753849448579  0.8129602330082761  1.0000
  C   C11       1.0  0.0709085635106561  0.9291074883702918  0.2499975081452348  1.0000
  C   C12       1.0  0.9290920265446727  0.07089808690633247  0.7499991235211213  1.0000
  C   C13       1.0  0.7969649673792957  0.8877781499985458  0.4567461571198094  1.0000
  C   C14       1.0  0.11221764592519179  0.2030390413771669  0.043254942351808295  1.0000
  C   C15       1.0  0.2030394133030383  0.11222430426866481  0.5432468395128396  1.0000
  C   C16       1.0  0.8877773911147029  0.7969667580336831  0.9567456534712945  1.0000
  C   C17       1.0  0.4812243387142701  0.6929602337393703  0.3524324944879922  1.0000
  C   C18       1.0  0.3070292653054949  0.5187757076952195  0.1475753760819885  1.0000
  C   C19       1.0  0.5187845817559519  0.30703353057378985  0.6475666084870753  1.0000
  C   C20       1.0  0.6929701701155009  0.48122860481937113  0.8524310970774565  1.0000
  C   C21       1.0  0.6837553565260633  0.8218273594532305  0.4233503029419126  1.0000
  C   C22       1.0  0.17816412127988462  0.3162501707466987  0.07665449769900332  1.0000
  C   C23       1.0  0.3162601356047006  0.1781636353338882  0.5766426791513978  1.0000
  C   C24       1.0  0.8218362549554924  0.6837551907799835  0.9233499652760031  1.0000
  C   C25       1.0  0.6428808335285792  0.7074535431359124  0.44391655750340675  1.0000
  C   C26       1.0  0.29253535987741225  0.35711813192695274  0.05609128450642941  1.0000
  C   C27       1.0  0.357131776431615  0.2925397532207725  0.5560805866051055  1.0000
  C   C28       1.0  0.7074552090769828  0.6428762319666034  0.9439154511821428  1.0000
  C   C29       1.0  0.5424934778068149  0.6437740552097039  0.4087671589604298  1.0000
  C   C30       1.0  0.3562201572259056  0.4575025532405943  0.09124090221917669  1.0000
  C   C31       1.0  0.4575127860732095  0.35621764591811456  0.5912312240689276  1.0000
  C   C32       1.0  0.6437839216142577  0.5424950090218558  0.9087665296805483  1.0000
  C   C33       1.0  0.5207926694909445  0.8080604823465193  0.3329639864807987  1.0000
  C   C34       1.0  0.19192414485815584  0.479209236208078  0.1670413895576814  1.0000
  C   C35       1.0  0.47921473362890044  0.1919251217355793  0.6670305270212395  1.0000
  C   C36       1.0  0.8080807229835686  0.5207984038262055  0.8329628322473326  1.0000
  C   C37       1.0  0.3731761954030829  0.6209996593068254  0.314193945281815  1.0000
  C   C38       1.0  0.3789977208474936  0.6268149112576181  0.18581190623300609  1.0000
  C   C39       1.0  0.6268243883093803  0.37899948326301564  0.6858076508109576  1.0000
  C   C40       1.0  0.6210019064415347  0.3731859208530466  0.8141902436879178  1.0000
  C   C41       1.0  0.6208949003445028  0.8723913662191976  0.3682385367200141  1.0000
  C   C42       1.0  0.12759079638902188  0.37910805098451306  0.1317671863212695  1.0000
  C   C43       1.0  0.37912331195253296  0.12759808309937168  0.6317555408656617  1.0000
  C   C44       1.0  0.8724032532238722  0.6208948167123225  0.8682384789394463  1.0000
  C   C45       1.0  0.0091574693874463  0.651591847618043  0.5799818873455321  1.0000
  C   C46       1.0  0.3484138437252469  0.990855231563394  0.9200192016349574  1.0000
  C   C47       1.0  0.9908519513503858  0.34839966264206607  0.4200009210195645  1.0000
  C   C48       1.0  0.6515669951418629  0.0091549438874878  0.07999982283404708  1.0000
  C   C49       1.0  0.9306526511012975  0.4525084475267533  0.6123814852583536  1.0000
  C   C50       1.0  0.5475025110111601  0.0693437310915073  0.8876128569361015  1.0000
  C   C51       1.0  0.06935464161532681  0.5474889808679748  0.3876082836281398  1.0000
  C   C52       1.0  0.452476915491232  0.9306574710273094  0.11239840890127079  1.0000
  C   C53       1.0  0.14769161899000952  0.4936361247828528  0.592066653762231  1.0000
  C   C54       1.0  0.5063515833811036  0.8523099898222242  0.9079212638989773  1.0000
  C   C55       1.0  0.8523199515130102  0.5063633683695271  0.4079307052629062  1.0000
  C   C56       1.0  0.49361010975899683  0.14769151177584666  0.0920756703525498  1.0000
  C   C57       1.0  0.07833795129864998  0.935951145607305  0.38195679256428156  1.0000
  C   C58       1.0  0.0640715930121587  0.9216622581886611  0.1180373169825799  1.0000
  C   C59       1.0  0.9216580342528785  0.06405938271951328  0.6180388070915086  1.0000
  C   C60       1.0  0.9359416477939104  0.07834371199280807  0.8819603815473512  1.0000
  N   N1        1.0  0.32976845237101315  0.6702328506019625  0.2500033716306547  1.0000
  N   N2        1.0  0.6702329087971248  0.3297708498838858  0.7499994933417256  1.0000
  N   N3        1.0  0.0281588346787842  0.5371949669137237  0.5940815318171602  1.0000
  N   N4        1.0  0.4628067340910248  0.971847516124008  0.9059150264741477  1.0000
  N   N5        1.0  0.9718512793411378  0.4627982629595165  0.4059076563945325  1.0000
  N   N6        1.0  0.5371689289393018  0.028159588307119107  0.0940968517789145  1.0000
  O   O1        1.0  0.08964511798325958  0.8661749940903362  0.4323673889364201  1.0000
  O   O2        1.0  0.1338485751785541  0.9103541884279808  0.06762749859429822  1.0000
  O   O3        1.0  0.9103394574089234  0.13381629087231056  0.5676290264833597  1.0000
  O   O4        1.0  0.8661841779126006  0.08966908451491659  0.932372780554182  1.0000
  O   O5        1.0  0.8678276763464225  0.8265005762131566  0.492738517615841  1.0000
  O   O6        1.0  0.17349846045837578  0.1321820469978761  0.007266185195838701  1.0000
  O   O7        1.0  0.13217355788413698  0.17350024321982  0.5072710245852576  1.0000
  O   O8        1.0  0.8264893903949113  0.8678386518404078  0.9927211269212749  1.0000
  O   O9        1.0  0.8143792326941508  0.9989175580262921  0.44441588512841435  1.0000
  O   O10       1.0  0.001067739153576502  0.18562514600286303  0.055581436318526294  1.0000
  O   O11       1.0  0.1856355765605713  0.0010698914457591994  0.5555716880224892  1.0000
  O   O12       1.0  0.9989317288399204  0.8143709366030052  0.9444299279970423  1.0000
  O   O13       1.0  0.03437948146216029  0.03837791462473919  0.3843621800735164  1.0000
  O   O14       1.0  0.9616353154922731  0.9656193156574843  0.11563077195533819  1.0000
  O   O15       1.0  0.9656417071625895  0.9616305509588869  0.6156411863636536  1.0000
  O   O16       1.0  0.03837230800493069  0.03436283652067118  0.88435837413369  1.0000
  O   O17       1.0  0.08895868641775449  0.7279793702803159  0.5634812943546379  1.0000
  O   O18       1.0  0.2720178778213622  0.9110598455376645  0.9365181047932651  1.0000
  O   O19       1.0  0.9110543201787775  0.27200973232141473  0.436504702746042  1.0000
  O   O20       1.0  0.7279694912966903  0.0889447648342809  0.0634983434992478  1.0000
