data_image0
_chemical_formula_structural       Zn2H41C67N7O12
_chemical_formula_sum              "Zn2 H41 C67 N7 O12"
_cell_length_a       14.629072564466568
_cell_length_b       16.03555468419274
_cell_length_c       23.703918297863982
_cell_angle_alpha    90.51846144133711
_cell_angle_beta     90.35895381752994
_cell_angle_gamma    90.27261503630758

_space_group_name_H-M_alt    "P 1"
_space_group_IT_number       1

loop_
  _space_group_symop_operation_xyz
  'x, y, z'

loop_
  _atom_site_type_symbol
  _atom_site_label
  _atom_site_symmetry_multiplicity
  _atom_site_fract_x
  _atom_site_fract_y
  _atom_site_fract_z
  _atom_site_occupancy
  Zn  Zn1       1.0  0.4036146032579211  0.49736053758295645  0.5010462403699948  1.0000
  Zn  Zn2       1.0  0.5959015416520473  0.5005878753134214  0.5022448345268061  1.0000
  H   H1        1.0  0.5704483906046462  0.2997149485327597  0.9473832225935652  1.0000
  H   H2        1.0  0.35532453763002547  0.9324359565390026  0.5111327720211423  1.0000
  H   H3        1.0  0.4324523674866967  0.069586641165067  0.42128858471578223  1.0000
  H   H4        1.0  0.5526602907118631  0.0677808821809762  0.4165218763269892  1.0000
  H   H5        1.0  0.4290669306237049  0.9235999770575207  0.4238869722182629  1.0000
  H   H6        1.0  0.5490913145634764  0.921606665986964  0.41843429929849674  1.0000
  H   H7        1.0  0.0669239701078865  0.37421196456926253  0.4654480871974159  1.0000
  H   H8        1.0  0.9180401900044333  0.37918774906619024  0.453160941116984  1.0000
  H   H9        1.0  0.5717849905087108  0.30085378986994743  0.0541625472852658  1.0000
  H   H10       1.0  0.9160006452686531  0.4944123450911704  0.5848706466321191  1.0000
  H   H11       1.0  0.07315847916145661  0.5206790970789682  0.5821677230893485  1.0000
  H   H12       1.0  0.3534393333166436  0.49764596130390254  0.678049681752768  1.0000
  H   H13       1.0  0.9280319771816182  0.39624664152966455  0.5511884213545386  1.0000
  H   H14       1.0  0.08596274354911769  0.4144570163765665  0.5632919446657781  1.0000
  H   H15       1.0  0.9131080263422718  0.6189674194715521  0.45084346264375347  1.0000
  H   H16       1.0  0.0703503445615539  0.6082056200365216  0.4379577833852651  1.0000
  H   H17       1.0  0.9259631129621654  0.624925731478541  0.5248996880705974  1.0000
  H   H18       1.0  0.0836914558692001  0.633208939618136  0.5102174190349018  1.0000
  H   H19       1.0  0.42199847925622447  0.697211480328349  0.05450249568897901  1.0000
  H   H20       1.0  0.4216092843067969  0.6959945224322794  0.9476465093964493  1.0000
  H   H21       1.0  0.6105792587287908  0.5892688918377902  0.2168353258400302  1.0000
  H   H22       1.0  0.38580412483022286  0.41874451464640566  0.32222933069422777  1.0000
  H   H23       1.0  0.6465028889147107  0.4974664671230969  0.6812763117370721  1.0000
  H   H24       1.0  0.38671965419804616  0.41428240582527553  0.21640904764258556  1.0000
  H   H25       1.0  0.350867111233633  0.496461441780042  0.7840261791581825  1.0000
  H   H26       1.0  0.8080611333269517  0.36000111318562505  0.3907098332836938  1.0000
  H   H27       1.0  0.7342870838937685  0.38891486327266733  0.2987151970857056  1.0000
  H   H28       1.0  0.786858082353476  0.5091024674975559  0.24123512750349363  1.0000
  H   H29       1.0  0.9114956494149239  0.6015949840922873  0.2779371488104445  1.0000
  H   H30       1.0  0.986006413502075  0.5722388325581632  0.3685576798092924  1.0000
  H   H31       1.0  0.17779333729735214  0.5505992180593964  0.39825671815387415  1.0000
  H   H32       1.0  0.2436028102524546  0.5432803289976036  0.3042352856520694  1.0000
  H   H33       1.0  0.205104742267828  0.42522088313833706  0.23897003467507014  1.0000
  H   H34       1.0  0.6449556007580385  0.4985986656296575  0.7872644638122921  1.0000
  H   H35       1.0  0.10201547721345611  0.31130391579383604  0.2719980286039458  1.0000
  H   H36       1.0  0.03518982149314102  0.3180808740729902  0.3672605521538657  1.0000
  H   H37       1.0  0.4278285741406407  0.0734230416175876  0.5804740208203826  1.0000
  H   H38       1.0  0.5941289721201315  0.07146267425386553  0.5736189043394334  1.0000
  H   H39       1.0  0.6506366698391164  0.07336187134316668  0.5078736734030757  1.0000
  H   H40       1.0  0.3566722486049159  0.07627296225138017  0.5199498208717871  1.0000
  H   H41       1.0  0.6444889674358764  0.9296032996162255  0.49853603553810916  1.0000
  C   C1        1.0  0.5008009254161792  0.33742747171229576  0.4986334776973464  1.0000
  C   C2        1.0  0.4690604166022539  0.5738831589989744  0.1229441143504886  1.0000
  C   C3        1.0  0.5622687898945034  0.5507445510685541  0.23983030208875536  1.0000
  C   C4        1.0  0.4969807528218197  0.5017467155824775  0.392154057700644  1.0000
  C   C5        1.0  0.5628945038232872  0.5520803381911819  0.2991384565376478  1.0000
  C   C6        1.0  0.49867837604891463  0.5034972929189581  0.32880952871985164  1.0000
  C   C7        1.0  0.43542303286128015  0.45487306992527726  0.29849685091470235  1.0000
  C   C8        1.0  0.43556777636950983  0.4529462678456895  0.23981217888029965  1.0000
  C   C9        1.0  0.4991629202560334  0.5011649823034149  0.21083018706692513  1.0000
  C   C10       1.0  0.41532619758293515  0.4965749344718943  0.7612057056188279  1.0000
  C   C11       1.0  0.4166829612189673  0.4971754053890152  0.7025264274453491  1.0000
  C   C12       1.0  0.5502945136184748  0.3549635539019107  0.971277811263555  1.0000
  C   C13       1.0  0.5000405081803336  0.4971786942369505  0.6737749836080484  1.0000
  C   C14       1.0  0.5823226777549382  0.4973181759851784  0.7043067052262516  1.0000
  C   C15       1.0  0.5814132306898614  0.49789625765574635  0.7630038152559921  1.0000
  C   C16       1.0  0.49879058460508935  0.6599975066400247  0.5024601446749841  1.0000
  C   C17       1.0  0.49783862775800003  0.4971558594839819  0.7909616072750296  1.0000
  C   C18       1.0  0.4201631604301427  0.0501488270744588  0.5370161833881113  1.0000
  C   C19       1.0  0.5908386927055317  0.04844705099882421  0.5299059296111537  1.0000
  C   C20       1.0  0.5921062990261063  0.9512245766277091  0.5283959688794084  1.0000
  C   C21       1.0  0.41524968571284404  0.9530065436304722  0.5360499585419093  1.0000
  C   C22       1.0  0.4977303530431527  0.7503941134727725  0.5031352277135355  1.0000
  C   C23       1.0  0.5509673876927154  0.3556291779662645  0.030530120468299102  1.0000
  C   C24       1.0  0.5022816185687661  0.0808518993520835  0.5019274141057652  1.0000
  C   C25       1.0  0.4995866846859229  0.916449168998298  0.5041030241801892  1.0000
  C   C26       1.0  0.4924742080406261  0.948526163504539  0.44262595277103867  1.0000
  C   C27       1.0  0.494558842435552  0.04492820422730401  0.4412152346997189  1.0000
  C   C28       1.0  0.49802455257717787  0.8260732270157619  0.5040979675135305  1.0000
  C   C29       1.0  0.5031924495633504  0.17134812312002617  0.5005048040728682  1.0000
  C   C30       1.0  0.5008969051660374  0.4972749128245298  0.6105578365123137  1.0000
  C   C31       1.0  0.5025456344285645  0.2470540441149396  0.4990870273937561  1.0000
  C   C32       1.0  0.944463517661312  0.441644193574227  0.4432203693829565  1.0000
  C   C33       1.0  0.05257852864342281  0.4356527752353898  0.44707355251493663  1.0000
  C   C34       1.0  0.525173242161955  0.42662658955962474  0.060420848522525716  1.0000
  C   C35       1.0  0.9479191447594246  0.4622744639247004  0.5490328478119508  1.0000
  C   C36       1.0  0.052657286528642495  0.4728313743852156  0.5510769532281472  1.0000
  C   C37       1.0  0.9114507194906238  0.4988463666201426  0.49299627231553  1.0000
  C   C38       1.0  0.0874251875156205  0.5001186974142442  0.4920956826561708  1.0000
  C   C39       1.0  0.05114533110010909  0.5891021933086336  0.48054657514395427  1.0000
  C   C40       1.0  0.9462762555260085  0.5895974304022997  0.4871443030294247  1.0000
  C   C41       1.0  0.1863721539259942  0.49994815145635135  0.4954158965851435  1.0000
  C   C42       1.0  0.8125277937136843  0.49880407811808425  0.4946898627652134  1.0000
  C   C43       1.0  0.4679782748497488  0.571179925829469  0.879172677529013  1.0000
  C   C44       1.0  0.5247895548123792  0.423610651952565  0.8789992108766926  1.0000
  C   C45       1.0  0.497324756203902  0.4989755594469898  0.0312527440245276  1.0000
  C   C46       1.0  0.5239887581081462  0.4254068877034739  0.9416731786891719  1.0000
  C   C47       1.0  0.4968283678690071  0.4983090259683537  0.9711151341529103  1.0000
  C   C48       1.0  0.46901287863374824  0.570527543875549  0.9418200921805353  1.0000
  C   C49       1.0  0.40181432524398286  0.919558367059267  0.5924527807892233  1.0000
  C   C50       1.0  0.6181241319464803  0.9171537360393955  0.583018484534577  1.0000
  C   C51       1.0  0.9024499488792302  0.46377716827360166  0.3867306997974609  1.0000
  C   C52       1.0  0.8313324140310526  0.4130026925634808  0.36586468262974153  1.0000
  C   C53       1.0  0.789635602964509  0.4290776232326152  0.31399254600695775  1.0000
  C   C54       1.0  0.8188782805604904  0.4965097664342935  0.2819278754983472  1.0000
  C   C55       1.0  0.8888252122723587  0.5482170029646837  0.3024123025099286  1.0000
  C   C56       1.0  0.4698413171493812  0.5719524576138184  0.06050847564018371  1.0000
  C   C57       1.0  0.9301179537348788  0.5320583120049704  0.3543030609580172  1.0000
  C   C58       1.0  0.09953079939688791  0.4354088282210852  0.39006618937809634  1.0000
  C   C59       1.0  0.1590557572601625  0.49778102858405043  0.3713542676018449  1.0000
  C   C60       1.0  0.19707961249775957  0.49402233033455895  0.3174756958759773  1.0000
  C   C61       1.0  0.1761578292982549  0.42763275619816443  0.281245406122153  1.0000
  C   C62       1.0  0.1182502579404172  0.3640229275412352  0.2997048557798507  1.0000
  C   C63       1.0  0.08082115406174491  0.3679180585851114  0.35354074888926607  1.0000
  C   C64       1.0  0.6280829014530697  0.6061491482587015  0.32628325803803904  1.0000
  C   C65       1.0  0.4428583525551986  0.6420664643209124  0.03075173657954621  1.0000
  C   C66       1.0  0.4425163758297828  0.6414178283979481  0.9715003271875918  1.0000
  C   C67       1.0  0.5275341662533676  0.4263047073958433  0.12287695149233  1.0000
  N   N1        1.0  0.49691855601066953  0.49729536535807034  0.8518700596427069  1.0000
  N   N2        1.0  0.4989582838349805  0.5005205466873123  0.15006887283499992  1.0000
  N   N3        1.0  0.2650132335418292  0.498661789131603  0.5011973206443159  1.0000
  N   N4        1.0  0.733667426826635  0.4991225689304173  0.49821298474705605  1.0000
  N   N5        1.0  0.3864123364569849  0.8954605307259412  0.6376773816280732  1.0000
  N   N6        1.0  0.6434726629346271  0.8925935849438813  0.6264915299451064  1.0000
  N   N7        1.0  0.6828928758622086  0.6539352929171399  0.3426638194851322  1.0000
  O   O1        1.0  0.424028557821309  0.37094534765763854  0.5092038021836487  1.0000
  O   O2        1.0  0.5481822137579827  0.3618645950229721  0.8518083603314752  1.0000
  O   O3        1.0  0.5527982523115753  0.36609509969076737  0.15053934026392574  1.0000
  O   O4        1.0  0.4440405995728298  0.6346484101938968  0.15064992960241602  1.0000
  O   O5        1.0  0.5758692334777535  0.37422058723716844  0.4878093424563375  1.0000
  O   O6        1.0  0.421342457104636  0.482129281007687  0.4147208197125779  1.0000
  O   O7        1.0  0.5715891858834112  0.5191755383035357  0.4172087005096259  1.0000
  O   O8        1.0  0.423626221017372  0.6236681078205493  0.48996923375806045  1.0000
  O   O9        1.0  0.5748579257867165  0.6262441424734462  0.5142291844066166  1.0000
  O   O10       1.0  0.4251538059653654  0.511384246532117  0.5856702513754827  1.0000
  O   O11       1.0  0.5770959205668761  0.4830860114820083  0.5865647548924501  1.0000
  O   O12       1.0  0.44381364619576413  0.6321640221858972  0.8520761095754994  1.0000
