data_image0
_chemical_formula_structural       Gd2H52C70N14Cl6
_chemical_formula_sum              "Gd2 H52 C70 N14 Cl6"
_cell_length_a       11.757327923756877
_cell_length_b       13.058813269974628
_cell_length_c       16.8723
_cell_angle_alpha    82.11707852009575
_cell_angle_beta     72.26203188170265
_cell_angle_gamma    63.245614027763665

_space_group_name_H-M_alt    "P 1"
_space_group_IT_number       1

loop_
  _space_group_symop_operation_xyz
  'x, y, z'

loop_
  _atom_site_type_symbol
  _atom_site_label
  _atom_site_symmetry_multiplicity
  _atom_site_fract_x
  _atom_site_fract_y
  _atom_site_fract_z
  _atom_site_occupancy
  Gd  Gd1       1.0  0.9358831175536795  0.9999926847185137  0.1385565222930225  1.0000
  Gd  Gd2       1.0  0.0641165459571695  6.860595519199999e-06  0.8614427083787106  1.0000
  H   H1        1.0  0.4029104173341055  0.9136606658529232  0.2127710464101611  1.0000
  H   H2        1.0  0.6831018005102153  0.9139642472046531  0.7872540808431978  1.0000
  H   H3        1.0  0.5970874602044844  0.08633887946110258  0.7872297488034834  1.0000
  H   H4        1.0  0.3168991847726872  0.086034440534938  0.21274377486982135  1.0000
  H   H5        1.0  0.8275140895048524  0.822814375135664  0.08000075747169433  1.0000
  H   H6        1.0  0.349219452002977  0.82309051410531  0.9201787414987881  1.0000
  H   H7        1.0  0.1724864315778447  0.1771834550294926  0.9199984731993708  1.0000
  H   H8        1.0  0.65078106907972  0.17690731605983956  0.07982108185969852  1.0000
  H   H9        1.0  0.3816839750511818  0.6092071609199436  0.15843004259750168  1.0000
  H   H10       1.0  0.008523626923207009  0.609305781980531  0.8417291728925917  1.0000
  H   H11       1.0  0.6183174744319333  0.3907923843940893  0.8415670308448924  1.0000
  H   H12       1.0  0.9914747148155956  0.3906946209079436  0.15827202542527619  1.0000
  H   H13       1.0  0.6617107643998139  0.8140825521885162  0.02347038325321902  1.0000
  H   H14       1.0  0.5238901532964065  0.8142214792477773  0.9766178407320466  1.0000
  H   H15       1.0  0.33828800612490545  0.1859169931255167  0.9765296296894663  1.0000
  H   H16       1.0  0.4761099390003665  0.1857772084918139  0.02338257531419433  1.0000
  H   H17       1.0  0.07982588683520928  0.814107421847268  0.4440158454207293  1.0000
  H   H18       1.0  0.10624534957429431  0.8140868400607104  0.5558827125729737  1.0000
  H   H19       1.0  0.9201693825735618  0.1858955537645173  0.555986324752631  1.0000
  H   H20       1.0  0.8937579567096704  0.18591613555107503  0.44411597328631575  1.0000
  H   H21       1.0  0.04200590473271857  0.8230484929577598  0.3068845172736517  1.0000
  H   H22       1.0  0.13515640738176418  0.8229833173003271  0.6930250013718933  1.0000
  H   H23       1.0  0.9579929012062892  0.17695276750515626  0.6931170841484402  1.0000
  H   H24       1.0  0.8648477564740419  0.1770179431625891  0.30697427717414894  1.0000
  H   H25       1.0  0.5143402307433221  0.517933798131601  0.2194342615149339  1.0000
  H   H26       1.0  0.9674330762579403  0.5183094157362831  0.7803205352345302  1.0000
  H   H27       1.0  0.48566168294000517  0.4820666047568665  0.7805649930939539  1.0000
  H   H28       1.0  0.032567480239038125  0.48169012957774976  0.21968087660335564  1.0000
  H   H29       1.0  0.7323174193181785  0.3967388055604175  0.2441178261416682  1.0000
  H   H30       1.0  0.8708865952406912  0.3970441020610238  0.7554229332134454  1.0000
  H   H31       1.0  0.2676840655792319  0.6032624549024916  0.7558808357801325  1.0000
  H   H32       1.0  0.12911574722855332  0.6029554432530091  0.24457513602025932  1.0000
  H   H33       1.0  0.8079109740765773  0.6786543966381657  0.24307103449327638  1.0000
  H   H34       1.0  0.5130540148043607  0.6787152844234043  0.7568474480366589  1.0000
  H   H35       1.0  0.19208697429058938  0.3213485789736197  0.7569299742420554  1.0000
  H   H36       1.0  0.4869447203060631  0.3212825457417523  0.2431545325511664  1.0000
  H   H37       1.0  0.597418672379611  0.8109798478649282  0.21318214050494794  1.0000
  H   H38       1.0  0.5909188513360277  0.8111204900730726  0.7870120697257479  1.0000
  H   H39       1.0  0.4025797047734799  0.1890222701724227  0.786818275542629  1.0000
  H   H40       1.0  0.4090794195741836  0.1888764825176423  0.21299128582012378  1.0000
  H   H41       1.0  0.1727594482208304  0.7362413778524654  0.12298119581743801  1.0000
  H   H42       1.0  0.09081636939032485  0.7361984991304665  0.8769080474203078  1.0000
  H   H43       1.0  0.8272406440759426  0.2637573098871329  0.8770192202288031  1.0000
  H   H44       1.0  0.9091815435625537  0.2638027613324425  0.12309255821047319  1.0000
  H   H45       1.0  0.624103680432434  0.999840036468207  0.2501393643164462  1.0000
  H   H46       1.0  0.3758969114788472  0.0001612239947022  0.7498588945014646  1.0000
  H   H47       1.0  0.673592394165766  6.51756574328e-05  0.38002226830536057  1.0000
  H   H48       1.0  0.32641123466124367  0.9999317969332822  0.6199758009273424  1.0000
  H   H49       1.0  0.29299361667468565  0.9999609544642354  0.5103772847887812  1.0000
  H   H50       1.0  0.7070092608233551  4.28787219988e-05  0.48962080838342115  1.0000
  H   H51       1.0  0.2602833248922566  0.9997345548121004  0.3728723205288703  1.0000
  H   H52       1.0  0.7397172670190173  0.0002667056508088  0.6271277163513106  1.0000
  C   C1        1.0  0.3562247182727561  0.8708479770893759  0.19163923707525043  1.0000
  C   C2        1.0  0.7726091099328657  0.8710709464437513  0.8083942702830598  1.0000
  C   C3        1.0  0.6437744810378803  0.1291507106502152  0.8083607758671009  1.0000
  C   C4        1.0  0.22739055357798324  0.1289285988702815  0.19160496038867342  1.0000
  C   C5        1.0  0.990482141937683  1.11484677205e-05  0.4585584278535892  1.0000
  C   C6        1.0  0.0095130920567924  0.9999901119951957  0.5414439319026415  1.0000
  C   C7        1.0  0.7478206760272884  0.9013647635335218  0.0660512982961805  1.0000
  C   C8        1.0  0.3505271030725936  0.9016014540789357  0.9340442074464336  1.0000
  C   C9        1.0  0.25217988046969714  0.0986347817805111  0.9339477427920145  1.0000
  C   C10       1.0  0.6494729892241723  0.09839723366065559  0.06595561591238668  1.0000
  C   C11       1.0  0.3454974579689606  0.7015833644380008  0.16190171226565303  1.0000
  C   C12       1.0  0.9524477882949541  0.7016991369873864  0.8381701228091673  1.0000
  C   C13       1.0  0.654503956099866  0.2984144657271486  0.8380973288218811  1.0000
  C   C14       1.0  0.04755055344384829  0.2983012659010811  0.1618310755087009  1.0000
  C   C15       1.0  0.6534122578551448  0.8977252176105495  0.0343652207393248  1.0000
  C   C16       1.0  0.4486126122258725  0.8978778658608491  0.9657093006185208  1.0000
  C   C17       1.0  0.3465874056557042  0.1022743277034834  0.9656346026198365  1.0000
  C   C18       1.0  0.551387944271113  0.1021216794531838  0.03429092584452318  1.0000
  C   C19       1.0  0.2375390318942437  0.9363357916185464  0.17007889879460697  1.0000
  C   C20       1.0  0.8259868350303209  0.9364369854024588  0.8299158131082863  1.0000
  C   C21       1.0  0.7624610604025222  0.0636628961210448  0.8299203318767923  1.0000
  C   C22       1.0  0.17401282848052801  0.0635625599115741  0.17008282487601892  1.0000
  C   C23       1.0  0.5370008022711303  0.6764675818164037  0.2107415435908635  1.0000
  C   C24       1.0  0.7860227954420722  0.6767420056371733  0.7892792807483318  1.0000
  C   C25       1.0  0.4630002184260604  0.3235328210720709  0.7892573079141415  1.0000
  C   C26       1.0  0.21397686806878374  0.3232575396768596  0.2107217279856712  1.0000
  C   C27       1.0  0.03194247753119583  0.8977852478213393  0.4169983445247141  1.0000
  C   C28       1.0  0.07036103415886434  0.8977449418226655  0.5829659635559281  1.0000
  C   C29       1.0  0.9680523276773629  0.10221687021601161  0.5830046079192641  1.0000
  C   C30       1.0  0.9296386647662729  0.1022563186402436  0.4170360409700535  1.0000
  C   C31       1.0  0.551010209129359  0.999954093868716  0.017203683594601678  1.0000
  C   C32       1.0  0.4489899185817024  4.6309019758399994e-05  0.9827971355562041  1.0000
  C   C33       1.0  0.012256112691261539  0.9017189417772045  0.3391916455878601  1.0000
  C   C34       1.0  0.08613665510539195  0.9016434752264857  0.6607667865427163  1.0000
  C   C35       1.0  0.9877409072754872  0.09828231868571181  0.6608109276887222  1.0000
  C   C36       1.0  0.9138639368058818  0.09835778523642348  0.33923443571230655  1.0000
  C   C37       1.0  0.5772975793980066  0.557659218911482  0.22190256032688896  1.0000
  C   C38       1.0  0.8646969303339773  0.5579739487309254  0.7779311350003016  1.0000
  C   C39       1.0  0.4227034412991841  0.44234118397699257  0.778096291178116  1.0000
  C   C40       1.0  0.135302268976659  0.4420247390086658  0.22206947062947793  1.0000
  C   C41       1.0  0.699437632052927  0.4895043478741954  0.23750953395703078  1.0000
  C   C42       1.0  0.8108682157143576  0.4897736262483292  0.7621806893720945  1.0000
  C   C43       1.0  0.3005638528444763  0.5104969125887138  0.7624891279647628  1.0000
  C   C44       1.0  0.1891327695685447  0.510225061491262  0.23781835171576657  1.0000
  C   C45       1.0  0.7414753353147107  0.6447621971985456  0.23669586033451404  1.0000
  C   C46       1.0  0.6134008102736459  0.64490283940669  0.7632071198752829  1.0000
  C   C47       1.0  0.2585239348245096  0.3552399208388053  0.763303773442111  1.0000
  C   C48       1.0  0.38659881782291455  0.35509499075845946  0.23679407844158365  1.0000
  C   C49       1.0  0.6219174872683412  0.7198865757089692  0.21980085888939274  1.0000
  C   C50       1.0  0.6576754066920286  0.7200632360435862  0.7802565984108227  1.0000
  C   C51       1.0  0.3780826758570086  0.2801155423283817  0.7801979926162731  1.0000
  C   C52       1.0  0.3423220066463415  0.2799354516960051  0.21974557176086768  1.0000
  C   C53       1.0  0.22757750134686475  0.7720228137832024  0.14255261455670626  1.0000
  C   C54       1.0  0.00014785945334949458  0.7720485410164031  0.8574128020791039  1.0000
  C   C55       1.0  0.7724225909499083  0.2279758739563889  0.857447801489542  1.0000
  C   C56       1.0  0.9998513752715823  0.2279518618720715  0.14258761396780542  1.0000
  C   C57       1.0  0.412120227868094  0.750550007382337  0.18855931711361515  1.0000
  C   C58       1.0  0.8368490399058646  0.7507686888645111  0.8115119433424312  1.0000
  C   C59       1.0  0.5878803286288915  0.24944953793169594  0.811439131287166  1.0000
  C   C60       1.0  0.16314973061885502  0.2492308564495218  0.18848866228768202  1.0000
  C   C61       1.0  0.48760529847663764  0.9999652423364366  0.4594681544942958  1.0000
  C   C62       1.0  0.5123984011789489  3.51605520379e-05  0.5405295355726808  1.0000
  C   C63       1.0  0.5520680626253308  0.9998297455749281  0.3089370831455583  1.0000
  C   C64       1.0  0.4479329580718598  0.0001706573135394  0.6910623610468676  1.0000
  C   C65       1.0  0.579701605660503  0.999942087826561  0.38350097739911615  1.0000
  C   C66       1.0  0.42030073680874125  5.74574874719e-05  0.6164976845220169  1.0000
  C   C67       1.0  0.37013238217129185  0.9998717667224852  0.45466441497185184  1.0000
  C   C68       1.0  0.6298682451542703  0.0001312088893073  0.5453342469506169  1.0000
  C   C69       1.0  0.35127299832917913  0.999765427491937  0.3772402039209198  1.0000
  C   C70       1.0  0.6487293795543608  0.0002358329709722  0.6227588611047707  1.0000
  N   N1        1.0  0.17295675983936584  0.8868297343515081  0.14710644380830473  1.0000
  N   N2        1.0  0.9401165711206688  0.8868460282658717  0.8528273722770267  1.0000
  N   N3        1.0  0.8270420106853535  0.11316981096252479  0.8528935691343876  1.0000
  N   N4        1.0  0.059882199404050616  0.1131535170481612  0.14717204797823774  1.0000
  N   N5        1.0  0.7470440789548504  0.9998554728081288  0.08219931904488936  1.0000
  N   N6        1.0  0.2529569063280519  0.0001432149314624  0.9177991293555509  1.0000
  N   N7        1.0  0.7823579575292643  0.5307133724351161  0.24421167840204555  1.0000
  N   N8        1.0  0.6867430773972742  0.5308994660885773  0.7555060981884556  1.0000
  N   N9        1.0  0.21764220559608569  0.46928874560223477  0.7557877657910411  1.0000
  N   N10       1.0  0.3132583366715521  0.4690983640765722  0.24449353558649287  1.0000
  N   N11       1.0  0.9543054092880398  5.05968919526e-05  0.29972624603266945  1.0000
  N   N12       1.0  0.04569339665097511  0.9999506635709566  0.7002753553894225  1.0000
  N   N13       1.0  0.43998800344473926  0.9996985366856208  0.30470411117767787  1.0000
  N   N14       1.0  0.5600130172524587  0.0003018662028467  0.6952947403273201  1.0000
  Cl  Cl1       1.0  0.0717089539589608  0.8565273415173422  0.9999762532452509  1.0000
  Cl  Cl2       1.0  0.9282893877798345  0.1434730613711253  2.375969777554391e-05  1.0000
  Cl  Cl3       1.0  0.7236863997342622  0.1796395482253885  0.21570515743083266  1.0000
  Cl  Cl4       1.0  0.09672362143925992  0.1796446936720244  0.7842515489072357  1.0000
  Cl  Cl5       1.0  0.2763136571482221  0.8203574243653264  0.7842972262605488  1.0000
  Cl  Cl6       1.0  0.9032787210299916  0.8203548516420014  0.21574948376358807  1.0000
