data_image0
_chemical_formula_structural       Zn4H82C78N34O3
_chemical_formula_sum              "Zn4 H82 C78 N34 O3"
_cell_length_a       19.806763987153655
_cell_length_b       20.348933280646552
_cell_length_c       21.03157636384852
_cell_angle_alpha    106.24678792860199
_cell_angle_beta     106.50523013960174
_cell_angle_gamma    112.74299222670945

_space_group_name_H-M_alt    "P 1"
_space_group_IT_number       1

loop_
  _space_group_symop_operation_xyz
  'x, y, z'

loop_
  _atom_site_type_symbol
  _atom_site_label
  _atom_site_symmetry_multiplicity
  _atom_site_fract_x
  _atom_site_fract_y
  _atom_site_fract_z
  _atom_site_occupancy
  Zn  Zn1       1.0  0.5917450402954287  0.6128996711774805  0.5206987004555756  1.0000
  Zn  Zn2       1.0  0.3809729166975868  0.41039054465688446  0.5224762023089369  1.0000
  Zn  Zn3       1.0  0.4941063442539784  0.6116797248409326  0.6317865498742208  1.0000
  Zn  Zn4       1.0  0.4736506176008958  0.41581808807321596  0.40360536518884516  1.0000
  H   H1        1.0  0.7823737362931167  0.7140593390376182  0.6565009858900409  1.0000
  H   H2        1.0  0.3969457479650629  0.2531635400741337  0.5410881514694096  1.0000
  H   H3        1.0  0.012497077570984099  0.6486268935395785  0.533012056158647  1.0000
  H   H4        1.0  0.8657266315944055  0.4412492664303611  0.3252413661147599  1.0000
  H   H5        1.0  0.8830964333606203  0.5319923269437511  0.3227912060121908  1.0000
  H   H6        1.0  0.9797286713930969  0.4650475424016135  0.3026783929381194  1.0000
  H   H7        1.0  0.8950928048521616  0.43115294448674746  0.44678690474137267  1.0000
  H   H8        1.0  0.013862329694745794  0.5668440532741953  0.3313549112589911  1.0000
  H   H9        1.0  0.6539406570184809  0.1355585863298643  0.5177313942346728  1.0000
  H   H10       1.0  0.637738709308749  0.012981610739416359  0.49837690261126966  1.0000
  H   H11       1.0  0.5372176552821344  0.964618681964204  0.4266816540082062  1.0000
  H   H12       1.0  0.22838089277890108  0.39441808348107094  0.3949680582022737  1.0000
  H   H13       1.0  0.45012551843730353  0.08411242695310511  0.5658574027407326  1.0000
  H   H14       1.0  0.4512107124762323  0.9758719928610943  0.5701388857103566  1.0000
  H   H15       1.0  0.5697533845867537  0.14078471330612524  0.652543431563835  1.0000
  H   H16       1.0  0.5890628525317468  0.03997045715648546  0.6563227349597226  1.0000
  H   H17       1.0  0.6233222195942147  0.40389834342345676  0.35566654861771957  1.0000
  H   H18       1.0  0.6343493960760893  0.5952164444981348  0.8780533949506547  1.0000
  H   H19       1.0  0.7474498784403778  0.6144305837548742  0.21226614656377052  1.0000
  H   H20       1.0  0.7057785606556946  0.628167559090869  0.31319067112826804  1.0000
  H   H21       1.0  0.5236815553025449  0.3917013192127782  0.06970438990109062  1.0000
  H   H22       1.0  0.4814214620293028  0.40411660211830736  0.16997177347399628  1.0000
  H   H23       1.0  0.5175943515802925  0.8019088309143783  0.6595387588287592  1.0000
  H   H24       1.0  0.45369768958232015  0.37593907954155265  0.6519157580719934  1.0000
  H   H25       1.0  0.022909348261464395  0.8637845057928428  0.8738880680406922  1.0000
  H   H26       1.0  0.8900997970781005  0.7913782271275095  0.7628821818677949  1.0000
  H   H27       1.0  0.10831521056453396  0.10496935850478198  0.2527292300368416  1.0000
  H   H28       1.0  0.9083266649623238  0.7359874577378491  0.980042065827881  1.0000
  H   H29       1.0  0.009058682171229297  0.9678339051419869  0.15273077917044736  1.0000
  H   H30       1.0  0.7624295562387073  0.612435891840455  0.5664447353954785  1.0000
  H   H31       1.0  0.5998466188329771  0.3804400301699786  0.49983557553759533  1.0000
  H   H32       1.0  0.6398040310885804  0.6319181204382431  0.7689000230623222  1.0000
  H   H33       1.0  0.6572666187832467  0.6485897252404839  0.4009660467486071  1.0000
  H   H34       1.0  0.37272445027945617  0.24469832390762036  0.26112434887429703  1.0000
  H   H35       1.0  0.11449874074219932  0.4654836666204716  0.4963948832820649  1.0000
  H   H36       1.0  0.043198038020832996  0.43442592294075405  0.5247847978467844  1.0000
  H   H37       1.0  0.03952477012512649  0.7266085026830708  0.4627206471032397  1.0000
  H   H38       1.0  0.9599867053481287  0.6500076613467697  0.38886575777659255  1.0000
  H   H39       1.0  0.13574858738655846  0.6804564932728567  0.5923550288484521  1.0000
  H   H40       1.0  0.12135151861980378  0.5877690475669936  0.5598458406730629  1.0000
  H   H41       1.0  0.08722855784019148  0.683132807026112  0.36385042499578907  1.0000
  H   H42       1.0  0.14267382025081327  0.6322684114037073  0.3750284297976166  1.0000
  H   H43       1.0  0.27212148876559883  0.7608695445921754  0.45938167358796284  1.0000
  H   H44       1.0  0.22478232393827108  0.7599573455355824  0.3731737019876534  1.0000
  H   H45       1.0  0.20084811063581043  0.2193465953928069  0.3546449160491392  1.0000
  H   H46       1.0  0.2189090425627285  0.8135027487852113  0.45225536878918154  1.0000
  H   H47       1.0  0.9381348996511959  0.3504696133358324  0.3923910662149481  1.0000
  H   H48       1.0  0.009484481913119694  0.3828023651725728  0.3650233739479988  1.0000
  H   H49       1.0  0.7091356279441569  0.04719571389135519  0.6669441061247241  1.0000
  H   H50       1.0  0.7325237595484635  0.1297419472098226  0.6542479788429174  1.0000
  H   H51       1.0  0.49266561967745987  0.6537392468767891  0.8043397532806935  1.0000
  H   H52       1.0  0.5364354896951227  0.6220640530812531  0.8613052480533128  1.0000
  H   H53       1.0  0.7092633887658478  0.22729474076859899  0.712690285666902  1.0000
  H   H54       1.0  0.6805052688991323  0.24834370439444337  0.6436267812052208  1.0000
  H   H55       1.0  0.5825686366606178  0.08344615071096229  0.389027385777922  1.0000
  H   H56       1.0  0.5358191811388123  0.7126215506018028  0.4559811075574843  1.0000
  H   H57       1.0  0.5411080562865535  0.13277075775962982  0.42099946711634556  1.0000
  H   H58       1.0  0.33754252710817667  0.0734469548839627  0.5006094722579064  1.0000
  H   H59       1.0  0.298393872956261  0.970266791093948  0.4477535643308387  1.0000
  H   H60       1.0  0.2759823806857753  0.9905022208788876  0.33161755737528864  1.0000
  H   H61       1.0  0.22118101428083747  0.01913052708669479  0.3761591472709823  1.0000
  H   H62       1.0  0.3136304147103458  0.09293449496859547  0.3848540935649822  1.0000
  H   H63       1.0  0.4206629686839846  0.941815361764789  0.38270170408374343  1.0000
  H   H64       1.0  0.3175348031438289  0.8743709991651724  0.35554323038243035  1.0000
  H   H65       1.0  0.35219838539433107  0.7689896117175434  0.3635918501683051  1.0000
  H   H66       1.0  0.3745143869094107  0.8007082769791652  0.29744361110194717  1.0000
  H   H67       1.0  0.4350055937578146  0.4211759374427259  0.2591554432838733  1.0000
  H   H68       1.0  0.4547336105938766  0.8337038806536438  0.38506082415194937  1.0000
  H   H69       1.0  0.7224153508409897  0.6513633776683393  0.008583259389979482  1.0000
  H   H70       1.0  0.7141514765083129  0.5902124306120841  0.054210098987908954  1.0000
  H   H71       1.0  0.38914371217433796  0.29788343145217766  0.7734761099169276  1.0000
  H   H72       1.0  0.3964918520237503  0.34426243292585207  0.7199299934874547  1.0000
  H   H73       1.0  0.47264199678375  0.27075662492467256  0.8370038760411234  1.0000
  H   H74       1.0  0.5209827993909854  0.31885456916121757  0.9313764594695683  1.0000
  H   H75       1.0  0.3600925131217707  0.1388625620604458  0.26244712134522524  1.0000
  H   H76       1.0  0.3356963477392013  0.05035573701615445  0.20310791470659234  1.0000
  H   H77       1.0  0.2595252849253242  0.9889784107520968  0.08882389535192205  1.0000
  H   H78       1.0  0.3492043150139565  0.6410745316921478  0.5534064581227368  1.0000
  H   H79       1.0  0.16078487862488086  0.9086435529192299  0.039390882992208325  1.0000
  H   H80       1.0  0.7780684566392464  0.6186009221872694  0.9015639459266109  1.0000
  H   H81       1.0  0.7225679189357732  0.5939260437168343  0.8129642548184961  1.0000
  H   H82       1.0  0.9765983300113771  0.5178988947689616  0.5272738004877267  1.0000
  C   C1        1.0  0.7358178808109483  0.6884199314329748  0.6737012009239719  1.0000
  C   C2        1.0  0.5313569948044403  0.7235110120796406  0.5077882238681753  1.0000
  C   C3        1.0  0.4855711142473779  0.47837537619241016  0.3030322230676176  1.0000
  C   C4        1.0  0.441052408828952  0.292817916110863  0.5288797121359393  1.0000
  C   C5        1.0  0.3312542923911507  0.5798025381067262  0.522260872502507  1.0000
  C   C6        1.0  0.5585340459044658  0.5302502497074923  0.3044406385398516  1.0000
  C   C7        1.0  0.2578810924005949  0.519909736421809  0.45851373624517333  1.0000
  C   C8        1.0  0.5287443561883263  0.787154875478599  0.5532901979809495  1.0000
  C   C9        1.0  0.26616635031609087  0.19333077538175295  0.2873838541792892  1.0000
  C   C10       1.0  0.9512266234831299  0.4876142513297736  0.4668807658160574  1.0000
  C   C11       1.0  0.003130086271099197  0.6253665654139624  0.47520654383058064  1.0000
  C   C12       1.0  0.5135538387773193  0.2970077819643605  0.528326024357213  1.0000
  C   C13       1.0  0.08426102559547388  0.6227899499417477  0.47966814618238374  1.0000
  C   C14       1.0  0.1872893629538409  0.5249397072753651  0.42995211988913706  1.0000
  C   C15       1.0  0.9287617178067578  0.5395265561926406  0.4337704425918786  1.0000
  C   C16       1.0  0.4938750465385624  0.5538466374763826  0.7526203097944234  1.0000
  C   C17       1.0  0.013175458363065195  0.47140826093031046  0.4451591784999565  1.0000
  C   C18       1.0  0.05702426444103988  0.5376742611797595  0.4209877520044074  1.0000
  C   C19       1.0  0.9908255557946288  0.5180611826640912  0.3461140533276178  1.0000
  C   C20       1.0  0.9109831657475667  0.504812135671166  0.35145862732772304  1.0000
  C   C21       1.0  0.12776643044423958  0.5332055272946191  0.4178067755196793  1.0000
  C   C22       1.0  0.8576013724898958  0.5365960213404434  0.44235924486658007  1.0000
  C   C23       1.0  0.4978747339242558  0.4856459409667833  0.7529882541831296  1.0000
  C   C24       1.0  0.7970424674611676  0.5264875689881237  0.4514544273035596  1.0000
  C   C25       1.0  0.6050950814144185  0.1340397911896431  0.6214531970697904  1.0000
  C   C26       1.0  0.5880969069569986  0.09085694858502079  0.4897502561796258  1.0000
  C   C27       1.0  0.5785209491843659  0.009958912690485945  0.48367246686314047  1.0000
  C   C28       1.0  0.6447238625933094  0.45278115455445794  0.4080620317168381  1.0000
  C   C29       1.0  0.5347197687787781  0.8550422773291471  0.5445572112387465  1.0000
  C   C30       1.0  0.5535543898292019  0.12031235860361283  0.5424132702341424  1.0000
  C   C31       1.0  0.6098799252412589  0.05772810375355423  0.6172757454677508  1.0000
  C   C32       1.0  0.5465351961483192  0.9874835707453897  0.5375719899024602  1.0000
  C   C33       1.0  0.4611803855005263  0.9800827649041537  0.5221139780211104  1.0000
  C   C34       1.0  0.7251593014418773  0.5140344945658198  0.4586293140465897  1.0000
  C   C35       1.0  0.46441808488843606  0.058251911425642795  0.5212669500705828  1.0000
  C   C36       1.0  0.5417144312077581  0.9148831632527957  0.538670830661374  1.0000
  C   C37       1.0  0.5533226232056093  0.19190200671815205  0.5437264987388843  1.0000
  C   C38       1.0  0.5404697666991038  0.2445690822384704  0.5388354728355508  1.0000
  C   C39       1.0  0.5880483036894333  0.5193415006438897  0.2483725611324701  1.0000
  C   C40       1.0  0.4607956110409574  0.4340155294906935  0.6774592926188419  1.0000
  C   C41       1.0  0.5399664140616949  0.4508176527408024  0.1799299076396679  1.0000
  C   C42       1.0  0.5635479396983242  0.4427434695955554  0.12358982877589841  1.0000
  C   C43       1.0  0.6373090318909078  0.5033480412531618  0.13343580159443744  1.0000
  C   C44       1.0  0.6893004528489683  0.5683316520307853  0.20369305360688367  1.0000
  C   C45       1.0  0.5987379842004685  0.5940986927229304  0.3752516098509417  1.0000
  C   C46       1.0  0.6650135424289089  0.5761249017416928  0.25991987463068256  1.0000
  C   C47       1.0  0.6359964804933822  0.5336130642886302  0.9454432351420649  1.0000
  C   C48       1.0  0.6026341314895376  0.5391880126470452  0.8803001192666428  1.0000
  C   C49       1.0  0.5957515727222785  0.459537549056158  0.9484889915324146  1.0000
  C   C50       1.0  0.5330696482710308  0.4739539858256235  0.8171293789431359  1.0000
  C   C51       1.0  0.4974001658741328  0.3989013413858302  0.8174977008971496  1.0000
  C   C52       1.0  0.715611518767588  0.5597707222748126  0.5157760276909542  1.0000
  C   C53       1.0  0.530102113250926  0.3916178680694669  0.8819243864960313  1.0000
  C   C54       1.0  0.8225692598766938  0.7189499930610593  0.8053877262287656  1.0000
  C   C55       1.0  0.8300775248261089  0.6999955281094896  0.8662792886458704  1.0000
  C   C56       1.0  0.2677975639935681  0.45340778852254715  0.440580569915042  1.0000
  C   C57       1.0  0.9039626038942713  0.7461143500399813  0.9311009054435642  1.0000
  C   C58       1.0  0.9723510388597276  0.8059165013110102  0.9343420564814694  1.0000
  C   C59       1.0  0.9688690700184281  0.8176587459667529  0.87110829875742  1.0000
  C   C60       1.0  0.8941209843095164  0.776438809572383  0.8092081746876474  1.0000
  C   C61       1.0  0.1811696609836204  0.9903922612756941  0.13346949981661282  1.0000
  C   C62       1.0  0.23889230419234048  0.06506936068334568  0.1953822570866848  1.0000
  C   C63       1.0  0.0971517809159153  0.9557249658818776  0.11799981965517503  1.0000
  C   C64       1.0  0.5452173993645815  0.3582890844985371  0.5079489538373707  1.0000
  C   C65       1.0  0.21232213011829507  0.1095912685196652  0.23505705582093134  1.0000
  C   C66       1.0  0.1290632535455103  0.07185069835119148  0.22102792995789136  1.0000
  C   C67       1.0  0.5223956231817793  0.7690751080323535  0.6121358149384192  1.0000
  C   C68       1.0  0.07365988087723709  0.996208374897222  0.16573580064669366  1.0000
  C   C69       1.0  0.6631038492571831  0.6448831235147948  0.7304407940229893  1.0000
  C   C70       1.0  0.7446579751157782  0.6834070817435033  0.740735644400722  1.0000
  C   C71       1.0  0.14039502708348545  0.6854777964960378  0.402748941518965  1.0000
  C   C72       1.0  0.21856608899160784  0.7592316339654842  0.4232890165285141  1.0000
  C   C73       1.0  0.33016409289835  0.02960927889201762  0.4499629854667828  1.0000
  C   C74       1.0  0.2826781672410447  0.033378326264077864  0.3817374104210032  1.0000
  C   C75       1.0  0.3808420455403194  0.8899306383686251  0.3873171955113933  1.0000
  C   C76       1.0  0.39148714749599367  0.819382441893346  0.3567764571208373  1.0000
  C   C77       1.0  0.33932095836670567  0.2505947538775573  0.2933139961252209  1.0000
  C   C78       1.0  0.2513731761303859  0.2392073526556401  0.34034410115525304  1.0000
  N   N1        1.0  0.6568256865638701  0.6566262025981898  0.6286467080634139  1.0000
  N   N2        1.0  0.6026945684089994  0.4497245523446621  0.011351158466183538  1.0000
  N   N3        1.0  0.0452815212636892  0.8613160894631517  0.00020394580089092067  1.0000
  N   N4        1.0  0.4312285586840119  0.346961196125008  0.5093364671915593  1.0000
  N   N5        1.0  0.031480177037281  0.8905816719515581  0.05412003411964148  1.0000
  N   N6        1.0  0.4577467600404431  0.5428259158411989  0.6824709202522711  1.0000
  N   N7        1.0  0.5929527213296807  0.46277222625856496  0.43377677815183807  1.0000
  N   N8        1.0  0.4367008425425495  0.467150303522338  0.6354837684490704  1.0000
  N   N9        1.0  0.6358209874162668  0.5286283470729246  0.5001177610138399  1.0000
  N   N10       1.0  0.49477256920145846  0.3876133735432247  0.4960604839404681  1.0000
  N   N11       1.0  0.6110557052954488  0.628975645396771  0.6629814760612261  1.0000
  N   N12       1.0  0.34068746256868815  0.47290620618061047  0.49136412103801774  1.0000
  N   N13       1.0  0.553939907186489  0.5798409747255061  0.41247532817840227  1.0000
  N   N14       1.0  0.07285947865229757  0.4763715258109967  0.5097610954341149  1.0000
  N   N15       1.0  0.9855916981082726  0.6763752399269194  0.44517364379482405  1.0000
  N   N16       1.0  0.13585884568632167  0.6383923303296085  0.5524703787320462  1.0000
  N   N17       1.0  0.9687694635579402  0.39430576891016494  0.3796647505317308  1.0000
  N   N18       1.0  0.6915873032035407  0.0706959905488419  0.6332600166576867  1.0000
  N   N19       1.0  0.5238391215888711  0.6248350188819457  0.8120862544250045  1.0000
  N   N20       1.0  0.6861193153713783  0.20525030054018592  0.6565799470758691  1.0000
  N   N21       1.0  0.5472047753396152  0.08414838942062626  0.4160184971511497  1.0000
  N   N22       1.0  0.7053478884940957  0.5964714044407627  0.006021087339561895  1.0000
  N   N23       1.0  0.5229377097102059  0.7012448935931843  0.6025384269961408  1.0000
  N   N24       1.0  0.42766607771192605  0.3304141166845085  0.7564810807818674  1.0000
  N   N25       1.0  0.49150813794604176  0.31920646325399094  0.8833553434963903  1.0000
  N   N26       1.0  0.3215984515931964  0.09430645629545607  0.2104032013428636  1.0000
  N   N27       1.0  0.20774751704154673  0.9526615405350609  0.08983826563002141  1.0000
  N   N28       1.0  0.7633425186283701  0.6392374099177259  0.8640603995098246  1.0000
  N   N29       1.0  0.36373929319309883  0.32289003745240297  0.3450619013978269  1.0000
  N   N30       1.0  0.3095112517188454  0.3159795186088914  0.3748124615842201  1.0000
  N   N31       1.0  0.5280904022381206  0.6725825080005094  0.5379109555504371  1.0000
  N   N32       1.0  0.48354543819598195  0.5072184426958017  0.36864573114247173  1.0000
  N   N33       1.0  0.3795762759755164  0.5504772959967424  0.5415867655022312  1.0000
  N   N34       1.0  0.6564114321291539  0.5087965958022735  0.0749542749598433  1.0000
  O   O1        1.0  0.13434763513465944  0.6893255340830889  0.46965598834377437  1.0000
  O   O2        1.0  0.4093116881017095  0.047850314039372684  0.45434374927133797  1.0000
  O   O3        1.0  0.39225189330105786  0.909388216073367  0.4626574101746499  1.0000
