data_image0
_chemical_formula_structural       U4H28C20S8N4O40
_chemical_formula_sum              "U4 H28 C20 S8 N4 O40"
_cell_length_a       10.362178973
_cell_length_b       10.325903837953994
_cell_length_c       11.636
_cell_angle_alpha    111.12819726833798
_cell_angle_beta     90.0
_cell_angle_gamma    90.0

_space_group_name_H-M_alt    "P 1"
_space_group_IT_number       1

loop_
  _space_group_symop_operation_xyz
  'x, y, z'

loop_
  _atom_site_type_symbol
  _atom_site_label
  _atom_site_symmetry_multiplicity
  _atom_site_fract_x
  _atom_site_fract_y
  _atom_site_fract_z
  _atom_site_occupancy
  U   U1        1.0  0.19552451325914433  0.6166672850498003  0.21274802208454704  1.0000
  U   U2        1.0  0.6955274579583346  0.883337193519985  0.28725336751536196  1.0000
  U   U3        1.0  0.8044717256593188  0.3833339702765954  0.7872526372800408  1.0000
  U   U4        1.0  0.3044726411520955  0.11666510003848879  0.7127484833526624  1.0000
  H   H1        1.0  0.022100564041281197  0.8699097380936892  0.3489577820733985  1.0000
  H   H2        1.0  0.522101578644488  0.6300916257798761  0.15104175181989626  1.0000
  H   H3        1.0  0.9778985700211535  0.1300915172327137  0.6510411584874731  1.0000
  H   H4        1.0  0.4778994855139302  0.3699085913144486  0.8489594348449573  1.0000
  H   H5        1.0  0.0626509155739896  0.7955619392011428  0.4426553619156621  1.0000
  H   H6        1.0  0.5626509651292011  0.7044383864403443  0.05734469927790542  1.0000
  H   H7        1.0  0.9373482184884452  0.20443931612526  0.5573444380470676  1.0000
  H   H8        1.0  0.4373491339812219  0.2955607924219095  0.9426561552853627  1.0000
  H   H9        1.0  0.9218234914576584  0.4019899624327223  0.1809573655760914  1.0000
  H   H10       1.0  0.4218224768544516  0.09801118434651811  0.3190435598579242  1.0000
  H   H11       1.0  0.0781775727007599  0.5980102546616024  0.8190421022850529  1.0000
  H   H12       1.0  0.5781776222559714  0.9019879945157356  0.6809572947053439  1.0000
  H   H13       1.0  0.7270324146716476  0.3489913296989187  0.08025500565943841  1.0000
  H   H14       1.0  0.2270333301644243  0.1510077406161656  0.4197452555713994  1.0000
  H   H15       1.0  0.2729676844387754  0.651006810931257  0.9197446574003864  1.0000
  H   H16       1.0  0.772967733993994  0.8489924764781591  0.5802550716915961  1.0000
  H   H17       1.0  0.9522736507168402  0.506817140351778  0.394393272718716  1.0000
  H   H18       1.0  0.45227263611363355  0.9931831852897091  0.1056076478767096  1.0000
  H   H19       1.0  0.047727413441577896  0.4931830767425467  0.6056061951424283  1.0000
  H   H20       1.0  0.5477293930927729  0.0068170318046157  0.8943943981900021  1.0000
  H   H21       1.0  0.755426056662067  0.5597763202667281  0.5350254328507518  1.0000
  H   H22       1.0  0.2554250420588673  0.9402250436068372  0.9649749604444012  1.0000
  H   H23       1.0  0.2445730774003678  0.44022493505967475  0.464974367111978  1.0000
  H   H24       1.0  0.7445760220995581  0.059774135255416604  0.03502503471700891  1.0000
  H   H25       1.0  0.5371457117757714  0.5093462736865391  0.43439787204265207  1.0000
  H   H26       1.0  0.0371446971725646  0.9906561284191043  0.06560285335408632  1.0000
  H   H27       1.0  0.4628543873346587  0.4906549816398638  0.5656010685182196  1.0000
  H   H28       1.0  0.9628573320338489  0.0093420122110786  0.9343959503038874  1.0000
  C   C1        1.0  0.6153020534207272  0.4247801947116017  0.2519333020335992  1.0000
  C   C2        1.0  0.11530103881752038  0.0752188756034897  0.2480669591972386  1.0000
  C   C3        1.0  0.3846980456897029  0.5752189841506521  0.7480649743241017  1.0000
  C   C4        1.0  0.8847000253408979  0.924781341490835  0.7519333680657568  1.0000
  C   C5        1.0  0.7259834075054599  0.3973822884837617  0.1803377441863249  1.0000
  C   C6        1.0  0.22598239290226016  0.1026147053671735  0.3196627122432005  1.0000
  C   C7        1.0  0.2740166916049631  0.602615852146414  0.8196619188734999  1.0000
  C   C8        1.0  0.7740177062081699  0.8973855117271512  0.6803367556179367  1.0000
  C   C9        1.0  0.8539970235080787  0.486411727149239  0.3604933396387437  1.0000
  C   C10       1.0  0.3539950438568837  0.013588381397930501  0.1395072536936794  1.0000
  C   C11       1.0  0.1460030756023514  0.5135895281771639  0.6395064603239788  1.0000
  C   C12       1.0  0.6460060203015345  0.9864107974643233  0.8604927414677307  1.0000
  C   C13       1.0  0.7456452952735546  0.5152538141934286  0.43526140424577164  1.0000
  C   C14       1.0  0.2456442806703478  0.9847475496801366  0.06473984845123942  1.0000
  C   C15       1.0  0.2543548038368755  0.4847474411329671  0.5647375363150999  1.0000
  C   C16       1.0  0.7543577485360586  0.0152516291821172  0.9352601467101778  1.0000
  C   C17       1.0  0.6248540984353852  0.4854036038043859  0.37995515913362254  1.0000
  C   C18       1.0  0.12485308383217839  0.0145985812069256  0.1200460984019713  1.0000
  C   C19       1.0  0.3751460006750449  0.514597651522017  0.6200446408291002  1.0000
  C   C20       1.0  0.8751479803262399  0.9854005976553282  0.8799530373575808  1.0000
  S   S1        1.0  0.4602873596786665  0.3770069840113948  0.18330546886566887  1.0000
  S   S2        1.0  0.9602864441858897  0.1229920863036895  0.3166956517670343  1.0000
  S   S3        1.0  0.5397127394317565  0.622992194850859  0.8166945262957485  1.0000
  S   S4        1.0  0.039712689876545  0.8770060543264863  0.6833022924890814  1.0000
  S   S5        1.0  0.0862839758249336  0.3207545319544636  0.9557862627048906  1.0000
  S   S6        1.0  0.5862849904281404  0.1792445383606278  0.5442148579278125  1.0000
  S   S7        1.0  0.9137141931895129  0.6792456851398612  0.04421492395997015  1.0000
  S   S8        1.0  0.41371510868228967  0.820755678733704  0.455786328737041  1.0000
  N   N1        1.0  0.8407565650719276  0.43038976261296114  0.23723056886452557  1.0000
  N   N2        1.0  0.3407574805647045  0.0696093077021303  0.2627696923663194  1.0000
  N   N3        1.0  0.1592435340385023  0.5696094162492926  0.7627685668950334  1.0000
  N   N4        1.0  0.6592445486417091  0.9303909093921945  0.7372306348966832  1.0000
  O   O1        1.0  0.1273728241366072  0.5014878951106709  0.2824419469493336  1.0000
  O   O2        1.0  0.6273748037878022  0.9985145069949652  0.21755963784926288  1.0000
  O   O3        1.0  0.8726263099258275  0.49851232198365375  0.7175566615099527  1.0000
  O   O4        1.0  0.37262819046659246  0.0014836336352104  0.7824434628179944  1.0000
  O   O5        1.0  0.2630325153717052  0.7319639952134125  0.14315779864181633  1.0000
  O   O6        1.0  0.7630325649269238  0.7680373686601527  0.3568417352514858  1.0000
  O   O7        1.0  0.7369666186907295  0.2680372601129903  0.8568411419190554  1.0000
  O   O8        1.0  0.2369675341835062  0.23196284843417203  0.6431637484226513  1.0000
  O   O9        1.0  0.4129430702895077  0.5044499712207227  0.16166805085360644  1.0000
  O   O10       1.0  0.912942154796731  0.9955493161886935  0.33833339704209214  1.0000
  O   O11       1.0  0.5870579938689104  0.49554920764153115  0.8383310849059527  1.0000
  O   O12       1.0  0.08705890936168709  0.0044488244414822  0.6616662660177397  1.0000
  O   O13       1.0  0.3820364433305982  0.3447729927780898  0.2721103864411134  1.0000
  O   O14       1.0  0.8820345627898263  0.1552250393049235  0.2278886832862881  1.0000
  O   O15       1.0  0.6179636557798318  0.6552251478520859  0.7278875578150021  1.0000
  O   O16       1.0  0.1179655363206038  0.8447720630931812  0.7721097882701004  1.0000
  O   O17       1.0  0.48367143754794734  0.2634098597546028  0.06575199299862791  1.0000
  O   O18       1.0  0.9836685919591871  0.2365892105604814  0.4342482682322171  1.0000
  O   O19       1.0  0.5163286615624827  0.7365882808755728  0.9342468106593458  1.0000
  O   O20       1.0  0.0163286120072712  0.7634110065338433  0.5657503402270693  1.0000
  O   O21       1.0  0.1739055081653618  0.4412112555309449  0.01956109084373032  1.0000
  O   O22       1.0  0.6739065227685685  0.05878885301621751  0.4804395024887  1.0000
  O   O23       1.0  0.826093625897073  0.5587879233313089  0.980438904317687  1.0000
  O   O24       1.0  0.32609454138984967  0.9412124023101853  0.5195611568758808  1.0000
  O   O25       1.0  0.0124288530757468  0.3574176212198239  0.8610974717223883  1.0000
  O   O26       1.0  0.5124298676789536  0.1425814490952675  0.6389027895084568  1.0000
  O   O27       1.0  0.9875702809866951  0.6425825958745008  0.13890199613875612  1.0000
  O   O28       1.0  0.4875711964794718  0.8574187679990644  0.3610992565582549  1.0000
  O   O29       1.0  0.1705722324045382  0.1988370158484258  0.8902258451881551  1.0000
  O   O30       1.0  0.6705722819597568  0.3011630926987436  0.609773029340559  1.0000
  O   O31       1.0  0.8294278667058848  0.801163201245906  0.10977534147669846  1.0000
  O   O32       1.0  0.3294268521026851  0.6988381626276592  0.3902250518184545  1.0000
  O   O33       1.0  0.0013597526192797  0.2886420138739396  0.04172869549890385  1.0000
  O   O34       1.0  0.5013578720785148  0.21135705644115182  0.4582724251337922  1.0000
  O   O35       1.0  0.9986403464911504  0.7113582032203851  0.9582716317640916  1.0000
  O   O36       1.0  0.49863933188794357  0.788642122421102  0.5417310076350432  1.0000
  O   O37       1.0  0.0879380680814634  0.8091160589405959  0.36488369475823396  1.0000
  O   O38       1.0  0.5879390826846702  0.6908853049329693  0.1351158391350609  1.0000
  O   O39       1.0  0.9120610659809715  0.1908851963858069  0.6351161052044888  1.0000
  O   O40       1.0  0.4120619814737481  0.3091149121613554  0.8648853475297926  1.0000
