data_image0
_chemical_formula_structural       Zn2H22C26N4O10
_chemical_formula_sum              "Zn2 H22 C26 N4 O10"
_cell_length_a       8.2323466134004
_cell_length_b       8.329941068782386
_cell_length_c       10.217849875001606
_cell_angle_alpha    100.25789132909598
_cell_angle_beta     101.11542018811745
_cell_angle_gamma    106.37256867662191

_space_group_name_H-M_alt    "P 1"
_space_group_IT_number       1

loop_
  _space_group_symop_operation_xyz
  'x, y, z'

loop_
  _atom_site_type_symbol
  _atom_site_label
  _atom_site_symmetry_multiplicity
  _atom_site_fract_x
  _atom_site_fract_y
  _atom_site_fract_z
  _atom_site_occupancy
  Zn  Zn1       1.0  0.6609731830467638  0.46936882609137587  0.8920350591974398  1.0000
  Zn  Zn2       1.0  0.33902641942164996  0.5306287162689995  0.1079620888066657  1.0000
  H   H1        1.0  0.43373877700960156  0.045025110789403286  0.7653220767848694  1.0000
  H   H2        1.0  0.5662616837189276  0.9549750139291857  0.23467557017537646  1.0000
  H   H3        1.0  0.5916501882257277  0.8155117010460198  0.8522429758677958  1.0000
  H   H4        1.0  0.4083485963747789  0.18448715083056297  0.1477571625736402  1.0000
  H   H5        1.0  0.918430903688467  0.32664806907727933  0.05804865199485214  1.0000
  H   H6        1.0  0.08156701962672475  0.6733482065427832  0.9419519665667765  1.0000
  H   H7        1.0  0.8696006164188572  0.8581816208594186  0.04251197186331256  1.0000
  H   H8        1.0  0.13039896487309474  0.14181596421281728  0.9574920296751162  1.0000
  H   H9        1.0  0.9881294492066174  0.07195399548198367  0.14538012891074453  1.0000
  H   H10       1.0  0.011870138135748201  0.9280435773868588  0.8546219144750183  1.0000
  H   H11       1.0  0.07685142117399112  0.760182922269102  0.7105923463283405  1.0000
  H   H12       1.0  0.9231486508166924  0.2398198031447975  0.28940854054729936  1.0000
  H   H13       1.0  0.02720393266963569  0.7978592619007326  0.2901870745095749  1.0000
  H   H14       1.0  0.9727961453714612  0.20214345130978015  0.7098118542134061  1.0000
  H   H15       1.0  0.6132573040031132  0.438874751012939  0.3953509929060886  1.0000
  H   H16       1.0  0.3867448147021689  0.5611266831578091  0.6046500370309573  1.0000
  H   H17       1.0  0.3243187469585961  0.925931051346829  0.3834363483797035  1.0000
  H   H18       1.0  0.6756833687214792  0.07407038892561957  0.6165656606336755  1.0000
  H   H19       1.0  0.411167978208212  0.12220234301885567  0.5184087765390972  1.0000
  H   H20       1.0  0.5888332792117552  0.8777965148953863  0.48159273351814147  1.0000
  H   H21       1.0  0.19744263999076855  0.06793652235222679  0.40709504382532913  1.0000
  H   H22       1.0  0.8025594817397206  0.932064905716828  0.5929050070353838  1.0000
  C   C1        1.0  0.5572266865180069  0.07076364492112927  0.839556227985341  1.0000
  C   C2        1.0  0.44277662064177276  0.929233915648268  0.16044444605696379  1.0000
  C   C3        1.0  0.6350561724809934  0.9555631774552747  0.8798055805020796  1.0000
  C   C4        1.0  0.36494347643004943  0.04443824457612778  0.12019309874283121  1.0000
  C   C5        1.0  0.8062176408152908  0.22223183457831638  0.9897795496349675  1.0000
  C   C6        1.0  0.19378361962987606  0.7777670172342254  0.010220981345938187  1.0000
  C   C7        1.0  0.9291629717252619  0.9924672175742227  0.039676689324352254  1.0000
  C   C8        1.0  0.0708358098500383  0.0075316404040535  0.9603244281934169  1.0000
  C   C9        1.0  0.7575536074284345  0.5153728306173873  0.6684078345160529  1.0000
  C   C10       1.0  0.24244727637973537  0.4846285974836915  0.33159202007492183  1.0000
  C   C11       1.0  0.8369737423188255  0.5912419250290027  0.5640066818449868  1.0000
  C   C12       1.0  0.16302671538448982  0.40875820579127964  0.435991944191592  1.0000
  C   C13       1.0  0.0006196379696560545  0.7197718050456243  0.6037507995420627  1.0000
  C   C14       1.0  0.9993800109413868  0.28022961698578536  0.39624787970284797  1.0000
  C   C15       1.0  0.0695271753328014  0.7984038826372949  0.506906810752497  1.0000
  C   C16       1.0  0.9304729027082956  0.20159883057321784  0.49309211797048397  1.0000
  C   C17       1.0  0.9762710733051135  0.7427033030396896  0.3684748009159263  1.0000
  C   C18       1.0  0.02372981050304897  0.2572981250613892  0.6315250536750555  1.0000
  C   C19       1.0  0.8119967352997862  0.6129468496728022  0.3287579565214287  1.0000
  C   C20       1.0  0.18800452817059465  0.38705199603804613  0.6712415953831511  1.0000
  C   C21       1.0  0.741666748290605  0.5374274779585801  0.42575118062854495  1.0000
  C   C22       1.0  0.2583349473350438  0.462572652829678  0.5742476416777721  1.0000
  C   C23       1.0  0.2930461284121222  0.015535642738853996  0.45931863348228325  1.0000
  C   C24       1.0  0.706955993318374  0.9844657853302008  0.5406814173784299  1.0000
  C   C25       1.0  0.7111684535295807  0.5572137314274596  0.18167758487715696  1.0000
  C   C26       1.0  0.2888311428884122  0.44278382313630243  0.8183215212796143  1.0000
  N   N1        1.0  0.6655382942221523  0.236430400159115  0.9089275681796566  1.0000
  N   N2        1.0  0.33446339837828276  0.7635697367308366  0.09107223320298627  1.0000
  N   N3        1.0  0.7921301581203152  0.05368424602561108  0.974860927999785  1.0000
  N   N4        1.0  0.20786695337739045  0.9463133269072795  0.025140722846515452  1.0000
  O   O1        1.0  0.8240901887689773  0.6022066055666995  0.7970506136799572  1.0000
  O   O2        1.0  0.17591192993631208  0.39779482860405563  0.2029504162570888  1.0000
  O   O3        1.0  0.630053612270899  0.37822608150137416  0.6326766652223768  1.0000
  O   O4        1.0  0.36994727456247734  0.6217753404980114  0.36732221029226503  1.0000
  O   O5        1.0  0.5503169204565452  0.46079525185078996  0.1504266593686694  1.0000
  O   O6        1.0  0.44968348777893397  0.5392010054001514  0.8495714145034372  1.0000
  O   O7        1.0  0.7895503433210819  0.6040628177844736  0.09138055391233013  1.0000
  O   O8        1.0  0.2104484473298456  0.39593602188872257  0.9086176263764401  1.0000
  O   O9        1.0  0.22547846115637774  0.9289707450672817  0.5569078254508996  1.0000
  O   O10       1.0  0.7745211847294585  0.0710306830658141  0.4430918328703513  1.0000
