data_image0
_chemical_formula_structural       Mn2H16C24N16
_chemical_formula_sum              "Mn2 H16 C24 N16"
_cell_length_a       6.677559837667998
_cell_length_b       8.345422615164804
_cell_length_c       11.382863777734084
_cell_angle_alpha    108.63077304250749
_cell_angle_beta     87.01299783563763
_cell_angle_gamma    90.34011207759498

_space_group_name_H-M_alt    "P 1"
_space_group_IT_number       1

loop_
  _space_group_symop_operation_xyz
  'x, y, z'

loop_
  _atom_site_type_symbol
  _atom_site_label
  _atom_site_symmetry_multiplicity
  _atom_site_fract_x
  _atom_site_fract_y
  _atom_site_fract_z
  _atom_site_occupancy
  Mn  Mn1       1.0  0.6992301166580785  0.7945514261332961  0.9803412734870919  1.0000
  Mn  Mn2       1.0  0.20507515235046717  0.2072854595807669  0.018720299475347722  1.0000
  H   H1        1.0  0.13071610740956877  0.7063307976937383  0.05696664651146941  1.0000
  H   H2        1.0  0.640839602213063  0.2766338371263829  0.9018952932205052  1.0000
  H   H3        1.0  0.2551951409371256  0.6893533996915339  0.2540515994647023  1.0000
  H   H4        1.0  0.7497829770562491  0.3084383287013495  0.6978759367183471  1.0000
  H   H5        1.0  0.04112883083514869  0.8142678383840763  0.45422219137937253  1.0000
  H   H6        1.0  0.5229655613698084  0.19273404161203442  0.5166030542202833  1.0000
  H   H7        1.0  0.726284184324406  0.9669986144538643  0.44388662431053666  1.0000
  H   H8        1.0  0.21331706776308573  0.04315272140492251  0.5497917721367641  1.0000
  H   H9        1.0  0.1555474310808052  0.26237723437723304  0.4797588674000153  1.0000
  H   H10       1.0  0.6373255662305296  0.7595637811415303  0.5343225073304013  1.0000
  H   H11       1.0  0.8298271038640764  0.4260941318415591  0.5396519587731774  1.0000
  H   H12       1.0  0.3107117111538998  0.5996614572318962  0.4993149561346756  1.0000
  H   H13       1.0  0.6287010140232497  0.46715085815777263  0.37017342816510995  1.0000
  H   H14       1.0  0.13400846783711268  0.5435805206614363  0.6849805983884494  1.0000
  H   H15       1.0  0.7713961596717026  0.3607054418917315  0.15160706416744324  1.0000
  H   H16       1.0  0.2923032455563615  0.631567092909549  0.8851308398264378  1.0000
  C   C1        1.0  0.04249285472607768  0.7583896874353828  0.14369346496724947  1.0000
  C   C2        1.0  0.5489372102536477  0.23039620973472819  0.8218880170998729  1.0000
  C   C3        1.0  0.11240909835231609  0.7516465663408031  0.2549625651600565  1.0000
  C   C4        1.0  0.6096089860564006  0.24546732490682643  0.7071384310599741  1.0000
  C   C5        1.0  0.9963140068003039  0.8215875882641017  0.36532849585049837  1.0000
  C   C6        1.0  0.4858565493892115  0.18174934513458402  0.608132104415091  1.0000
  C   C7        1.0  0.8188791579153403  0.9044987287363359  0.3603620545299436  1.0000
  C   C8        1.0  0.3104070177969405  0.09946861317774852  0.6257730492790259  1.0000
  C   C9        1.0  0.7576473641530441  0.9073029723513886  0.245620365738013  1.0000
  C   C10       1.0  0.2591152377435861  0.08900281678045023  0.7436733312932517  1.0000
  C   C11       1.0  0.5794842630577434  0.9900507119056176  0.2278969142263849  1.0000
  C   C12       1.0  0.07959784610766008  0.005104219810220902  0.7713297390535061  1.0000
  C   C13       1.0  0.31271845294728007  0.1254044880265681  0.2402255548716283  1.0000
  C   C14       1.0  0.8119056896312103  0.871920618436164  0.7592433882833163  1.0000
  C   C15       1.0  0.1304657065144639  0.22606825309884473  0.284992322385591  1.0000
  C   C16       1.0  0.6318890381306872  0.7773592058371508  0.7263670419204615  1.0000
  C   C17       1.0  0.065175236707006  0.2869589255957409  0.41047599211570673  1.0000
  C   C18       1.0  0.5547227108511662  0.7273994972174694  0.6085221638117134  1.0000
  C   C19       1.0  0.8845049135069233  0.3766078431040612  0.44272514486679176  1.0000
  C   C20       1.0  0.3754412944520595  0.6396578083297657  0.5900014378736955  1.0000
  C   C21       1.0  0.7731297279969667  0.4020158813816153  0.3496033003387709  1.0000
  C   C22       1.0  0.27813348587886816  0.6062753523265416  0.6913625937156881  1.0000
  C   C23       1.0  0.8504208724986951  0.3413014566589184  0.22736509963731785  1.0000
  C   C24       1.0  0.3644779970216376  0.6573426275946945  0.8055633117890436  1.0000
  N   N1        1.0  0.5391491226995555  0.9770511851965015  0.10855332733731882  1.0000
  N   N2        1.0  0.03400232018605458  0.0017424708823625982  0.8883274192160969  1.0000
  N   N3        1.0  0.36548764134293776  0.0639323189916965  0.1167610170648814  1.0000
  N   N4        1.0  0.8596788909378502  0.9160137513182749  0.8810348500234398  1.0000
  N   N5        1.0  0.4418757465812888  0.08193451690593895  0.3122655462944195  1.0000
  N   N6        1.0  0.9450972778610732  0.9259217135236856  0.6881734484674382  1.0000
  N   N7        1.0  0.8636986082804939  0.8282506166295391  0.13585311585118384  1.0000
  N   N8        1.0  0.3757953796913113  0.15783373619056826  0.8409725433741215  1.0000
  N   N9        1.0  0.025244838536565305  0.25678712227080797  0.1958176739601853  1.0000
  N   N10       1.0  0.5402667299593062  0.7405691267934884  0.825334918344744  1.0000
  N   N11       1.0  0.5420827167557505  0.6298981213954137  0.032909652666454334  1.0000
  N   N12       1.0  0.9919577584126101  0.37507315178790906  0.9745377875821788  1.0000
  N   N13       1.0  0.47871527939717845  0.5243910313275891  0.07244917307352246  1.0000
  N   N14       1.0  0.9502488258121672  0.4681126700823058  0.9201262580352179  1.0000
  N   N15       1.0  0.4086204162873982  0.41711874278484373  0.10966873988519411  1.0000
  N   N16       1.0  0.9061870968938733  0.561964298949711  0.8656695972624107  1.0000
