data_image0
_chemical_formula_structural       Zn2H24C44N4O12
_chemical_formula_sum              "Zn2 H24 C44 N4 O12"
_cell_length_a       14.780106457994657
_cell_length_b       15.654327403209868
_cell_length_c       16.21179519100271
_cell_angle_alpha    90.66354458268641
_cell_angle_beta     90.7660622602681
_cell_angle_gamma    65.4776469118923

_space_group_name_H-M_alt    "P 1"
_space_group_IT_number       1

loop_
  _space_group_symop_operation_xyz
  'x, y, z'

loop_
  _atom_site_type_symbol
  _atom_site_label
  _atom_site_symmetry_multiplicity
  _atom_site_fract_x
  _atom_site_fract_y
  _atom_site_fract_z
  _atom_site_occupancy
  Zn  Zn1       1.0  0.5971055640066468  0.4947629216850943  0.5009162249649535  1.0000
  Zn  Zn2       1.0  0.40243975294177387  0.5074619710148269  0.49702192325014477  1.0000
  H   H1        1.0  0.7697012405497649  0.8749146148303664  0.5430672363942008  1.0000
  H   H2        1.0  0.2351861804984381  0.12445800374820239  0.5711756571659307  1.0000
  H   H3        1.0  0.5369002532379951  0.7688413614049664  0.5221985624257286  1.0000
  H   H4        1.0  0.46348432732325767  0.2329859097249951  0.5306267029719294  1.0000
  H   H5        1.0  0.8162894975070358  0.006833671897417997  0.5275769808076871  1.0000
  H   H6        1.0  0.18627345648899765  0.9928185428192576  0.5557007554197853  1.0000
  H   H7        1.0  0.6410443205545561  0.8140572864693921  0.5468003596407982  1.0000
  H   H8        1.0  0.3634711473314383  0.18552205572902378  0.5660691557510019  1.0000
  H   H9        1.0  0.6503958215101235  0.47555646068062873  0.9179320833428192  1.0000
  H   H10       1.0  0.3716080788182694  0.4673740128021535  0.08005909284726437  1.0000
  H   H11       1.0  0.1509990349669223  0.3495007671950533  0.4968624811627222  1.0000
  H   H12       1.0  0.8490104774014853  0.6516175679815389  0.5018940204619611  1.0000
  H   H13       1.0  0.2114982306010162  0.7640309201391701  0.5764939702761963  1.0000
  H   H14       1.0  0.1302637636423539  0.8791971837609296  0.5425187535718194  1.0000
  H   H15       1.0  0.19734309884616147  0.7878611206798141  0.4705636909034609  1.0000
  H   H16       1.0  0.7910405906540204  0.21929660242702917  0.44992869234265936  1.0000
  H   H17       1.0  0.7985277207348955  0.2311496531785266  0.5571548197285878  1.0000
  H   H18       1.0  0.8705571415842783  0.12022409519424572  0.50922980224869  1.0000
  H   H19       1.0  0.051144953799877164  0.26132907294800134  0.494331909286636  1.0000
  H   H20       1.0  0.9378416443720424  0.31562712160280876  0.5498021242108564  1.0000
  H   H21       1.0  0.9355654542111437  0.3178716141615254  0.4410494606159716  1.0000
  H   H22       1.0  0.9487358765186754  0.7397544849936181  0.5042096914942036  1.0000
  H   H23       1.0  0.06280002578210998  0.6836937047950256  0.5598246056062448  1.0000
  H   H24       1.0  0.0635823146603867  0.6852068125173079  0.45109461422193675  1.0000
  C   C1        1.0  0.5017636351743987  0.49345635528005266  0.33797553319594437  1.0000
  C   C2        1.0  0.5029544004744719  0.4964706132323471  0.6607828340437578  1.0000
  C   C3        1.0  0.5756160729087226  0.3189518595587373  0.5072859643616139  1.0000
  C   C4        1.0  0.42317179589827697  0.6828444993383157  0.5086606852341901  1.0000
  C   C5        1.0  0.6124680848720203  0.21499315657771936  0.5196461156482711  1.0000
  C   C6        1.0  0.38755757026461146  0.7863546976865481  0.5247312670113331  1.0000
  C   C7        1.0  0.7382743595444056  0.056941837647940474  0.5286699264963557  1.0000
  C   C8        1.0  0.26387438924312084  0.943288434026222  0.5481038867317876  1.0000
  C   C9        1.0  0.7153724530874827  0.1516903701900603  0.5192453040286225  1.0000
  C   C10       1.0  0.28533048306303493  0.8491254893547194  0.5345861866015369  1.0000
  C   C11       1.0  0.5402311685475779  0.1811015372439329  0.5312630361688093  1.0000
  C   C12       1.0  0.4607647179401438  0.8202647686661139  0.5303162281563303  1.0000
  C   C13       1.0  0.5629258200983996  0.0851661218178634  0.5405447300055568  1.0000
  C   C14       1.0  0.43949065294606976  0.9155875534401047  0.5433258019308836  1.0000
  C   C15       1.0  0.6653696126494778  0.0213818519037048  0.5377702953705494  1.0000
  C   C16       1.0  0.33745092353568396  0.9789450497861125  0.5514229922777503  1.0000
  C   C17       1.0  0.48746971921192994  0.04938520721553629  0.5483833523434498  1.0000
  C   C18       1.0  0.5156577017717366  0.95109996426514  0.5454782573191607  1.0000
  C   C19       1.0  0.6190625500015159  0.889592268278477  0.5445810526866595  1.0000
  C   C20       1.0  0.38476516841059544  0.11037973878215007  0.5587058902506143  1.0000
  C   C21       1.0  0.6910229159513007  0.92319274658027  0.5424546015179033  1.0000
  C   C22       1.0  0.3129430189770658  0.07657538796703987  0.5615851902539362  1.0000
  C   C23       1.0  0.5901333639079237  0.4710338979757155  0.9527955906195372  1.0000
  C   C24       1.0  0.4344104451507036  0.46642958305908877  0.04522498642830189  1.0000
  C   C25       1.0  0.5073434389011596  0.4684930263116056  0.9105162462871661  1.0000
  C   C26       1.0  0.5178670907446161  0.46742497313897496  0.08750722121605037  1.0000
  C   C27       1.0  0.4308068702479416  0.4646830969706172  0.9598390102714018  1.0000
  C   C28       1.0  0.5957882599763522  0.4682467977538423  0.038121949284523296  1.0000
  C   C29       1.0  0.5028730100500169  0.4755507854564555  0.8238037251243353  1.0000
  C   C30       1.0  0.5167835854592367  0.47331327181471755  0.17439895852700718  1.0000
  C   C31       1.0  0.5079148841366177  0.4829142989255146  0.248894496015822  1.0000
  C   C32       1.0  0.5039973104641433  0.4860087632527409  0.7495855423873721  1.0000
  C   C33       1.0  0.9908117087796315  0.4123276362058732  0.4977172784170846  1.0000
  C   C34       1.0  0.009188736670523676  0.5887790186203007  0.5017225922744828  1.0000
  C   C35       1.0  0.9073481725606667  0.5002338037472995  0.4991327051364322  1.0000
  C   C36       1.0  0.09267192190704064  0.5008936447334023  0.5000532308722896  1.0000
  C   C37       1.0  0.9161220617506627  0.5862553325502021  0.5009995949962374  1.0000
  C   C38       1.0  0.08390301217464469  0.4148615095339139  0.49817027389256197  1.0000
  C   C39       1.0  0.8110776473524481  0.5008154268302293  0.4990328132883092  1.0000
  C   C40       1.0  0.1887967473895172  0.5006124992710282  0.4996974423206167  1.0000
  C   C41       1.0  0.20116808995086186  0.8187825504315926  0.5309407350627353  1.0000
  C   C42       1.0  0.7987639291417921  0.1818586804861937  0.5082965585128889  1.0000
  C   C43       1.0  0.9787227578211455  0.32179940148961356  0.49563705382339396  1.0000
  C   C44       1.0  0.021202031460631914  0.6793075714102842  0.5043249008268091  1.0000
  N   N1        1.0  0.2659612652473199  0.5035068363183443  0.49863050909161194  1.0000
  N   N2        1.0  0.73352378467267  0.49871394977614625  0.4995040804035752  1.0000
  N   N3        1.0  0.687777577346054  0.46641031148726597  0.0764060152775272  1.0000
  N   N4        1.0  0.34194929297416365  0.46010957997403784  0.9210718010669368  1.0000
  O   O1        1.0  0.5777984635140782  0.4952784732000097  0.3740035323253679  1.0000
  O   O2        1.0  0.4207231168044388  0.5124375463235181  0.6246590349928025  1.0000
  O   O3        1.0  0.4213838467995501  0.4995077996845722  0.3703946750030838  1.0000
  O   O4        1.0  0.584203014297081  0.4882662563789282  0.6287117865469937  1.0000
  O   O5        1.0  0.6394069165074113  0.3536649455074254  0.5006047588977365  1.0000
  O   O6        1.0  0.3590831508457484  0.6488796414302699  0.49703282538264654  1.0000
  O   O7        1.0  0.48150051001736227  0.3660957410840524  0.5045197810476694  1.0000
  O   O8        1.0  0.5172452212381698  0.6351380185586138  0.5080069717674646  1.0000
  O   O9        1.0  0.7181100167667438  0.41946711725013597  0.1397769978113104  1.0000
  O   O10       1.0  0.7286271620388546  0.5107529561026495  0.04124736818259579  1.0000
  O   O11       1.0  0.3542768567210787  0.4151813697611004  0.8558075769578861  1.0000
  O   O12       1.0  0.2618187440836905  0.5006794867436071  0.9574138466255561  1.0000
