data_image0
_chemical_formula_structural       Rb4H20C24N4O14
_chemical_formula_sum              "Rb4 H20 C24 N4 O14"
_cell_length_a       5.296923695899781
_cell_length_b       12.19575412463612
_cell_length_c       12.925383583551728
_cell_angle_alpha    105.23520456155806
_cell_angle_beta     101.78862354703426
_cell_angle_gamma    89.98108193972178

_space_group_name_H-M_alt    "P 1"
_space_group_IT_number       1

loop_
  _space_group_symop_operation_xyz
  'x, y, z'

loop_
  _atom_site_type_symbol
  _atom_site_label
  _atom_site_symmetry_multiplicity
  _atom_site_fract_x
  _atom_site_fract_y
  _atom_site_fract_z
  _atom_site_occupancy
  Rb  Rb1       1.0  0.847639532158091  0.9233784147964386  0.08675083026417953  1.0000
  Rb  Rb2       1.0  0.7604919550987506  0.5766044510573352  0.9131704684755279  1.0000
  Rb  Rb3       1.0  0.1523663531657959  0.0766268560098666  0.9132488601908973  1.0000
  Rb  Rb4       1.0  0.23949884610735245  0.4234033599096134  0.0868262359116372  1.0000
  H   H1        1.0  0.6196194687751914  0.2341089510695369  0.4218980413882107  1.0000
  H   H2        1.0  0.19715300212267556  0.265983175788854  0.5779962873524553  1.0000
  H   H3        1.0  0.3803782424130162  0.7658929260955811  0.5781032180297316  1.0000
  H   H4        1.0  0.8028459685939355  0.7340136044568266  0.4220061552418457  1.0000
  H   H5        1.0  0.41857171815470917  0.40710035428239155  0.5129648135638405  1.0000
  H   H6        1.0  0.9054391260264937  0.0930140956508794  0.4871031695654295  1.0000
  H   H7        1.0  0.5814279216443695  0.592901523343656  0.48703661034008416  1.0000
  H   H8        1.0  0.09456925789835678  0.906980991000722  0.5129012089121474  1.0000
  H   H9        1.0  0.0030266172398469913  0.4646802970896359  0.4117166575967985  1.0000
  H   H10       1.0  0.5914833811346157  0.0353722433770329  0.5885746130882055  1.0000
  H   H11       1.0  0.9969788493035382  0.5353215625508412  0.5882806164254645  1.0000
  H   H12       1.0  0.40851933869930696  0.9646236866130806  0.4114279413148126  1.0000
  H   H13       1.0  0.7964376440602551  0.3496187100234137  0.22751124762666558  1.0000
  H   H14       1.0  0.5691784346905209  0.1504499293245871  0.7729302452544928  1.0000
  H   H15       1.0  0.20357394626627476  0.6503856980760148  0.7724856235633766  1.0000
  H   H16       1.0  0.4308169086504635  0.84954854589796  0.2270707549144575  1.0000
  H   H17       1.0  0.34512781414537125  0.7204217476057265  0.047882577177091386  1.0000
  H   H18       1.0  0.2972649127305687  0.77962256020124  0.951988103442936  1.0000
  H   H19       1.0  0.6548686443330425  0.2795852232507698  0.9521167251745694  1.0000
  H   H20       1.0  0.7027374465035053  0.22038525998741684  0.0480111356399675  1.0000
  C   C1        1.0  0.0848764624182721  0.22452672358352993  0.21253560941499927  1.0000
  C   C2        1.0  0.8720936614678156  0.2756031585657936  0.7876930291054693  1.0000
  C   C3        1.0  0.9151313856095697  0.7754785315433992  0.7874603760763961  1.0000
  C   C4        1.0  0.12789644338135994  0.7243995679330197  0.21230778953180623  1.0000
  C   C5        1.0  0.3259917246023036  0.1949156153276732  0.2735287663409239  1.0000
  C   C6        1.0  0.051912270487655114  0.3051951783433751  0.7265157518164074  1.0000
  C   C7        1.0  0.6740078070923374  0.805085411120949  0.7264724403997606  1.0000
  C   C8        1.0  0.9480834039852438  0.6948058471833889  0.2734851259523269  1.0000
  C   C9        1.0  0.4398998293864481  0.26094830802610147  0.3806075585758464  1.0000
  C   C10       1.0  0.058811292206435405  0.2391209629325743  0.6193843545148496  1.0000
  C   C11       1.0  0.5601037893760292  0.7390544152431102  0.6193928636834088  1.0000
  C   C12       1.0  0.9411897220441008  0.7608766657234013  0.3806176958387297  1.0000
  C   C13       1.0  0.32843637293991185  0.357035818613781  0.43056658736805525  1.0000
  C   C14       1.0  0.8975155805077719  0.14305953489849085  0.5695190341026475  1.0000
  C   C15       1.0  0.671565215925888  0.6429660497890168  0.5694326793520545  1.0000
  C   C16       1.0  0.10248349831327627  0.8569380965246153  0.43048362565489384  1.0000
  C   C17       1.0  0.09457573315401652  0.3887609699498711  0.37370700503031884  1.0000
  C   C18       1.0  0.7208304965342904  0.11130056654172188  0.6265616584952198  1.0000
  C   C19       1.0  0.9054260855578845  0.6112425943516584  0.6262911482363904  1.0000
  C   C20       1.0  0.2791723109482049  0.888696224309996  0.37344343474082825  1.0000
  C   C21       1.0  0.9780587721856266  0.3250215062649885  0.2700670725954454  1.0000
  C   C22       1.0  0.7081103116330781  0.1750399673735856  0.7302837997695945  1.0000
  C   C23       1.0  0.021948724254443216  0.6749812082419097  0.7299313569659632  1.0000
  C   C24       1.0  0.2918855722300719  0.8249627637360815  0.2697182862155428  1.0000
  N   N1        1.0  0.4588913332848109  0.09877946765902121  0.22861418511445214  1.0000
  N   N2        1.0  0.22962066207975348  0.40125651558931696  0.7713560352315056  1.0000
  N   N3        1.0  0.5411124004007206  0.9012241035595636  0.7713856804180993  1.0000
  N   N4        1.0  0.7703729893150851  0.598743651842966  0.2286429131081462  1.0000
  O   O1        1.0  0.9696505271934015  0.16931562855826598  0.11484858293108861  1.0000
  O   O2        1.0  0.8543688993627684  0.33083902010893235  0.8853994069469521  1.0000
  O   O3        1.0  0.030357212730009988  0.8306887753912446  0.8851471853970665  1.0000
  O   O4        1.0  0.145613930279282  0.6691671060277995  0.1146008485094256  1.0000
  O   O5        1.0  0.37561097408126903  0.038964600610413  0.131086793953763  1.0000
  O   O6        1.0  0.24406196820201845  0.46099807871340903  0.8689534750601666  1.0000
  O   O7        1.0  0.6243967385676683  0.9610398162513364  0.8689120699341187  1.0000
  O   O8        1.0  0.755926437882387  0.5390063432232068  0.13104606563773305  1.0000
  O   O9        1.0  0.6602360268415098  0.0729759872937521  0.2860609513645684  1.0000
  O   O10       1.0  0.3733124392422554  0.4270379453032477  0.7137887838948487  1.0000
  O   O11       1.0  0.3397674769979134  0.927025888026101  0.7139400276213834  1.0000
  O   O12       1.0  0.6266809891250986  0.5729605230022442  0.2862105040082525  1.0000
  O   O13       1.0  0.4382740405809714  0.750099836535604  0.999975049824755  1.0000
  O   O14       1.0  0.5617243396896896  0.24990713800988112  2.5190902810754636e-05  1.0000
