data_image0
_chemical_formula_structural       Sm4H24C24N8O32
_chemical_formula_sum              "Sm4 H24 C24 N8 O32"
_cell_length_a       7.595366583739203
_cell_length_b       7.990962647514478
_cell_length_c       17.232603194040188
_cell_angle_alpha    90.0000185867713
_cell_angle_beta     89.99975903404292
_cell_angle_gamma    108.24772481792475

_space_group_name_H-M_alt    "P 1"
_space_group_IT_number       1

loop_
  _space_group_symop_operation_xyz
  'x, y, z'

loop_
  _atom_site_type_symbol
  _atom_site_label
  _atom_site_symmetry_multiplicity
  _atom_site_fract_x
  _atom_site_fract_y
  _atom_site_fract_z
  _atom_site_occupancy
  Sm  Sm1       1.0  0.3143995683991392  0.26063079066709344  0.9149885904908924  1.0000
  Sm  Sm2       1.0  0.6856038165899392  0.23937055816706732  0.4149860149957191  1.0000
  Sm  Sm3       1.0  0.6855979315799773  0.7393617065872891  0.08500805000681307  1.0000
  Sm  Sm4       1.0  0.314398092581861  0.7606377852499051  0.5850094649083529  1.0000
  H   H1        1.0  0.9477093280208493  0.4004671498526875  0.7162612172515137  1.0000
  H   H2        1.0  0.052299658004358186  0.09953722237768399  0.21626618174047244  1.0000
  H   H3        1.0  0.05228782176956772  0.5995280235121855  0.2837377444282437  1.0000
  H   H4        1.0  0.9477072349271437  0.9004776218510886  0.7837333602271241  1.0000
  H   H5        1.0  0.8220425022249315  0.3859037027346375  0.8539422146357933  1.0000
  H   H6        1.0  0.17797062530684835  0.11409749685095251  0.3539457869598336  1.0000
  H   H7        1.0  0.17796070896942956  0.6141045985724461  0.14605848792547244  1.0000
  H   H8        1.0  0.8220385930993358  0.8858946214662352  0.6460543352992189  1.0000
  H   H9        1.0  0.932281905106713  0.16386333216425433  0.9740829683776865  1.0000
  H   H10       1.0  0.06771115568514571  0.33613286043679846  0.47408329841682917  1.0000
  H   H11       1.0  0.06770425368231514  0.8361415233718079  0.025918314494560894  1.0000
  H   H12       1.0  0.9322836143996655  0.6638557278985716  0.5259203056276645  1.0000
  H   H13       1.0  0.9069701682007717  0.002254965621062906  0.920200232312048  1.0000
  H   H14       1.0  0.09303411501316108  0.49774900479897616  0.4202005402467392  1.0000
  H   H15       1.0  0.0930258052938341  0.9977442429641598  0.07979988995987237  1.0000
  H   H16       1.0  0.9069662405750734  0.5022513944821014  0.579797841135061  1.0000
  H   H17       1.0  0.25040369232345216  0.5870942850830116  0.9834287122693862  1.0000
  H   H18       1.0  0.7495857533731467  0.9129083345766063  0.48342604456003346  1.0000
  H   H19       1.0  0.7495829424078979  0.41291188745923085  0.016571410011764  1.0000
  H   H20       1.0  0.2504149523828829  0.08708938858913481  0.5165740777073679  1.0000
  H   H21       1.0  0.16286752711040725  0.5273024451880347  0.9022640350249345  1.0000
  H   H22       1.0  0.8371286623979586  0.9726948472591417  0.40226237427489037  1.0000
  H   H23       1.0  0.8371328284628987  0.47269795408958265  0.09773724783376277  1.0000
  H   H24       1.0  0.1628670866764992  0.027311030556702996  0.5977383282931328  1.0000
  C   C1        1.0  0.8059228001352211  0.32753193428943206  0.7331316907734828  1.0000
  C   C2        1.0  0.19408268074970886  0.17246317870853994  0.23313118007374808  1.0000
  C   C3        1.0  0.19408867219011225  0.6724627759329849  0.2668690117790503  1.0000
  C   C4        1.0  0.8059267891577518  0.8275369258406187  0.766872423957956  1.0000
  C   C5        1.0  0.656144030321215  0.21863941372792792  0.6912809189671874  1.0000
  C   C6        1.0  0.343856322861896  0.2813586435327338  0.19128304790852718  1.0000
  C   C7        1.0  0.3438731532163786  0.7813711005465008  0.3087244259442841  1.0000
  C   C8        1.0  0.6561451103317567  0.7186483828697662  0.8087205561311916  1.0000
  C   C9        1.0  0.5097530018755165  0.16165391005089447  0.7467329165685752  1.0000
  C   C10       1.0  0.49026491067513683  0.3383540879532418  0.2467371031081028  1.0000
  C   C11       1.0  0.49022481445554433  0.8383205701627008  0.25327242837673936  1.0000
  C   C12       1.0  0.5097573823996768  0.661666920255186  0.75326882209481  1.0000
  C   C13       1.0  0.31030659365117685  0.0502463130748936  0.7451459856403982  1.0000
  C   C14       1.0  0.689696411019469  0.44975684173535774  0.24514459566874072  1.0000
  C   C15       1.0  0.6897005952918323  0.9497365441147425  0.2548460124845206  1.0000
  C   C16       1.0  0.310297237048232  0.5502650927725056  0.754845661585662  1.0000
  C   C17       1.0  0.6593194759364353  0.1787994997050504  0.6073968947288435  1.0000
  C   C18       1.0  0.34067926216675193  0.3212028347937378  0.10739729485779748  1.0000
  C   C19       1.0  0.3406808796219352  0.8212008995691136  0.39260728960675095  1.0000
  C   C20       1.0  0.6593190909856973  0.6788029588099321  0.8926074697754486  1.0000
  C   C21       1.0  0.41309538659054107  0.9213196260347869  0.9904362337616205  1.0000
  C   C22       1.0  0.5868913557566059  0.57866840565665  0.4904402003096917  1.0000
  C   C23       1.0  0.5869031638830009  0.0786648428715111  0.0095673702790364  1.0000
  C   C24       1.0  0.413093249416022  0.42132850573590014  0.5095703672894486  1.0000
  N   N1        1.0  0.7464054868286921  0.32995872657490116  0.8066847659036396  1.0000
  N   N2        1.0  0.2536141613559622  0.17004105811412273  0.30668530466497396  1.0000
  N   N3        1.0  0.2535848025228375  0.6700393334181385  0.19331709725961585  1.0000
  N   N4        1.0  0.7464134114930516  0.8299544638676507  0.693316558463401  1.0000
  N   N5        1.0  0.567873094358589  0.2346256978947707  0.8161640496376987  1.0000
  N   N6        1.0  0.4321287035324843  0.26537597066275964  0.3161619497950098  1.0000
  N   N7        1.0  0.4321299640368537  0.7653639548413479  0.18382446671931515  1.0000
  N   N8        1.0  0.5678659679634349  0.7346232800378941  0.6838283074566787  1.0000
  O   O1        1.0  0.2126608650565842  0.06984817054765813  0.8022918260279109  1.0000
  O   O2        1.0  0.787335265691155  0.4301483893596938  0.3022914119349379  1.0000
  O   O3        1.0  0.7873440699642914  0.9301320947360667  0.19770017209890506  1.0000
  O   O4        1.0  0.21266133661038114  0.56987078481788  0.6977069694518006  1.0000
  O   O5        1.0  0.28581207709701323  0.9505858572648337  0.9510807218434747  1.0000
  O   O6        1.0  0.7141981569990252  0.5494041864715344  0.4510792243529024  1.0000
  O   O7        1.0  0.7141811665361287  0.049409442408979494  0.048919980726061886  1.0000
  O   O8        1.0  0.2858085830529404  0.4505920091676003  0.5489237993856617  1.0000
  O   O9        1.0  0.9777610357793947  0.13067910142083863  0.9250218506905836  1.0000
  O   O10       1.0  0.022242245962892978  0.3693222235035379  0.4250182084079411  1.0000
  O   O11       1.0  0.022241097800595418  0.8693225727627477  0.07497537009890458  1.0000
  O   O12       1.0  0.9777498214132408  0.6306771113996136  0.5749761109138374  1.0000
  O   O13       1.0  0.1663982154900268  0.4836175580018391  0.9551753610097079  1.0000
  O   O14       1.0  0.8335929117131257  0.01638008087055449  0.4551765377156797  1.0000
  O   O15       1.0  0.8335944535701073  0.5163870870213928  0.04482127949343349  1.0000
  O   O16       1.0  0.16639229519425666  0.9836221406538428  0.5448264860433836  1.0000
  O   O17       1.0  0.24730186799355644  0.9435693152575054  0.6897841933233335  1.0000
  O   O18       1.0  0.752706448612493  0.5564268297350238  0.18978088438001345  1.0000
  O   O19       1.0  0.7527000140463471  0.056424372685128815  0.31021708953342386  1.0000
  O   O20       1.0  0.2473080051203668  0.44357977564114054  0.8102140152168784  1.0000
  O   O21       1.0  0.5572638115145736  0.03187745868980581  0.5820276249343121  1.0000
  O   O22       1.0  0.44273388562413635  0.46812497837444067  0.0820261170171364  1.0000
  O   O23       1.0  0.4427152353104021  0.9681222972369242  0.41797772001181227  1.0000
  O   O24       1.0  0.5572773622661201  0.5318764010751451  0.9179780673083966  1.0000
  O   O25       1.0  0.766267724077629  0.2940416291760073  0.5623258423618365  1.0000
  O   O26       1.0  0.233730651719803  0.20596217183927482  0.06232990542901718  1.0000
  O   O27       1.0  0.23373421216334825  0.7059813697007938  0.4376760207925158  1.0000
  O   O28       1.0  0.7662661478699847  0.7940356776333317  0.9376736986143042  1.0000
  O   O29       1.0  0.4117019821719979  0.7725321668495437  0.016876407244176096  1.0000
  O   O30       1.0  0.5882996998227412  0.727459332709458  0.5168755664950098  1.0000
  O   O31       1.0  0.5883030785517391  0.2274520915390923  0.9831266164950275  1.0000
  O   O32       1.0  0.4116957977355114  0.27253855887097  0.48312455577725183  1.0000
