data_image0
_chemical_formula_structural       Cu2H16C18I2N4
_chemical_formula_sum              "Cu2 H16 C18 I2 N4"
_cell_length_a       4.1268430304908525
_cell_length_b       9.858574706226772
_cell_length_c       11.64484217619285
_cell_angle_alpha    89.99942235952352
_cell_angle_beta     101.8918726539822
_cell_angle_gamma    90.00062849151733

_space_group_name_H-M_alt    "P 1"
_space_group_IT_number       1

loop_
  _space_group_symop_operation_xyz
  'x, y, z'

loop_
  _atom_site_type_symbol
  _atom_site_label
  _atom_site_symmetry_multiplicity
  _atom_site_fract_x
  _atom_site_fract_y
  _atom_site_fract_z
  _atom_site_occupancy
  Cu  Cu1       1.0  0.5032765295778034  0.6031699028237654  0.7861560543442181  1.0000
  Cu  Cu2       1.0  0.49671877289897276  0.10316793713843002  0.2138431092021804  1.0000
  H   H1        1.0  0.16575133020710814  0.3729253654799863  0.020482842677211004  1.0000
  H   H2        1.0  0.834249990226077  0.8729225110556696  0.9795153040648259  1.0000
  H   H3        1.0  0.2267096029208986  0.518056642684492  0.9427038707427685  1.0000
  H   H4        1.0  0.7732912510296829  0.0180527362696665  0.0572963452794255  1.0000
  H   H5        1.0  0.2788581923653126  0.15184855791569166  0.9589424604758676  1.0000
  H   H6        1.0  0.721145526638388  0.6518441258101646  0.0410559584992782  1.0000
  H   H7        1.0  0.4591774145507372  0.009666038161583401  0.8064452251853426  1.0000
  H   H8        1.0  0.5408183046652298  0.5096609959773843  0.19355474335282002  1.0000
  H   H9        1.0  0.6775507052702281  0.9986118077527877  0.6218065872889654  1.0000
  H   H10       1.0  0.32244388184410155  0.49860911951130765  0.3781943917987506  1.0000
  H   H11       1.0  0.8651460241370473  0.11781854761324692  0.45780561494571254  1.0000
  H   H12       1.0  0.13485718587075723  0.6178176451709164  0.5421956337343588  1.0000
  H   H13       1.0  0.8754689063223893  0.3696217324043617  0.4531199605489249  1.0000
  H   H14       1.0  0.1245351364839138  0.8696207268075827  0.5468818187961589  1.0000
  H   H15       1.0  0.7030111254722302  0.5039136442025479  0.6112154245751215  1.0000
  H   H16       1.0  0.2969942871896478  0.0039117273585632  0.38878433190629386  1.0000
  C   C1        1.0  0.37992450345740286  0.3418392059483253  0.8784918815714634  1.0000
  C   C2        1.0  0.620085552656036  0.8418363974316775  0.12150190905079938  1.0000
  C   C3        1.0  0.3719403885483957  0.19742678286025495  0.886709480797201  1.0000
  C   C4        1.0  0.6280458138229079  0.6974170079660169  0.1133012227200538  1.0000
  C   C5        1.0  0.4706969982962192  0.12012627296110173  0.8027680839980605  1.0000
  C   C6        1.0  0.5293125673886081  0.6201302632483064  0.1972215095455496  1.0000
  C   C7        1.0  0.5829813835062866  0.1834364443487217  0.7085829856511199  1.0000
  C   C8        1.0  0.41701129585391783  0.6834296714376151  0.29142136124480095  1.0000
  C   C9        1.0  0.6833781720469077  0.10920335708325979  0.6181701021290708  1.0000
  C   C10       1.0  0.31662452825608506  0.6092021502439238  0.38182775004719355  1.0000
  C   C11       1.0  0.7867306000830396  0.1752380194226504  0.5273963288044854  1.0000
  C   C12       1.0  0.21326916383981143  0.6752332315289423  0.4726068059531131  1.0000
  C   C13       1.0  0.7933226216629096  0.31812077237133013  0.5249274946700879  1.0000
  C   C14       1.0  0.20668483746017335  0.8181220109249026  0.4750706290461295  1.0000
  C   C15       1.0  0.697726200795998  0.3931988362308588  0.6126746028407908  1.0000
  C   C16       1.0  0.30227109595317364  0.8931944549871602  0.3873282814149661  1.0000
  C   C17       1.0  0.5894736714945381  0.3281186468530493  0.7059404352209384  1.0000
  C   C18       1.0  0.4105291376845344  0.8281189131471292  0.2940581769356498  1.0000
  I   I1        1.0  0.002411321723329304  0.7540505622105513  0.7921769274410266  1.0000
  I   I2        1.0  0.9975872220019538  0.254050979798251  0.2078203198917308  1.0000
  N   N1        1.0  0.48924435777363584  0.4050184778580856  0.7914112433811625  1.0000
  N   N2        1.0  0.5107509641982163  0.9050151474617395  0.2085939978905529  1.0000
  N   N3        1.0  0.28252126554664875  0.41882020363558337  0.9618476254269339  1.0000
  N   N4        1.0  0.7174718852090436  0.9188157889716352  0.03815736661483269  1.0000
