data_image0
_chemical_formula_structural       Nd4H28C32N4O32
_chemical_formula_sum              "Nd4 H28 C32 N4 O32"
_cell_length_a       7.615604557449802
_cell_length_b       9.942949254040665
_cell_length_c       14.962015228057625
_cell_angle_alpha    90.0002079973961
_cell_angle_beta     98.12178006564169
_cell_angle_gamma    90.00022225478429

_space_group_name_H-M_alt    "P 1"
_space_group_IT_number       1

loop_
  _space_group_symop_operation_xyz
  'x, y, z'

loop_
  _atom_site_type_symbol
  _atom_site_label
  _atom_site_symmetry_multiplicity
  _atom_site_fract_x
  _atom_site_fract_y
  _atom_site_fract_z
  _atom_site_occupancy
  Nd  Nd1       1.0  0.14212135068440548  0.45799306365806564  0.356971343946249  1.0000
  Nd  Nd2       1.0  0.35787666359757253  0.9579923370791903  0.1430273611850268  1.0000
  Nd  Nd3       1.0  0.8578666856438488  0.5420062035306401  0.6430239419358372  1.0000
  Nd  Nd4       1.0  0.6421298983045033  0.042007935895121286  0.8569753064401056  1.0000
  H   H1        1.0  0.7483049796178989  0.4499800743553237  0.2924935986163035  1.0000
  H   H2        1.0  0.7516935142142246  0.9499793822776468  0.20750571759085548  1.0000
  H   H3        1.0  0.25168568512397366  0.5500212043225687  0.7075052229615578  1.0000
  H   H4        1.0  0.2483130671826999  0.050020890689410194  0.7924942780175356  1.0000
  H   H5        1.0  0.781264618141712  0.5575952834796495  0.3689695407786856  1.0000
  H   H6        1.0  0.7187342286501703  0.05759601225517489  0.1310308627499879  1.0000
  H   H7        1.0  0.21872737298832587  0.4424059952004953  0.6310293786351693  1.0000
  H   H8        1.0  0.2812683687144074  0.9424062721825732  0.8689695073574483  1.0000
  H   H9        1.0  0.0305923992572374  0.2270911736396712  0.20508178861935986  1.0000
  H   H10       1.0  0.4694095709664978  0.7270926144540225  0.2949173212832719  1.0000
  H   H11       1.0  0.9694115293545806  0.7729060821094648  0.7949180113127665  1.0000
  H   H12       1.0  0.5305943479096059  0.2729086642499821  0.7050838146629202  1.0000
  H   H13       1.0  0.9196927511666644  0.3624617215856816  0.17870291121980844  1.0000
  H   H14       1.0  0.5803105287780851  0.8624621439535712  0.3212978842369764  1.0000
  H   H15       1.0  0.08030986080441238  0.6375355341575784  0.8212954548679432  1.0000
  H   H16       1.0  0.41969204908577495  0.137538129015816  0.6787051578843516  1.0000
  H   H17       1.0  0.16970292863177153  0.8855141450844213  0.3572672263916131  1.0000
  H   H18       1.0  0.33029861347558404  0.3855172824384282  0.14273557480897378  1.0000
  H   H19       1.0  0.8302983228380681  0.11448411640710525  0.642735717890865  1.0000
  H   H20       1.0  0.6696999949770729  0.6144850019962007  0.8572658377988487  1.0000
  H   H21       1.0  0.2104283284906927  0.8838032326596871  0.6478513600562151  1.0000
  H   H22       1.0  0.2895776683977687  0.3838023619338386  0.8521501465033197  1.0000
  H   H23       1.0  0.7895702653261764  0.11619402309134587  0.3521520565570384  1.0000
  H   H24       1.0  0.7104328872899401  0.6161979110417805  0.1478508106172427  1.0000
  H   H25       1.0  0.3937764842153443  0.21592184889313148  0.5213850982811721  1.0000
  H   H26       1.0  0.1062272134363624  0.7159201895578561  0.9786151665129522  1.0000
  H   H27       1.0  0.6062207685951506  0.7840764125989066  0.47862022451006675  1.0000
  H   H28       1.0  0.8937780659438984  0.28408108913568947  0.021381391239941594  1.0000
  C   C1        1.0  0.31047527986924456  0.14187983501847154  0.34623616723082756  1.0000
  C   C2        1.0  0.18952355108424257  0.6418877157185887  0.15376116943637902  1.0000
  C   C3        1.0  0.689521992418534  0.858112392039452  0.6537664835351149  1.0000
  C   C4        1.0  0.8104698103178832  0.3581206031121339  0.8462318357857866  1.0000
  C   C5        1.0  0.2818549096441386  0.06271235905321498  0.4284337297624035  1.0000
  C   C6        1.0  0.21814609351371667  0.5627148482226048  0.0715662501553496  1.0000
  C   C7        1.0  0.7181463272074922  0.9372869081815622  0.5715712185340678  1.0000
  C   C8        1.0  0.7818538656927387  0.4372864304673952  0.9284319202661137  1.0000
  C   C9        1.0  0.20670877881703828  0.9343218282955944  0.4224588087832757  1.0000
  C   C10       1.0  0.2932957246807248  0.4343234937738885  0.0775409864303711  1.0000
  C   C11       1.0  0.7932964420728013  0.06567743894410678  0.5775457650169997  1.0000
  C   C12       1.0  0.7067042345257305  0.5656777849161115  0.9224571839910921  1.0000
  C   C13       1.0  0.17714941299005463  0.8690777770152566  0.5016703875232551  1.0000
  C   C14       1.0  0.32285517662737817  0.36907780304409943  0.9983303114524275  1.0000
  C   C15       1.0  0.822854491253196  0.1309194787429533  0.4983327524297962  1.0000
  C   C16       1.0  0.6771487568669342  0.6309224699166477  0.0016688204797858826  1.0000
  C   C17       1.0  0.0912958055516668  0.7329258845476402  0.4986232336183889  1.0000
  C   C18       1.0  0.4087074811778777  0.23292747936522312  0.0013820026988539999  1.0000
  C   C19       1.0  0.9087000965020876  0.2670723769512194  0.5013853313577811  1.0000
  C   C20       1.0  0.5912991002249087  0.7670748050774491  0.9986179929123933  1.0000
  C   C21       1.0  0.2300037083258459  0.932735251210836  0.584667228543715  1.0000
  C   C22       1.0  0.27000257354029594  0.4327356723862008  0.915334416734211  1.0000
  C   C23       1.0  0.7699975285199301  0.0672620045483185  0.41533771974989964  1.0000
  C   C24       1.0  0.7300066655066786  0.5672646005835346  0.08466510654199058  1.0000
  C   C25       1.0  0.3315885216132984  0.11736345418654538  0.5142467762069671  1.0000
  C   C26       1.0  0.16841460692695875  0.6173640310300853  0.9857525411846026  1.0000
  C   C27       1.0  0.6684100673357134  0.8826358130419223  0.4857573084133192  1.0000
  C   C28       1.0  0.8315893460651367  0.3826372476612148  0.014243918732297797  1.0000
  C   C29       1.0  0.5440035730050353  0.5324879425719755  0.46142135716435456  1.0000
  C   C30       1.0  0.956005743553284  0.0324918930528071  0.03857908987629341  1.0000
  C   C31       1.0  0.45599903897483063  0.46751233038471435  0.5385770089276746  1.0000
  C   C32       1.0  0.044004802401644796  0.9675134086154811  0.9614232032597768  1.0000
  N   N1        1.0  0.30863609757889776  0.05394582545812199  0.5908264398880972  1.0000
  N   N2        1.0  0.19136797826480031  0.5539460531657666  0.909174131565777  1.0000
  N   N3        1.0  0.691359843458713  0.9460504245506058  0.4091767810517339  1.0000
  N   N4        1.0  0.8086412705295984  0.4460542198003452  0.09082405570205052  1.0000
  O   O1        1.0  0.33673490415249313  0.2678918064174738  0.3553461394263522  1.0000
  O   O2        1.0  0.16326465090174483  0.7678895016108243  0.14465289046400898  1.0000
  O   O3        1.0  0.6632597153882358  0.7321104780140428  0.6446563156818497  1.0000
  O   O4        1.0  0.8367393118377747  0.23211177707684527  0.8553422334445172  1.0000
  O   O5        1.0  0.3051346773018153  0.0791135404957046  0.2724083769266628  1.0000
  O   O6        1.0  0.19486241783488367  0.5791137939551162  0.227594695996288  1.0000
  O   O7        1.0  0.6948678761905569  0.9208857267449487  0.7275980052141688  1.0000
  O   O8        1.0  0.8051176309279525  0.4208874847066042  0.7724040108977874  1.0000
  O   O9        1.0  0.08222422443322587  0.6670588969522767  0.425589619974069  1.0000
  O   O10       1.0  0.41777738642434764  0.16706091721603397  0.0744106557532618  1.0000
  O   O11       1.0  0.9177770855123909  0.3329363473040416  0.5744053082539152  1.0000
  O   O12       1.0  0.5822252011840162  0.8329383500119152  0.925591050358271  1.0000
  O   O13       1.0  0.033893014879552694  0.693960692910913  0.5697731581578722  1.0000
  O   O14       1.0  0.4661065903289979  0.19395876392284347  0.9302247468580161  1.0000
  O   O15       1.0  0.9660976888578857  0.30604259722807825  0.430220319389356  1.0000
  O   O16       1.0  0.5338999764526449  0.8060435205252715  0.0697772527657889  1.0000
  O   O17       1.0  0.44633274769629594  0.5569421101772322  0.3875952453689493  1.0000
  O   O18       1.0  0.0536669295773322  0.05694224424700419  0.11239994432218478  1.0000
  O   O19       1.0  0.5536447408849056  0.4430571569698997  0.6123905737707531  1.0000
  O   O20       1.0  0.9463436114980227  0.9430610459474806  0.8876030168152197  1.0000
  O   O21       1.0  0.7087787596101832  0.5574003600522417  0.47822721550967623  1.0000
  O   O22       1.0  0.7912174430281951  0.05740473235570679  0.021771655791212693  1.0000
  O   O23       1.0  0.29119470594603303  0.4425999128422903  0.5217643221611326  1.0000
  O   O24       1.0  0.2087957605738495  0.9425995635774597  0.978230165011233  1.0000
  O   O25       1.0  0.8216637781914785  0.5279581054440355  0.311544023715399  1.0000
  O   O26       1.0  0.6783335793541169  0.02795802102184549  0.1884548619498148  1.0000
  O   O27       1.0  0.1783269060423223  0.47204216748878747  0.6884521258442929  1.0000
  O   O28       1.0  0.3216703395190592  0.9720422519443441  0.8115462739949562  1.0000
  O   O29       1.0  0.9956149416525975  0.3127201932580874  0.22961200605728035  1.0000
  O   O30       1.0  0.5043867368323376  0.8127191053970789  0.27038654653739497  1.0000
  O   O31       1.0  0.004385022418787799  0.6872780682166704  0.770385496355722  1.0000
  O   O32       1.0  0.49561584590231417  0.18728016183268886  0.7296158275783211  1.0000
