data_image0
_chemical_formula_structural       Al2H18C30S3O21
_chemical_formula_sum              "Al2 H18 C30 S3 O21"
_cell_length_a       4.180143273569616
_cell_length_b       16.923915640129714
_cell_length_c       16.924017689944883
_cell_angle_alpha    119.99656475323201
_cell_angle_beta     90.00192438273216
_cell_angle_gamma    89.99866988003255

_space_group_name_H-M_alt    "P 1"
_space_group_IT_number       1

loop_
  _space_group_symop_operation_xyz
  'x, y, z'

loop_
  _atom_site_type_symbol
  _atom_site_label
  _atom_site_symmetry_multiplicity
  _atom_site_fract_x
  _atom_site_fract_y
  _atom_site_fract_z
  _atom_site_occupancy
  Al  Al1       1.0  0.13767611412186653  0.5000052853434199  0.4999951111359593  1.0000
  Al  Al2       1.0  0.868237582720404  0.1666611158256047  0.8333330494291077  1.0000
  H   H1        1.0  0.6033746145456221  0.4231300418698895  0.853254043081357  1.0000
  H   H2        1.0  0.017129958267212  0.16452194729077269  0.5510851106083408  1.0000
  H   H3        1.0  0.4166140297850163  0.12230524134547248  0.5325482742202255  1.0000
  H   H4        1.0  0.5418750589150322  0.20929929917905815  0.45195793248751676  1.0000
  H   H5        1.0  0.14571380927921507  0.2540617926408261  0.4731783350345539  1.0000
  H   H6        1.0  0.6032521852198798  0.9301449360515052  0.5768776971395936  1.0000
  H   H7        1.0  0.01711490223568291  0.8865719287639211  0.8354965932352699  1.0000
  H   H8        1.0  0.4165903165501207  0.9102460598342362  0.8776943284173414  1.0000
  H   H9        1.0  0.5419036980041909  0.7426698620627622  0.7907027152797641  1.0000
  H   H10       1.0  0.1456982931701489  0.7191320141506808  0.7459528793540855  1.0000
  H   H11       1.0  0.6033345268899879  0.14673199142815463  0.06989498182962711  1.0000
  H   H12       1.0  0.017159514824598404  0.4489098061653323  0.11340973077013668  1.0000
  H   H13       1.0  0.4166350285872227  0.46744107366415494  0.08974030486454858  1.0000
  H   H14       1.0  0.5418850560865139  0.5480332730388682  0.2573243066220599  1.0000
  H   H15       1.0  0.1456871860501749  0.5268161597539561  0.2808578389762958  1.0000
  H   H16       1.0  0.2051082697640112  0.5902281259124891  0.7797683960616412  1.0000
  H   H17       1.0  0.20504347650796725  0.6895493930479903  0.4097832512600945  1.0000
  H   H18       1.0  0.2050682348552826  0.22022030445914711  0.31046864353638176  1.0000
  C   C1        1.0  0.6307575967040292  0.409745454723087  0.36430047885104955  1.0000
  C   C2        1.0  0.6307686977492041  0.4545617891020585  0.5902423064418088  1.0000
  C   C3        1.0  0.6307264674637594  0.6357063692158464  0.5454600804461763  1.0000
  C   C4        1.0  0.3765150978139857  0.2516511429634748  0.7823495019054578  1.0000
  C   C5        1.0  0.37654534973334103  0.03067581515027502  0.7483450002244825  1.0000
  C   C6        1.0  0.3765282198797095  0.2176663672971772  0.9693077993824633  1.0000
  C   C7        1.0  0.4264592136266857  0.30309763992085  0.7334878322610124  1.0000
  C   C8        1.0  0.5698656701635443  0.40482008730557356  0.6417073293198784  1.0000
  C   C9        1.0  0.37394274764626806  0.2674727523145606  0.640649491279227  1.0000
  C   C10       1.0  0.6112940525521182  0.44179679988338477  0.7368545619867676  1.0000
  C   C11       1.0  0.45087938007574735  0.31611134038636396  0.596275836982585  1.0000
  C   C12       1.0  0.5511129005721997  0.39195675935230423  0.7807179649255361  1.0000
  C   C13       1.0  0.26949767939472474  0.18341752602858472  0.5532911801894472  1.0000
  C   C14       1.0  0.35172254053793484  0.23862286042964337  0.5033051615839668  1.0000
  C   C15       1.0  0.4264805668492926  0.9303767209162714  0.6968951138200624  1.0000
  C   C16       1.0  0.5698161624022687  0.7369041361070928  0.595186776236396  1.0000
  C   C17       1.0  0.37391164559839046  0.8731793526090427  0.7325272624706541  1.0000
  C   C18       1.0  0.6112082354889594  0.7950570007854268  0.5581906034634159  1.0000
  C   C19       1.0  0.45085181064271046  0.7801705844936111  0.6838924664968075  1.0000
  C   C20       1.0  0.5510833124798326  0.888762392125692  0.6080350035569354  1.0000
  C   C21       1.0  0.269472379585288  0.8698774506321599  0.8165854875893004  1.0000
  C   C22       1.0  0.3517120455676945  0.7646903317335472  0.7613841232362759  1.0000
  C   C23       1.0  0.4264559995405079  0.2665071942034132  0.06961104317814198  1.0000
  C   C24       1.0  0.5698451344062009  0.3582885544255064  0.26310000578006765  1.0000
  C   C25       1.0  0.3739439159681837  0.35934451355945646  0.12681282257192095  1.0000
  C   C26       1.0  0.6112118116525096  0.263140034454402  0.2049487269311001  1.0000
  C   C27       1.0  0.45088456526767834  0.4037222004054045  0.2198224821824795  1.0000
  C   C28       1.0  0.5510790957129854  0.21927093534620215  0.11124221970798942  1.0000
  C   C29       1.0  0.2695088456468042  0.44670199817067413  0.13010913334370852  1.0000
  C   C30       1.0  0.35171289661735017  0.49669191893379155  0.2352983906440756  1.0000
  S   S1        1.0  0.7472701049815028  0.5548087545514593  0.8105458898618283  1.0000
  S   S2        1.0  0.747181682348895  0.7557406985582704  0.445179475083478  1.0000
  S   S3        1.0  0.7471837373835513  0.18946131211570366  0.24429114325985785  1.0000
  O   O1        1.0  0.8824062978460532  0.608218000247689  0.5663266594296914  1.0000
  O   O2        1.0  0.8824522833190829  0.4580969409176633  0.39178635523386873  1.0000
  O   O3        1.0  0.8824711712109946  0.43370333914729303  0.5419023872015103  1.0000
  O   O4        1.0  0.41476773885952417  0.5856274300992085  0.48976596419039714  1.0000
  O   O5        1.0  0.41482628008052563  0.5102537016398757  0.5958418455933839  1.0000
  O   O6        1.0  0.41482927260784663  0.4041275701883009  0.4143811600570046  1.0000
  O   O7        1.0  0.5921540795956091  0.1600201922372408  0.9209640490583412  1.0000
  O   O8        1.0  0.5921261852964221  0.26096014477072776  0.8400061795096718  1.0000
  O   O9        1.0  0.5921905374493762  0.07902682207469523  0.7390630561827507  1.0000
  O   O10       1.0  0.12562355178961582  0.2372950986148724  0.9398297896875648  1.0000
  O   O11       1.0  0.1255861116664647  0.0601372896263473  0.7974211295260647  1.0000
  O   O12       1.0  0.1256153309827042  0.20254607862851523  0.7627218587984218  1.0000
  O   O13       1.0  0.48084895643751935  0.618871459341186  0.8313511062678033  1.0000
  O   O14       1.0  0.9044761479253082  0.5587903061546842  0.8877996696595076  1.0000
  O   O15       1.0  0.9754017713607581  0.5712895704791878  0.7483615823546189  1.0000
  O   O16       1.0  0.4807784031138098  0.7124684154428564  0.3811085656678799  1.0000
  O   O17       1.0  0.9043101820643076  0.8290191202487165  0.4412113224447225  1.0000
  O   O18       1.0  0.9753092181185964  0.6770639232888273  0.4286918458672133  1.0000
  O   O19       1.0  0.4807915411760249  0.16864940222122737  0.287547856882533  1.0000
  O   O20       1.0  0.9043880555384831  0.11221449581725551  0.1710122397728  1.0000
  O   O21       1.0  0.9753460540568424  0.2516294630537389  0.3229532554313509  1.0000
