data_image0
_chemical_formula_structural       Hg4H56C40Br8N8
_chemical_formula_sum              "Hg4 H56 C40 Br8 N8"
_cell_length_a       7.575886576096244
_cell_length_b       11.085926584106206
_cell_length_c       15.371962313207165
_cell_angle_alpha    89.99962514787268
_cell_angle_beta     90.000468387329
_cell_angle_gamma    89.99966886154719

_space_group_name_H-M_alt    "P 1"
_space_group_IT_number       1

loop_
  _space_group_symop_operation_xyz
  'x, y, z'

loop_
  _atom_site_type_symbol
  _atom_site_label
  _atom_site_symmetry_multiplicity
  _atom_site_fract_x
  _atom_site_fract_y
  _atom_site_fract_z
  _atom_site_occupancy
  Hg  Hg1       1.0  0.04413449148322709  0.06435354834383838  0.8045582463190186  1.0000
  Hg  Hg2       1.0  0.45586200872588023  0.9356407604096759  0.3045583993599124  1.0000
  Hg  Hg3       1.0  0.9558623928062033  0.5643564585980981  0.6954414270745062  1.0000
  Hg  Hg4       1.0  0.5441406901460297  0.4356386706282578  0.1954377153166007  1.0000
  H   H1        1.0  0.18264378809094237  0.8057332904924835  0.7164151317246308  1.0000
  H   H2        1.0  0.3173486269641828  0.19427263977618028  0.21641757925721808  1.0000
  H   H3        1.0  0.8173391702821673  0.30574015167896823  0.7835827484494898  1.0000
  H   H4        1.0  0.6826587579506976  0.6942568867044442  0.2835835812629952  1.0000
  H   H5        1.0  0.45738902907080353  0.591636111238465  0.9081600980350828  1.0000
  H   H6        1.0  0.042613129715228085  0.4083590648214894  0.40816301454052717  1.0000
  H   H7        1.0  0.5426089439579157  0.09163767034773683  0.5918420483534277  1.0000
  H   H8        1.0  0.9573884805148937  0.9083574935608781  0.0918429873044744  1.0000
  H   H9        1.0  0.3590216656454928  0.7432433420163209  0.020643051119151302  1.0000
  H   H10       1.0  0.1409926192077577  0.2567481215694157  0.5206436830879256  1.0000
  H   H11       1.0  0.640981344166093  0.2432410096123547  0.479357227007192  1.0000
  H   H12       1.0  0.8590184739557146  0.7567551606345971  0.97935833223994  1.0000
  H   H13       1.0  0.1741764408168578  0.9175342592599732  0.9728681197513112  1.0000
  H   H14       1.0  0.325841298622187  0.0824639398745433  0.4728685289670267  1.0000
  H   H15       1.0  0.8258174496756894  0.41753348340328256  0.5271279301481826  1.0000
  H   H16       1.0  0.6741749538163831  0.5824658738313174  0.0271292576007198  1.0000
  H   H17       1.0  0.5105870262972375  0.5551390488005908  0.760367190437627  1.0000
  H   H18       1.0  0.9894118412539894  0.44486451380396375  0.2603685024000626  1.0000
  H   H19       1.0  0.4894072961536082  0.05514128530968781  0.7396331771070237  1.0000
  H   H20       1.0  0.0105907794905917  0.9448572186714229  0.2396321223703026  1.0000
  H   H21       1.0  0.2316384517528647  0.3684251259619061  0.6193746547902492  1.0000
  H   H22       1.0  0.26836293205471407  0.6315762694753245  0.1193722304001241  1.0000
  H   H23       1.0  0.7683637749360841  0.868425296545965  0.880628132947784  1.0000
  H   H24       1.0  0.7316410242692727  0.1315762766406152  0.3806233720534209  1.0000
  H   H25       1.0  0.44822990232147936  0.3806841937480029  0.6621477455049316  1.0000
  H   H26       1.0  0.05177086278845879  0.6193204231189211  0.1621451469607322  1.0000
  H   H27       1.0  0.5517669405421728  0.8806828984395453  0.8378543336584272  1.0000
  H   H28       1.0  0.9482345174214047  0.11931455128644328  0.3378498629914901  1.0000
  H   H29       1.0  0.2627198304087628  0.5587577292625879  0.5406497706910399  1.0000
  H   H30       1.0  0.2372736627897254  0.4412434759540033  0.0406507227531492  1.0000
  H   H31       1.0  0.7372744613817943  0.058757904428759396  0.9593512302633016  1.0000
  H   H32       1.0  0.7627329485530511  0.9412429569295779  0.4593499191506325  1.0000
  H   H33       1.0  0.4860311716240772  0.5119682448906532  0.5388756769187779  1.0000
  H   H34       1.0  0.013962292459233099  0.488034780467366  0.03887419631467989  1.0000
  H   H35       1.0  0.513962196830292  0.011965675788680102  0.961126846602923  1.0000
  H   H36       1.0  0.986042602259353  0.9880333654363723  0.4611242724813279  1.0000
  H   H37       1.0  0.33724578128565247  0.7204730398052277  0.6266853999537075  1.0000
  H   H38       1.0  0.16274384263144273  0.2795282895287984  0.1266881148793786  1.0000
  H   H39       1.0  0.6627365798757908  0.22047609067733023  0.8733161365094801  1.0000
  H   H40       1.0  0.8372614996078694  0.7795246465660525  0.3733171957689052  1.0000
  H   H41       1.0  0.5581443018883833  0.6716521063283949  0.6358520042464448  1.0000
  H   H42       1.0  0.9418446042739815  0.3283543862389919  0.13585367391437586  1.0000
  H   H43       1.0  0.44183715315803335  0.1716470900937139  0.8641484622731143  1.0000
  H   H44       1.0  0.05816164404454581  0.8283493859785338  0.3641488034652127  1.0000
  H   H45       1.0  0.1727821277431403  0.33213075029213  0.780383992864536  1.0000
  H   H46       1.0  0.327216616025666  0.6678709934006052  0.28038293759477284  1.0000
  H   H47       1.0  0.8272111667404403  0.8321339488949421  0.719618316123892  1.0000
  H   H48       1.0  0.6727830727414315  0.167865471970039  0.21961379412078233  1.0000
  H   H49       1.0  0.1887895677630667  0.4558214486858104  0.8531877103254004  1.0000
  H   H50       1.0  0.31121036968488625  0.5441787346726557  0.35318717535256633  1.0000
  H   H51       1.0  0.8112013582569588  0.9558235645718794  0.6468133625970581  1.0000
  H   H52       1.0  0.6887916875610643  0.044173808449052394  0.14681079243750617  1.0000
  H   H53       1.0  0.3855084735186054  0.3810633806023843  0.8164272039909832  1.0000
  H   H54       1.0  0.1144908611948949  0.6189380371953702  0.3164248628658584  1.0000
  H   H55       1.0  0.6144830862135393  0.8810650372189739  0.6835755238946533  1.0000
  H   H56       1.0  0.8855105623366198  0.11893290544888659  0.18357210049178724  1.0000
  C   C1        1.0  0.22193883369327244  0.7850517352743155  0.7831464938284967  1.0000
  C   C2        1.0  0.27805863540871195  0.21495088547548852  0.2831480327957081  1.0000
  C   C3        1.0  0.7780495799348658  0.28505304035272877  0.7168527853425815  1.0000
  C   C4        1.0  0.7219485741986561  0.7149409932211982  0.2168530298233264  1.0000
  C   C5        1.0  0.3252738652017512  0.6841352040863028  0.8030754334378827  1.0000
  C   C6        1.0  0.1747199707542464  0.3158681384970663  0.3030819283522419  1.0000
  C   C7        1.0  0.6747140838375786  0.18413890065980343  0.696919769701374  1.0000
  C   C8        1.0  0.825282423478413  0.8158607254177287  0.1969199575977356  1.0000
  C   C9        1.0  0.37357526744200686  0.6677355440210846  0.8903175227932678  1.0000
  C   C10       1.0  0.12642923872823528  0.3322615974659726  0.3903178884448195  1.0000
  C   C11       1.0  0.6264194205784223  0.1677357094895413  0.6096855644213974  1.0000
  C   C12       1.0  0.8735730165169926  0.832260195145615  0.1096839198870754  1.0000
  C   C13       1.0  0.31885312154665263  0.7503969304379083  0.952850546148305  1.0000
  C   C14       1.0  0.18115504988804082  0.24959784151997866  0.4528541282752059  1.0000
  C   C15       1.0  0.681144825667353  0.25039654366969444  0.5471462949554464  1.0000
  C   C16       1.0  0.8188545059304673  0.7496017305032437  0.04714742083879741  1.0000
  C   C17       1.0  0.21614240442526267  0.8479984736007397  0.9269405965702902  1.0000
  C   C18       1.0  0.2838745819861614  0.1520019448994177  0.42694050557867763  1.0000
  C   C19       1.0  0.7838560354420139  0.34799654577985706  0.5730564330456643  1.0000
  C   C20       1.0  0.7161397610403667  0.6519987879947351  0.07305630128225  1.0000
  C   C21       1.0  0.3868374365346483  0.5954084805677623  0.7352028468347243  1.0000
  C   C22       1.0  0.1131632064328301  0.404595475718054  0.2352054181699899  1.0000
  C   C23       1.0  0.6131539046058307  0.09541180600470513  0.7647973300733  1.0000
  C   C24       1.0  0.8868423956274539  0.9045863042922023  0.2647960477720375  1.0000
  C   C25       1.0  0.3296150315087658  0.4326756538089853  0.6438224594149915  1.0000
  C   C26       1.0  0.17038279321604927  0.5673255205748404  0.1438212409374202  1.0000
  C   C27       1.0  0.6703787306819179  0.9326764315419496  0.856180024154348  1.0000
  C   C28       1.0  0.8296217077670249  0.06732175452943781  0.356175966747287  1.0000
  C   C29       1.0  0.37599149794017717  0.5355558310329654  0.58187771409834  1.0000
  C   C30       1.0  0.12400531117295091  0.464445903441785  0.0818787452320393  1.0000
  C   C31       1.0  0.6240069504581385  0.03555592327145259  0.9181233966981139  1.0000
  C   C32       1.0  0.8760024234836266  0.9644417026845816  0.4181217868467826  1.0000
  C   C33       1.0  0.42044178496615087  0.6426443974893914  0.6426010932638633  1.0000
  C   C34       1.0  0.07954809988329711  0.3573594940727247  0.1426031006947639  1.0000
  C   C35       1.0  0.5795451958490929  0.14264521396729177  0.8573988600351967  1.0000
  C   C36       1.0  0.9204552626199386  0.8573529610633841  0.35739923937780566  1.0000
  C   C37       1.0  0.2519885047320045  0.4113390508937726  0.7976361558445006  1.0000
  C   C38       1.0  0.24801052189544487  0.588663438850169  0.2976351527274943  1.0000
  C   C39       1.0  0.7480054383120985  0.9113409135124756  0.7023657781911012  1.0000
  C   C40       1.0  0.7519937982197149  0.08865685924925508  0.2023613034187477  1.0000
  Br  Br1       1.0  0.07683636383977441  0.169280455243431  0.9501946433585573  1.0000
  Br  Br2       1.0  0.4232021235261528  0.8307287733522059  0.4502049179040029  1.0000
  Br  Br3       1.0  0.9231622709853652  0.6692793989252409  0.5498038828084971  1.0000
  Br  Br4       1.0  0.5768305040542926  0.3307468146819588  0.049789741814507196  1.0000
  Br  Br5       1.0  0.1602925187007358  0.0713250288072871  0.6477769215900224  1.0000
  Br  Br6       1.0  0.339718570673881  0.9286688934336382  0.1477766342644742  1.0000
  Br  Br7       1.0  0.8397095864338696  0.571323370983599  0.8522240198933275  1.0000
  Br  Br8       1.0  0.6602789073923956  0.42867665494589596  0.3522253681968834  1.0000
  N   N1        1.0  0.16848650337215787  0.8645216944672782  0.8436875890559534  1.0000
  N   N2        1.0  0.3315172382701946  0.13547947681255576  0.3436903726138283  1.0000
  N   N3        1.0  0.8314999166028726  0.3645224343062737  0.6563067601712191  1.0000
  N   N4        1.0  0.6684959248359236  0.635478461032598  0.1563078135239806  1.0000
  N   N5        1.0  0.2602717220303887  0.4931782702639608  0.7226436015627514  1.0000
  N   N6        1.0  0.239727395033313  0.5068239955039998  0.2226442531700883  1.0000
  N   N7        1.0  0.7397228472584061  0.9931821935806086  0.7773579450576663  1.0000
  N   N8        1.0  0.7602762988508402  0.0068176072344953995  0.277355192527196  1.0000
