data_image0
_chemical_formula_structural       Cd3H62C52N8O12
_chemical_formula_sum              "Cd3 H62 C52 N8 O12"
_cell_length_a       8.65691985344051
_cell_length_b       9.42035838059796
_cell_length_c       16.064
_cell_angle_alpha    93.74595941797877
_cell_angle_beta     94.96588323618455
_cell_angle_gamma    98.83231381868598

_space_group_name_H-M_alt    "P 1"
_space_group_IT_number       1

loop_
  _space_group_symop_operation_xyz
  'x, y, z'

loop_
  _atom_site_type_symbol
  _atom_site_label
  _atom_site_symmetry_multiplicity
  _atom_site_fract_x
  _atom_site_fract_y
  _atom_site_fract_z
  _atom_site_occupancy
  Cd  Cd1       1.0  0.3274242731786785  0.43284479281116717  0.7422415389046649  1.0000
  Cd  Cd2       1.0  0.6725778377322912  0.5671525230387786  0.2577561534422728  1.0000
  Cd  Cd3       1.0  0.5000007578720087  0.5000002744933028  7.617568371959105e-07  1.0000
  H   H1        1.0  0.027877951222173174  0.7411470058371917  0.4230132977363112  1.0000
  H   H2        1.0  0.9721289857891335  0.2588513877249667  0.5769859060521868  1.0000
  H   H3        1.0  0.2856935680543344  0.747511974219627  0.3610807386238974  1.0000
  H   H4        1.0  0.7143100785745562  0.2524874970547586  0.6389164854328513  1.0000
  H   H5        1.0  0.5161050040596606  0.6820765212436157  0.441358968997676  1.0000
  H   H6        1.0  0.48389516407662825  0.3179229500307699  0.5586387153018109  1.0000
  H   H7        1.0  0.5013503853008601  0.605529855259995  0.5874491176008192  1.0000
  H   H8        1.0  0.49866018747687246  0.3944760822877171  0.41254867729340117  1.0000
  H   H9        1.0  0.989750908881689  0.5737459664122468  0.7137332691004872  1.0000
  H   H10       1.0  0.010257751957730902  0.4262556602865786  0.2862661389731329  1.0000
  H   H11       1.0  0.80024829854041  0.6290476913659049  0.5106393488712939  1.0000
  H   H12       1.0  0.1997532172036003  0.3709528576207006  0.48936279715234576  1.0000
  H   H13       1.0  0.773080332045943  0.6355258195316367  0.6192560254519961  1.0000
  H   H14       1.0  0.22692851690367633  0.3644768848794087  0.38074592272681684  1.0000
  H   H15       1.0  0.9291680107813178  0.8902204712168071  0.529163302861882  1.0000
  H   H16       1.0  0.070830590800675  0.1097833109064652  0.4708375860706653  1.0000
  H   H17       1.0  0.7274631296772612  0.8586208711590047  0.53905132546641  1.0000
  H   H18       1.0  0.2725370384590208  0.1413786001153809  0.4609488488729241  1.0000
  H   H19       1.0  0.9064079524456475  0.0451572198090844  0.6486063724771967  1.0000
  H   H20       1.0  0.09358795392088129  0.954844406889748  0.351394308146503  1.0000
  H   H21       1.0  0.965641339176294  0.8961004690994016  0.6945598869922094  1.0000
  H   H22       1.0  0.0343537839130832  0.1039033130238707  0.305441462183083  1.0000
  H   H23       1.0  0.6245350975303909  0.9479384269719232  0.6639866180122098  1.0000
  H   H24       1.0  0.375460808836138  0.0520631997269021  0.3360134401015316  1.0000
  H   H25       1.0  0.6815719596462487  0.7990503280944736  0.7118014248237472  1.0000
  H   H26       1.0  0.3184229753329362  0.2009523763165788  0.2881986292662759  1.0000
  H   H27       1.0  0.7706380125983756  0.1176797083561922  0.776786981589659  1.0000
  H   H28       1.0  0.22935576288327303  0.8823229960548602  0.2232142634312098  1.0000
  H   H29       1.0  0.8464543714616823  0.9774504984559441  0.8263578815331842  1.0000
  H   H30       1.0  0.15353921590977393  0.0225511282428812  0.1736426909123736  1.0000
  H   H31       1.0  0.5772716826220687  0.8678180672605434  0.8550281851648479  1.0000
  H   H32       1.0  0.422722688026532  0.1321814040138349  0.1449717187291171  1.0000
  H   H33       1.0  0.49461589637662234  0.992679649863362  0.7938079228793525  1.0000
  H   H34       1.0  0.5053786623821779  0.007320899123243401  0.20619203107997214  1.0000
  H   H35       1.0  0.7740747941530445  0.8697935137632555  0.9872052997083074  1.0000
  H   H36       1.0  0.2259193883853641  0.1302048797989031  0.012795176630270102  1.0000
  H   H37       1.0  0.8895812699191694  0.9234797480963125  0.1352592173267482  1.0000
  H   H38       1.0  0.1104142602269746  0.0765197231780732  0.8647407406562948  1.0000
  H   H39       1.0  0.8682503351209264  0.1519175479331665  0.214913799962261  1.0000
  H   H40       1.0  0.13174867351782638  0.8480819233412191  0.7850856977780367  1.0000
  H   H41       1.0  0.7282710534770872  0.3357138233895967  0.1501393548496353  1.0000
  H   H42       1.0  0.27172312906132856  0.6642845701725619  0.8498611214889351  1.0000
  H   H43       1.0  0.4797543618977258  0.2324269617566443  0.8535781972380647  1.0000
  H   H44       1.0  0.520242703966332  0.7675746649421882  0.1464244050045878  1.0000
  H   H45       1.0  0.3099646832812439  0.9323547082435083  0.6723644079253718  1.0000
  H   H46       1.0  0.690037051409341  0.0676404521819833  0.327634429310784  1.0000
  H   H47       1.0  0.1856074861838906  0.9733088503872551  0.5847913640641096  1.0000
  H   H48       1.0  0.8143948128372714  0.0266895431749106  0.41520824587806265  1.0000
  H   H49       1.0  0.392631283518547  0.0065029155468395  0.584739567552944  1.0000
  H   H50       1.0  0.6073704511720309  0.9934922448786594  0.4152592696832116  1.0000
  H   H51       1.0  0.15599467220576463  0.2846528960290513  0.1838999532882042  1.0000
  H   H52       1.0  0.8439991341122595  0.7153433421086673  0.816101045429626  1.0000
  H   H53       1.0  0.19976184045098933  0.3609182791227568  0.08730855165599391  1.0000
  H   H54       1.0  0.8002344729722992  0.6390790367271819  0.9126938503252546  1.0000
  H   H55       1.0  0.1252880684448243  0.462393506510729  0.1679432442816378  1.0000
  H   H56       1.0  0.874710752083736  0.5376048870514367  0.8320580709231891  1.0000
  H   H57       1.0  0.06950531621257738  0.592333269103051  0.03402708543446661  1.0000
  H   H58       1.0  0.9304973590289763  0.4076672798835546  0.9659738696583277  1.0000
  H   H59       1.0  0.1196007338894205  0.722271953983153  0.12067807869805591  1.0000
  H   H60       1.0  0.8804052317345493  0.2777275172912326  0.8793204985567584  1.0000
  H   H61       1.0  0.015996520023023205  0.764622811166447  0.026113698850970497  1.0000
  H   H62       1.0  0.9840123289265964  0.23537989324459832  0.973884514268093  1.0000
  C   C1        1.0  0.1256459889978103  0.6714912318002888  0.5401543424481261  1.0000
  C   C2        1.0  0.8743613242338882  0.32850931718631665  0.45984496147107734  1.0000
  C   C3        1.0  0.1313199773959042  0.7143680125478652  0.4585875313202195  1.0000
  C   C4        1.0  0.8686852049509142  0.2856336141509601  0.5414110919762294  1.0000
  C   C5        1.0  0.27494200998261675  0.7175084659624318  0.4249874405350411  1.0000
  C   C6        1.0  0.7250602890385452  0.2824899275997339  0.5750084343473603  1.0000
  C   C7        1.0  0.4072258289810478  0.6799771378353867  0.4709336499397594  1.0000
  C   C8        1.0  0.5927756867629698  0.3200234111512188  0.529065383534082  1.0000
  C   C9        1.0  0.4007314004334929  0.6368772706578767  0.5520129044528375  1.0000
  C   C10       1.0  0.5992774485161334  0.3631254337531686  0.44798468615626064  1.0000
  C   C11       1.0  0.2571671419132713  0.6319553589405444  0.5864892951072349  1.0000
  C   C12       1.0  0.7428405475388118  0.368047345470508  0.4135082414127851  1.0000
  C   C13       1.0  0.0619709342189907  0.602862517510836  0.6635965767195698  1.0000
  C   C14       1.0  0.9380361909025154  0.3971369537635425  0.3364014321143571  1.0000
  C   C15       1.0  0.8451240037826436  0.6842287125507127  0.5722491523943987  1.0000
  C   C16       1.0  0.1548833094490476  0.3157718364358928  0.4277520190546866  1.0000
  C   C17       1.0  0.84199872543536  0.8459685296741098  0.5703811301184062  1.0000
  C   C18       1.0  0.15800279030865033  0.1540320193124955  0.42962039339527536  1.0000
  C   C19       1.0  0.8679177466758077  0.9302984333241611  0.6563039588778992  1.0000
  C   C20       1.0  0.1320771883033771  0.0697042710868914  0.3436967177220822  1.0000
  C   C21       1.0  0.7208372261928561  0.913561562518332  0.7031909213241079  1.0000
  C   C22       1.0  0.2791577087863288  0.0864411418927205  0.2968097552758735  1.0000
  C   C23       1.0  0.7444511040924624  0.0024798158225536  0.7874577828750446  1.0000
  C   C24       1.0  0.2555422951688016  0.9975207331640519  0.21254336201511853  1.0000
  C   C25       1.0  0.5981711393857125  0.9775367154336934  0.834563701921887  1.0000
  C   C26       1.0  0.4018211003780081  0.0224638335529121  0.1654367663692469  1.0000
  C   C27       1.0  0.6857062370149833  0.074548587524248  0.9865914951992778  1.0000
  C   C28       1.0  0.3142869741360883  0.9254508837501375  0.013408977115574294  1.0000
  C   C29       1.0  0.7656778571954348  0.9714778173222741  0.0214863036572979  1.0000
  C   C30       1.0  0.2343138182377089  0.028519498527664704  0.9785152594577015  1.0000
  C   C31       1.0  0.8298188202989963  0.0023785108736902  0.10451762038213991  1.0000
  C   C32       1.0  0.17017573845980394  0.9976220381129153  0.8954835785971015  1.0000
  C   C33       1.0  0.8167319559465726  0.1322169685171559  0.1500618982306747  1.0000
  C   C34       1.0  0.18326125520449918  0.8677825027572225  0.8499391965941426  1.0000
  C   C35       1.0  0.7375415610582081  0.23522793582131382  0.11501311919989383  1.0000
  C   C36       1.0  0.26245262148020737  0.7647704577408447  0.88498611211876  1.0000
  C   C37       1.0  0.6697152724025771  0.2048213631931333  0.03240849923133031  1.0000
  C   C38       1.0  0.3302789101358314  0.7951770303690324  0.9675919771072472  1.0000
  C   C39       1.0  0.5480319268130458  0.2047954980998057  0.9082575306589717  1.0000
  C   C40       1.0  0.4519661104383559  0.7952050508867998  0.0917444530974407  1.0000
  C   C41       1.0  0.2955852195206887  0.0084449529706703  0.6245342836087886  1.0000
  C   C42       1.0  0.7044167032800885  0.9915512851670484  0.37546460369271983  1.0000
  C   C43       1.0  0.3033441454773538  0.1596889307651566  0.6640685579884504  1.0000
  C   C44       1.0  0.6966587487107673  0.8403062296603423  0.3359334458865746  1.0000
  C   C45       1.0  0.20271086041267242  0.38287558793138027  0.1552719290033764  1.0000
  C   C46       1.0  0.7972875838954963  0.6171206502063384  0.8447292860707523  1.0000
  C   C47       1.0  0.3663511296951043  0.4411496431929862  0.1949589013573387  1.0000
  C   C48       1.0  0.6336475027232567  0.5588476726569525  0.8050429862921007  1.0000
  C   C49       1.0  0.029214774820346182  0.681147533308355  0.0693694116215227  1.0000
  C   C50       1.0  0.9707869290338564  0.3188540933904775  0.9306296719176642  1.0000
  C   C51       1.0  0.8734009946740995  0.6273869368319893  0.1019370297399576  1.0000
  C   C52       1.0  0.1266018686776462  0.3726146898668432  0.898063352908224  1.0000
  N   N1        1.0  0.2128324650592717  0.5890678010707475  0.6634708472914924  1.0000
  N   N2        1.0  0.7871752243928114  0.4109349033403049  0.3365266892285348  1.0000
  N   N3        1.0  0.004324032864317884  0.6533080711926971  0.591838518287318  1.0000
  N   N4        1.0  0.9956832803673806  0.3466924777939084  0.4081601631219272  1.0000
  N   N5        1.0  0.5826196834870814  0.2833014449028042  0.9811824539213917  1.0000
  N   N6        1.0  0.417376034769255  0.7166991040838013  0.0188187991469135  1.0000
  N   N7        1.0  0.6071373897492124  0.0792775887538681  0.9079743237231525  1.0000
  N   N8        1.0  0.3928546619043233  0.9207218825205175  0.0920267170125868  1.0000
  O   O1        1.0  0.2181342461028777  0.24385071130858899  0.6311374527148531  1.0000
  O   O2        1.0  0.7818628505975626  0.7561444491169027  0.3688680157745665  1.0000
  O   O3        1.0  0.3996794462092979  0.2002949718612257  0.72946208484813  1.0000
  O   O4        1.0  0.6003307811844252  0.799702343988713  0.2705359861223116  1.0000
  O   O5        1.0  0.393831582876345  0.45995787688927686  0.2738494994457596  1.0000
  O   O6        1.0  0.6061662971012467  0.540035128111775  0.7261534329621923  1.0000
  O   O7        1.0  0.4777109539078879  0.472122014737657  0.14711349227599868  1.0000
  O   O8        1.0  0.5222882736774254  0.5278720679756148  0.8528876767565023  1.0000
  O   O9        1.0  0.7511841305582722  0.6193687579011851  0.0513388043448799  1.0000
  O   O10       1.0  0.24882064473177934  0.3806371796465342  0.9486618326537836  1.0000
  O   O11       1.0  0.877929442550638  0.5944348079357198  0.17813180121635241  1.0000
  O   O12       1.0  0.12207821606507001  0.4055743627486592  0.8218690941565114  1.0000
