data_image0
_chemical_formula_structural       Na4H8C4N20O12
_chemical_formula_sum              "Na4 H8 C4 N20 O12"
_cell_length_a       6.465471165138464
_cell_length_b       6.465262274088594
_cell_length_c       15.060823038247309
_cell_angle_alpha    90.00110443773433
_cell_angle_beta     90.00173137749614
_cell_angle_gamma    95.07271889090279

_space_group_name_H-M_alt    "P 1"
_space_group_IT_number       1

loop_
  _space_group_symop_operation_xyz
  'x, y, z'

loop_
  _atom_site_type_symbol
  _atom_site_label
  _atom_site_symmetry_multiplicity
  _atom_site_fract_x
  _atom_site_fract_y
  _atom_site_fract_z
  _atom_site_occupancy
  Na  Na1       1.0  0.5871103388811533  0.26743354064470287  0.5376731186056816  1.0000
  Na  Na2       1.0  0.2672583273688645  0.5872779176495443  0.4623490599974858  1.0000
  Na  Na3       1.0  0.2674522982701645  0.5871202384272466  0.0376690823615959  1.0000
  Na  Na4       1.0  0.5872756309148315  0.26723907241927247  0.9623457934739648  1.0000
  H   H1        1.0  0.618408377099783  0.39600255425365566  0.36016568030321133  1.0000
  H   H2        1.0  0.3958076665972641  0.6186498985861635  0.6398477017545616  1.0000
  H   H3        1.0  0.39602247255337636  0.6184113028654609  0.8601656749988464  1.0000
  H   H4        1.0  0.6186417662332244  0.3957998068121711  0.1398497001582513  1.0000
  H   H5        1.0  0.43993400644091446  0.21664599333597323  0.35450059977892323  1.0000
  H   H6        1.0  0.21649711437600416  0.4401385807445947  0.645521308896825  1.0000
  H   H7        1.0  0.2166637808607632  0.43993423543080473  0.8544992642434721  1.0000
  H   H8        1.0  0.4401388842369726  0.21648101253147442  0.1455193255203753  1.0000
  C   C1        1.0  0.9159914502367528  0.9162007598228216  0.499994432089828  1.0000
  C   C2        1.0  0.9162121106761345  0.9159937339777002  0.999988356154134  1.0000
  C   C3        1.0  0.7261590935596374  0.1481812023211972  0.7499959557499453  1.0000
  C   C4        1.0  0.1481401059693397  0.7261711016294968  0.2499978984246383  1.0000
  N   N1        1.0  0.07941894531310818  0.0796419605811636  0.50000147171869  1.0000
  N   N2        1.0  0.07965269176752088  0.07940998117820902  0.9999947317894851  1.0000
  N   N3        1.0  0.7178863872312177  0.9464838940689052  0.4827630471815567  1.0000
  N   N4        1.0  0.9463058584724136  0.7180896329526264  0.5172232354589212  1.0000
  N   N5        1.0  0.9464887399459982  0.7178711654128166  0.9827502513401996  1.0000
  N   N6        1.0  0.7181005651779981  0.9462924557635333  0.0172247446947438  1.0000
  N   N7        1.0  0.6203961379244729  0.7577826212654204  0.4896728374623862  1.0000
  N   N8        1.0  0.7576212831357552  0.6205701890544121  0.5103128306576394  1.0000
  N   N9        1.0  0.7577929538294581  0.6203754416070383  0.9896624643272175  1.0000
  N   N10       1.0  0.6205873938079165  0.7575987803468253  0.0103105891388466  1.0000
  N   N11       1.0  0.8194276605449884  0.2221208113162234  0.6755029989914334  1.0000
  N   N12       1.0  0.22196233709667015  0.819533024119821  0.3244967493655864  1.0000
  N   N13       1.0  0.22209454368724835  0.8194290497083688  0.1755048923030955  1.0000
  N   N14       1.0  0.8195438697794869  0.2219915118000557  0.8244961847049055  1.0000
  N   N15       1.0  0.5536518131942784  0.9920261620632403  0.7499978282869081  1.0000
  N   N16       1.0  0.9919768099025388  0.5536680100334693  0.24999705770258626  1.0000
  N   N17       1.0  0.9795838297208306  0.34594806094778363  0.7053689057793164  1.0000
  N   N18       1.0  0.3458511017036301  0.979640334623085  0.294634087963452  1.0000
  N   N19       1.0  0.34592894387353806  0.9795785851998532  0.2053726981500219  1.0000
  N   N20       1.0  0.9796538469267373  0.3458735835506843  0.7946296320480498  1.0000
  O   O1        1.0  0.2562638085799803  0.034503892405311404  0.5206162553135343  1.0000
  O   O2        1.0  0.0343408892162032  0.25646900742661677  0.4793988171108907  1.0000
  O   O3        1.0  0.03451187356257181  0.25627648347990123  0.0206144612799761  1.0000
  O   O4        1.0  0.2564522993231577  0.034330283043338704  0.979393308316304  1.0000
  O   O5        1.0  0.48064101931620223  0.3521829953470075  0.3837767780711019  1.0000
  O   O6        1.0  0.3520046361285409  0.48086322489306355  0.6162332010142038  1.0000
  O   O7        1.0  0.3522017213263594  0.48063366320521067  0.8837736930436435  1.0000
  O   O8        1.0  0.48086682571808836  0.35199780738961556  0.11623163933864329  1.0000
  O   O9        1.0  0.4860535856738365  0.9277108772502415  0.6767414456802996  1.0000
  O   O10       1.0  0.9274436632525963  0.4862829074279206  0.3232379888507921  1.0000
  O   O11       1.0  0.9276255252410832  0.4861149357543724  0.1767360356178855  1.0000
  O   O12       1.0  0.4862938105470177  0.9274718741182326  0.823241408136397  1.0000
