data_image0
_chemical_formula_structural       Zn2H28C36N8O8F12
_chemical_formula_sum              "Zn2 H28 C36 N8 O8 F12"
_cell_length_a       9.761619254032219
_cell_length_b       11.264580773102352
_cell_length_c       11.586184804849777
_cell_angle_alpha    98.84195841360258
_cell_angle_beta     108.02864558429887
_cell_angle_gamma    112.86751363047546

_space_group_name_H-M_alt    "P 1"
_space_group_IT_number       1

loop_
  _space_group_symop_operation_xyz
  'x, y, z'

loop_
  _atom_site_type_symbol
  _atom_site_label
  _atom_site_symmetry_multiplicity
  _atom_site_fract_x
  _atom_site_fract_y
  _atom_site_fract_z
  _atom_site_occupancy
  Zn  Zn1       1.0  0.15802063571128852  0.16630148864472014  0.3762241880347262  1.0000
  Zn  Zn2       1.0  0.8419789124141842  0.83369747210083  0.6237758136292798  1.0000
  H   H1        1.0  0.38196583117970556  0.21945713854161394  0.21244437728888246  1.0000
  H   H2        1.0  0.6180331501386362  0.7805408065716364  0.787552735878592  1.0000
  H   H3        1.0  0.43244346461090527  0.6181123258107063  0.2914249724751627  1.0000
  H   H4        1.0  0.5675555716721943  0.38188764979248185  0.7085759104758015  1.0000
  H   H5        1.0  0.24262842364709059  0.4706349041607751  0.4059114019195891  1.0000
  H   H6        1.0  0.7573716892031327  0.5293650709124477  0.5940888982128173  1.0000
  H   H7        1.0  0.6507938551169302  0.5604750107772462  0.22418620406664064  1.0000
  H   H8        1.0  0.34920574519679787  0.4395259787187412  0.775814114010004  1.0000
  H   H9        1.0  0.47076754715580177  0.4975948934108557  0.08229214702550541  1.0000
  H   H10       1.0  0.529233642261552  0.5024050811323945  0.9177075702883359  1.0000
  H   H11       1.0  0.3430162394435072  0.2490534021824189  0.9442370366866373  1.0000
  H   H12       1.0  0.6569844374373445  0.7509475867836031  0.05576269857144214  1.0000
  H   H13       1.0  0.6841266273730254  0.09331670949638489  0.9582168555318735  1.0000
  H   H14       1.0  0.315873485477205  0.906683265576838  0.041783444600526014  1.0000
  H   H15       1.0  0.8169906714469163  0.4518321173394284  0.25416062442846515  1.0000
  H   H16       1.0  0.18300836483619065  0.5481678582637598  0.7458402585224989  1.0000
  H   H17       1.0  0.5985722212757522  0.09349333049861738  0.6997871540955816  1.0000
  H   H18       1.0  0.4014278915744782  0.9065066445746054  0.30021314603681765  1.0000
  H   H19       1.0  0.4947458923121529  0.15982331957219026  0.4769442873599702  1.0000
  H   H20       1.0  0.5052542205380702  0.8401766555010325  0.523056012772429  1.0000
  H   H21       1.0  0.15341631124704236  0.10203799216196778  0.6431351694874154  1.0000
  H   H22       1.0  0.8465838016031882  0.8979619829112553  0.3568651306449911  1.0000
  H   H23       1.0  0.25301528129433837  0.0126461757946785  0.812473921087083  1.0000
  H   H24       1.0  0.7469848315558918  0.987353799278544  0.18752637904531602  1.0000
  H   H25       1.0  0.3993762131541486  0.9582237416581804  0.8084124369443659  1.0000
  H   H26       1.0  0.6006249762632051  0.041776232885076994  0.19158728036946834  1.0000
  H   H27       1.0  0.8876117339761151  0.28026020031926885  0.16047425910704777  1.0000
  H   H28       1.0  0.11238730161285568  0.719739774849046  0.8395257605012038  1.0000
  C   C1        1.0  0.3701752137774861  0.30741149621565717  0.25005851199470197  1.0000
  C   C2        1.0  0.629824951955122  0.6925905080428764  0.7499429678930414  1.0000
  C   C3        1.0  0.4405736009487099  0.1398076243596478  0.5449730028947145  1.0000
  C   C4        1.0  0.5594265125956425  0.8601923511484484  0.4550281605804046  1.0000
  C   C5        1.0  0.5002019602483257  0.15855616634696898  0.9397119674670267  1.0000
  C   C6        1.0  0.49979758787714695  0.8414427943985813  0.060288034196979465  1.0000
  C   C7        1.0  0.013311200799222421  0.2876115790309158  0.49570103318043846  1.0000
  C   C8        1.0  0.9866834199799756  0.712384338147153  0.5042955048205118  1.0000
  C   C9        1.0  0.7679238117301563  0.2732376743656388  0.11334886193839114  1.0000
  C   C10       1.0  0.23207573639531645  0.7267612863799117  0.886651139725622  1.0000
  C   C11       1.0  0.4625152491543715  0.25596789789261715  0.9922724121057843  1.0000
  C   C12       1.0  0.5374849158841145  0.7440341059310499  0.007728204439253352  1.0000
  C   C13       1.0  0.2594669036871124  0.11063370468656332  0.6259549548797809  1.0000
  C   C14       1.0  0.740533209163118  0.8893662703866596  0.37404534525261834  1.0000
  C   C15       1.0  0.8629183980152104  0.2814826325386193  0.5204986241702658  1.0000
  C   C16       1.0  0.13708171483502002  0.7185173425346038  0.47950167596214055  1.0000
  C   C17       1.0  0.09890908559489742  0.9310509812920458  0.2052182594526429  1.0000
  C   C18       1.0  0.9010926678530848  0.0689500071440108  0.7947808929868787  1.0000
  C   C19       1.0  0.653911816607639  0.16798433302646026  0.000655186870943662  1.0000
  C   C20       1.0  0.34608721898133155  0.8320156421418617  0.9993448327373076  1.0000
  C   C21       1.0  0.3765419307547261  0.0464016292202132  0.8169946653449361  1.0000
  C   C22       1.0  0.6234587468202617  0.953599360180682  0.18300593325585623  1.0000
  C   C23       1.0  0.4931747104422183  0.10738532455957277  0.6541236391790194  1.0000
  C   C24       1.0  0.506823248579629  0.8926146511387149  0.3458769632477898  1.0000
  C   C25       1.0  0.5764213934351047  0.3620046059992106  0.10512473362913975  1.0000
  C   C26       1.0  0.4235792834457469  0.6379963829668113  0.8948750016289397  1.0000
  C   C27       1.0  0.729448130509553  0.3697255002839482  0.16580933085847255  1.0000
  C   C28       1.0  0.2705514704983045  0.6302754896469125  0.8341918505608777  1.0000
  C   C29       1.0  0.5378748848734248  0.4695592856526432  0.15919621358012392  1.0000
  C   C30       1.0  0.4621247147461815  0.5304417034084707  0.8408032411538076  1.0000
  C   C31       1.0  0.9999159725262242  0.7780886699478983  0.12342510344797827  1.0000
  C   C32       1.0  8.413962987671569e-05  0.2219113046904511  0.8765743333417081  1.0000
  C   C33       1.0  0.2985351422600715  0.44081026496171216  0.34748279653862824  1.0000
  C   C34       1.0  0.7014644051712792  0.5591886953489648  0.6525163417826648  1.0000
  C   C35       1.0  0.3932086511790089  0.5144224159567727  0.29260274615536036  1.0000
  C   C36       1.0  0.6067914616712216  0.4855775591164502  0.7073975539770462  1.0000
  N   N1        1.0  0.3768215384903754  0.08877048655863008  0.703331426241036  1.0000
  N   N2        1.0  0.6231774970985953  0.911229488609692  0.2966685933672083  1.0000
  N   N3        1.0  0.2844458009598583  0.31162710443819464  0.31974438871520766  1.0000
  N   N4        1.0  0.7155548223444868  0.6883718549076434  0.6802533034448148  1.0000
  N   N5        1.0  0.4375121736624692  0.4289932675741142  0.23212230161221475  1.0000
  N   N6        1.0  0.5624873744630036  0.5710056931714361  0.7678777000517913  1.0000
  N   N7        1.0  0.2948597308722326  0.14162664434994093  0.5285491631215182  1.0000
  N   N8        1.0  0.7051403812838682  0.858373330288408  0.47145027366816816  1.0000
  O   O1        1.0  0.24235846131280445  0.9923591479627093  0.21888282048360014  1.0000
  O   O2        1.0  0.7576400589631617  0.0076418398888904  0.7811137636980379  1.0000
  O   O3        1.0  0.017217374414485575  0.9775342755023143  0.24793590033142013  1.0000
  O   O4        1.0  0.9827821737109873  0.022464685243235697  0.7520641013325862  1.0000
  O   O5        1.0  0.9743650039886373  0.18624186903941356  0.4021535000626742  1.0000
  O   O6        1.0  0.025635674280465502  0.8137591207963552  0.597847961880831  1.0000
  O   O7        1.0  0.1493953137403992  0.3820469322900876  0.5667613546930215  1.0000
  O   O8        1.0  0.8506102897926053  0.6179570998085495  0.43324098088540114  1.0000
  F   F1        1.0  0.8103143652089881  0.18070429118337467  0.5732556815250762  1.0000
  F   F2        1.0  0.18968790216375445  0.8192956836996571  0.4267451796556332  1.0000
  F   F3        1.0  0.7344028707232794  0.2539865690444074  0.4114156048732626  1.0000
  F   F4        1.0  0.26559780754583073  0.7460144207913614  0.5885858570702427  1.0000
  F   F5        1.0  0.09487627139064615  0.7159408653763677  0.13068961709436885  1.0000
  F   F6        1.0  0.9051249702149634  0.28406113791732673  0.8693104166321038  1.0000
  F   F7        1.0  0.8790549140691012  0.70569036962344  0.15831451600973181  1.0000
  F   F8        1.0  0.1209451987811221  0.29430960544978285  0.8416857841226746  1.0000
  F   F9        1.0  0.8973909399093001  0.3988398779824464  0.6030626257261249  1.0000
  F   F10       1.0  0.10261132676930625  0.6011600964657119  0.3969373721118643  1.0000
  F   F11       1.0  0.9268093214665354  0.7666777864330995  0.9974243250149046  1.0000
  F   F12       1.0  0.07319186795081832  0.23332218811015792  0.0025753922989367097  1.0000
