data_image0
_chemical_formula_structural       Zn6P4H40C44O28
_chemical_formula_sum              "Zn6 P4 H40 C44 O28"
_cell_length_a       8.912178271447408
_cell_length_b       11.2106756537033
_cell_length_c       14.745575155993665
_cell_angle_alpha    112.32456534918671
_cell_angle_beta     105.18913850734242
_cell_angle_gamma    90.00366621003796

_space_group_name_H-M_alt    "P 1"
_space_group_IT_number       1

loop_
  _space_group_symop_operation_xyz
  'x, y, z'

loop_
  _atom_site_type_symbol
  _atom_site_label
  _atom_site_symmetry_multiplicity
  _atom_site_fract_x
  _atom_site_fract_y
  _atom_site_fract_z
  _atom_site_occupancy
  Zn  Zn1       1.0  0.7500184144150028  0.6803588319374613  2.4436247514896883e-06  1.0000
  Zn  Zn2       1.0  0.24998442111444058  0.31964112422814145  0.999995594487018  1.0000
  Zn  Zn3       1.0  0.5733131685465837  0.9014836002258519  0.097072271711916  1.0000
  Zn  Zn4       1.0  0.9266606212980123  0.8044890277369418  0.9029322617969698  1.0000
  Zn  Zn5       1.0  0.42668824956025736  0.0985144136361953  0.9029256606999213  1.0000
  Zn  Zn6       1.0  0.0733424687274891  0.1955128688471319  0.0970656984708  1.0000
  P   P1        1.0  0.5704879605159264  0.820387921569875  0.8607091046085101  1.0000
  P   P2        1.0  0.9295344644472223  0.9596015849121996  0.13933684487352585  1.0000
  P   P3        1.0  0.4295133293345259  0.17960912195469803  0.13928852744434292  1.0000
  P   P4        1.0  0.07046746466843962  0.040400310043260404  0.8606616104122651  1.0000
  H   H1        1.0  0.29743231083801897  0.7416881025082701  0.7930752315421827  1.0000
  H   H2        1.0  0.20261385601641282  0.9486456075313259  0.20704143795427402  1.0000
  H   H3        1.0  0.702567681779321  0.2583079680242549  0.20691988092184496  1.0000
  H   H4        1.0  0.7973897490513481  0.051360170659144416  0.7929584023113919  1.0000
  H   H5        1.0  0.38128305379066774  0.7384222090651279  0.6947547774246986  1.0000
  H   H6        1.0  0.11867470352161999  0.043532421534671094  0.30534467057270825  1.0000
  H   H7        1.0  0.6187205558627298  0.2615748374601666  0.3052411860301305  1.0000
  H   H8        1.0  0.8813261929405911  0.9564704421296567  0.694654580090095  1.0000
  H   H9        1.0  0.3413206404084476  0.5644052753021782  0.8612327027810167  1.0000
  H   H10       1.0  0.15885252630081229  0.7031616505950781  0.13883122787363078  1.0000
  H   H11       1.0  0.6586807696314948  0.43559273753390937  0.1387625153829504  1.0000
  H   H12       1.0  0.841149398781411  0.2968402438474058  0.8611658702882323  1.0000
  H   H13       1.0  0.5405351452195148  0.228120390289675  0.6993161198947818  1.0000
  H   H14       1.0  0.9595403843238302  0.5284821177197189  0.3006139394309315  1.0000
  H   H15       1.0  0.45945644233227506  0.7718737253462464  0.300674392795827  1.0000
  H   H16       1.0  0.04046270771839031  0.4715197791208397  0.6993846993988058  1.0000
  H   H17       1.0  0.5220464820989578  0.5567753023596964  0.6149792616969948  1.0000
  H   H18       1.0  0.9778966725945111  0.9413985276102393  0.3850357618009213  1.0000
  H   H19       1.0  0.4779487224888825  0.4432197892690085  0.3850121019844154  1.0000
  H   H20       1.0  0.022105382760820195  0.0586043374262104  0.6149623152818934  1.0000
  H   H21       1.0  0.7296383043081746  0.035737005331277806  0.4815962622615046  1.0000
  H   H22       1.0  0.7703445105513396  0.5538096522981135  0.5184911177909797  1.0000
  H   H23       1.0  0.27036260884000995  0.9642571282068108  0.518403182962274  1.0000
  H   H24       1.0  0.2296552189508746  0.44619320896813985  0.4815065922039495  1.0000
  H   H25       1.0  0.748238862335448  0.1678946160532178  0.443911748764819  1.0000
  H   H26       1.0  0.7515390137052549  0.723547652996487  0.5559158819245056  1.0000
  H   H27       1.0  0.2517668287586262  0.8321004951062537  0.5560880524317329  1.0000
  H   H28       1.0  0.2484609682762837  0.2764571484317386  0.4440810716644492  1.0000
  H   H29       1.0  0.5545321531796505  0.9836741954541778  0.3039739414383504  1.0000
  H   H30       1.0  0.9451207771748997  0.6796779726098308  0.696109432680295  1.0000
  H   H31       1.0  0.44547262141703214  0.016322853212706396  0.6960228841223853  1.0000
  H   H32       1.0  0.0548766244574779  0.3203248846297414  0.3038872316647883  1.0000
  H   H33       1.0  0.4596448978944565  0.124946908680748  0.3500865991370361  1.0000
  H   H34       1.0  0.03993906488801  0.7748098461303528  0.6499133401257637  1.0000
  H   H35       1.0  0.5403601372484345  0.8750520811740685  0.6499121842656025  1.0000
  H   H36       1.0  0.9600607948873119  0.22519398572986657  0.3500853487901168  1.0000
  H   H37       1.0  0.441787877618971  0.9949055139488011  0.3895508941103146  1.0000
  H   H38       1.0  0.0581668262784589  0.6054107665404587  0.6107336361705507  1.0000
  H   H39       1.0  0.5582148276373644  0.005093471622842599  0.6104461650805035  1.0000
  H   H40       1.0  0.9418318725870305  0.39459306369114705  0.3892655477633582  1.0000
  C   C1        1.0  0.39942276721971137  0.7172637017675784  0.7634945199775629  1.0000
  C   C2        1.0  0.10061185308472893  0.953683064907459  0.2366065799360868  1.0000
  C   C3        1.0  0.6005772253976289  0.2827323687649468  0.23650059248646477  1.0000
  C   C4        1.0  0.8993912389574846  0.0463188319330996  0.7633920588936436  1.0000
  C   C5        1.0  0.4290897341887643  0.5777141563169792  0.7412075101769773  1.0000
  C   C6        1.0  0.07100375287974708  0.8363545490159368  0.258854263211802  1.0000
  C   C7        1.0  0.5709045720521858  0.42228287512753593  0.25878698492633134  1.0000
  C   C8        1.0  0.9289994613686902  0.1636483173926351  0.7411426402910095  1.0000
  C   C9        1.0  0.39756697273328717  0.5156854111371986  0.8016154601780698  1.0000
  C   C10       1.0  0.10254856164953452  0.7139864187840815  0.19842285419596106  1.0000
  C   C11       1.0  0.6024305617411161  0.4843096847746723  0.19837762771516051  1.0000
  C   C12       1.0  0.8974559498320146  0.2860174206165311  0.8015765688956832  1.0000
  C   C13       1.0  0.4404215743823343  0.3909640658044963  0.7875745689123407  1.0000
  C   C14       1.0  0.059701494969829114  0.6032691284724124  0.212460526687444  1.0000
  C   C15       1.0  0.5595746689091214  0.6090300578848016  0.21241803507796667  1.0000
  C   C16       1.0  0.9403003018560058  0.3967317956325972  0.7875362711154353  1.0000
  C   C17       1.0  0.50950724260197  0.32527545727511153  0.7103523701593915  1.0000
  C   C18       1.0  0.9905788163199885  0.6146608465883788  0.28964654296741094  1.0000
  C   C19       1.0  0.490487966019316  0.6747196348665626  0.2896403506459606  1.0000
  C   C20       1.0  0.009425436632064108  0.38534105188079343  0.7103516008442982  1.0000
  C   C21       1.0  0.5365640503267741  0.38471599410248564  0.6473577156847129  1.0000
  C   C22       1.0  0.9634555478971834  0.7370135512837876  0.35261797026389974  1.0000
  C   C23       1.0  0.4634261177856871  0.6152761789733887  0.3526320127439959  1.0000
  C   C24       1.0  0.0365490837738633  0.2629912574283395  0.6473790389388512  1.0000
  C   C25       1.0  0.49904981194096365  0.5112819940623795  0.6641448965864498  1.0000
  C   C26       1.0  0.0009876990451332074  0.8468181062116785  0.3358752010929323  1.0000
  C   C27       1.0  0.5009442297203179  0.4887130956812199  0.3358462835510209  1.0000
  C   C28       1.0  0.9990120264236354  0.1531847545415985  0.664121151778069  1.0000
  C   C29       1.0  0.6010862870130113  0.3149376244106463  0.5602849771867895  1.0000
  C   C30       1.0  0.8989100841521065  0.7542854028920019  0.4396935440626634  1.0000
  C   C31       1.0  0.3989015572630521  0.6850545451515232  0.43970506271600834  1.0000
  C   C32       1.0  0.10108693069438598  0.24571454307864118  0.5603015406435007  1.0000
  C   C33       1.0  0.41229250023904745  0.32666722893866057  0.8541049006111905  1.0000
  C   C34       1.0  0.087784876707957  0.47250744268464456  0.1459155028264831  1.0000
  C   C35       1.0  0.5877041298382935  0.6733298060195593  0.14588928301802886  1.0000
  C   C36       1.0  0.9122147225211493  0.5274944479876426  0.8540812282474946  1.0000
  C   C37       1.0  0.667553209136031  0.10951482727429614  0.4598459120443935  1.0000
  C   C38       1.0  0.8323478705751413  0.6493252762003792  0.5401385436878314  1.0000
  C   C39       1.0  0.33245235370165466  0.8904793135477008  0.5401535887931743  1.0000
  C   C40       1.0  0.16765082022345718  0.35067855300527384  0.45985792599820746  1.0000
  C   C41       1.0  0.5218652697815714  0.05031917118225951  0.37080580809138314  1.0000
  C   C42       1.0  0.977907185297269  0.6794306927530017  0.6292882080072247  1.0000
  C   C43       1.0  0.4781395088485496  0.9496778779976084  0.6291923745932878  1.0000
  C   C44       1.0  0.0220915095347749  0.3205731369656277  0.3707096188027493  1.0000
  O   O1        1.0  0.5810910784340776  0.7841194049084661  0.955972716767931  1.0000
  O   O2        1.0  0.9189790193253556  0.8281431546668401  0.04407379154480391  1.0000
  O   O3        1.0  0.4189135699229353  0.21587667367743538  0.044024486995795135  1.0000
  O   O4        1.0  0.08102278153391751  0.17185776995114577  0.9559243633820103  1.0000
  O   O5        1.0  0.5586713953891405  0.9652852984265367  0.891676622318187  1.0000
  O   O6        1.0  0.9413064519414505  0.07358856066198172  0.10838944587337103  1.0000
  O   O7        1.0  0.44132162975247985  0.034710762077850205  0.10832078169203642  1.0000
  O   O8        1.0  0.058698839714217944  0.9264123698677839  0.8916099382472353  1.0000
  O   O9        1.0  0.7108498535613492  0.7793365125234363  0.81918949444934  1.0000
  O   O10       1.0  0.7891274508886211  0.959994306513316  0.18080456853834903  1.0000
  O   O11       1.0  0.28915156454549157  0.22066150133861132  0.1808084379624901  1.0000
  O   O12       1.0  0.2108755108804914  0.040006619733276204  0.819193091370437  1.0000
  O   O13       1.0  0.6240595845259094  0.1920987613323746  0.5505804968927778  1.0000
  O   O14       1.0  0.8759301294521152  0.6411521023985571  0.4494162014869972  1.0000
  O   O15       1.0  0.37594170330782367  0.8078982819357068  0.4494164565981081  1.0000
  O   O16       1.0  0.124073339292373  0.35885270442847883  0.5505806241718147  1.0000
  O   O17       1.0  0.6276652962809236  0.3620464210548917  0.5023899693992817  1.0000
  O   O18       1.0  0.8723643475294339  0.859284330741353  0.49757081263607017  1.0000
  O   O19       1.0  0.3723173792299264  0.6379418591039965  0.49759677776788896  1.0000
  O   O20       1.0  0.12762672039445278  0.14071463495334768  0.5024216968674864  1.0000
  O   O21       1.0  0.3170700960214888  0.37551565663369507  0.9067097310451473  1.0000
  O   O22       1.0  0.1829183979250431  0.4687970270186952  0.09325136946484489  1.0000
  O   O23       1.0  0.6829344220624166  0.6244794513582335  0.0932864937976278  1.0000
  O   O24       1.0  0.8170774539948978  0.5312029170668566  0.90674353169738  1.0000
  O   O25       1.0  0.48476876829214877  0.22855567538376678  0.8540091385237858  1.0000
  O   O26       1.0  0.015358554643988486  0.37448197291182334  0.14604404744519428  1.0000
  O   O27       1.0  0.5152323852350306  0.7714403967773721  0.14598547892221345  1.0000
  O   O28       1.0  0.984641054668735  0.6255199190429083  0.853956076438621  1.0000
