data_image0
_chemical_formula_structural       Zn2H12C22N10O8
_chemical_formula_sum              "Zn2 H12 C22 N10 O8"
_cell_length_a       7.270098625017678
_cell_length_b       8.366848998223691
_cell_length_c       10.038809396455278
_cell_angle_alpha    96.67411715036252
_cell_angle_beta     94.12257775220894
_cell_angle_gamma    106.535541289302

_space_group_name_H-M_alt    "P 1"
_space_group_IT_number       1

loop_
  _space_group_symop_operation_xyz
  'x, y, z'

loop_
  _atom_site_type_symbol
  _atom_site_label
  _atom_site_symmetry_multiplicity
  _atom_site_fract_x
  _atom_site_fract_y
  _atom_site_fract_z
  _atom_site_occupancy
  Zn  Zn1       1.0  0.20792822116698764  0.017063782020002798  0.08586874485106219  1.0000
  Zn  Zn2       1.0  0.7920737162646815  0.9829363796730135  0.9141313858947343  1.0000
  H   H1        1.0  0.24986476611982764  0.4642372686274143  0.6793039746532017  1.0000
  H   H2        1.0  0.7501330346260315  0.5357628943642538  0.3206959582534878  1.0000
  H   H3        1.0  0.2510571129405291  0.7530063758126601  0.7883144592699123  1.0000
  H   H4        1.0  0.7489411152289518  0.2469950468639013  0.21168562115341416  1.0000
  H   H5        1.0  0.24425875320321205  0.9734608898105889  0.6388241893140361  1.0000
  H   H6        1.0  0.755742653541922  0.0265417957898535  0.36117517445877206  1.0000
  H   H7        1.0  0.2451905984926412  0.6506508328575293  0.293689983258453  1.0000
  H   H8        1.0  0.7548063540444828  0.3493468066595823  0.7063106506748511  1.0000
  H   H9        1.0  0.19979093866355413  0.5844421141675015  0.003864138669825898  1.0000
  H   H10       1.0  0.8002078069154307  0.41555679281111674  0.996134716606683  1.0000
  H   H11       1.0  0.24343375187314825  0.9125364634752345  0.4096030148837356  1.0000
  H   H12       1.0  0.7565663792396221  0.08746243896575832  0.5903969023990427  1.0000
  C   C1        1.0  0.2541788555297586  0.3707030829386468  0.4113103395896687  1.0000
  C   C2        1.0  0.7458230885404259  0.6292970746496207  0.5886907872160307  1.0000
  C   C3        1.0  0.25244369293086066  0.5341632426037464  0.47865158571378436  1.0000
  C   C4        1.0  0.7475550592866396  0.46583566027013745  0.5213482656226275  1.0000
  C   C5        1.0  0.25296937627419414  0.5656175554782975  0.6193618591851616  1.0000
  C   C6        1.0  0.7470293693047905  0.43438135150032753  0.3806369960913543  1.0000
  C   C7        1.0  0.2502101699755599  0.7232463444570172  0.6799455173469227  1.0000
  C   C8        1.0  0.7497894370891913  0.2767550777866603  0.3200546290227777  1.0000
  C   C9        1.0  0.24681437718663088  0.8471346248638907  0.6001119504830753  1.0000
  C   C10       1.0  0.7531875536065227  0.1528655409338668  0.399887184202818  1.0000
  C   C11       1.0  0.24757291031709625  0.6629012384713349  0.4028566407884924  1.0000
  C   C12       1.0  0.7524258352618957  0.33709766850729045  0.5971422144880166  1.0000
  C   C13       1.0  0.126421688788234  0.2577398513954348  0.8964055726953575  1.0000
  C   C14       1.0  0.8735792838947627  0.7422615786248626  0.10359264750090345  1.0000
  C   C15       1.0  0.49263483376096656  0.15838758881349685  0.9033193576876214  1.0000
  C   C16       1.0  0.5073671036706954  0.8416125728795194  0.09668077305817487  1.0000
  C   C17       1.0  0.3305521350458348  0.5454328604877077  0.0014724241581092015  1.0000
  C   C18       1.0  0.6694460931236461  0.4545685621888538  0.9985276562652244  1.0000
  C   C19       1.0  0.3201085659802629  0.37986089880262597  0.9526661432326051  1.0000
  C   C20       1.0  0.6798924000642259  0.6201405353224062  0.0473310809037599  1.0000
  C   C21       1.0  0.4921376114304863  0.3343420242711233  0.9515389893660426  1.0000
  C   C22       1.0  0.5078619889957563  0.6656594020773027  0.04846016094375468  1.0000
  N   N1        1.0  0.23570263854628584  0.3291274616486887  0.2761872796429188  1.0000
  N   N2        1.0  0.7642965477333516  0.6708726968053469  0.7238137152700402  1.0000
  N   N3        1.0  0.24152606194417092  0.17088092663762208  0.259302664307917  1.0000
  N   N4        1.0  0.7584735451205872  0.8291204956060624  0.7406974820617762  1.0000
  N   N5        1.0  0.2629892443335533  0.1175943618593109  0.3784285110473178  1.0000
  N   N6        1.0  0.7370099419460912  0.882405796594725  0.6215724838656413  1.0000
  N   N7        1.0  0.27127808612890186  0.24119991209322927  0.47608779448353994  1.0000
  N   N8        1.0  0.7287206727271138  0.7587989866759062  0.5239130529127749  1.0000
  N   N9        1.0  0.24469577978963736  0.8126787433679539  0.46542697216643336  1.0000
  N   N10       1.0  0.7553047787467617  0.1873214187579393  0.5345730926329963  1.0000
  O   O1        1.0  0.3488825469999809  0.03477617094208091  0.9198250511225012  1.0000
  O   O2        1.0  0.6511166260026329  0.9652239957214447  0.08017395167065189  1.0000
  O   O3        1.0  0.6390284890661703  0.1406545120916505  0.8487075085850151  1.0000
  O   O4        1.0  0.3609743931986315  0.85934439358833  0.15129154453060067  1.0000
  O   O5        1.0  0.037031853820288105  0.16448717389716452  0.9818200753694909  1.0000
  O   O6        1.0  0.9629700836113811  0.8355129877958519  0.018180055376305387  1.0000
  O   O7        1.0  0.0617842014216237  0.2546632840139864  0.7783462884604262  1.0000
  O   O8        1.0  0.9382141100952309  0.745334367384487  0.22165142323953552  1.0000
