data_image0
_chemical_formula_structural       Al2H14C18N2O12
_chemical_formula_sum              "Al2 H14 C18 N2 O12"
_cell_length_a       6.674302627896681
_cell_length_b       8.882543250840495
_cell_length_c       15.252418752046848
_cell_angle_alpha    72.92345237260542
_cell_angle_beta     78.04418885594978
_cell_angle_gamma    74.90143157782231

_space_group_name_H-M_alt    "P 1"
_space_group_IT_number       1

loop_
  _space_group_symop_operation_xyz
  'x, y, z'

loop_
  _atom_site_type_symbol
  _atom_site_label
  _atom_site_symmetry_multiplicity
  _atom_site_fract_x
  _atom_site_fract_y
  _atom_site_fract_z
  _atom_site_occupancy
  Al  Al1       1.0  0.5041657590699486  0.49753436782633303  0.4983721706296009  1.0000
  Al  Al2       1.0  0.0025311355002556515  0.5023400106401681  0.4985230448253475  1.0000
  H   H1        1.0  0.2629474284427501  0.33426487132943095  0.5994431831224816  1.0000
  H   H2        1.0  0.7116022947890882  0.6966410638231009  0.42515001703592503  1.0000
  H   H3        1.0  0.14158712031490953  0.5614749720507817  0.04659274265603837  1.0000
  H   H4        1.0  0.8138892817312069  0.5575727318102253  0.9359948089322003  1.0000
  H   H5        1.0  0.3481215269756887  0.4006274417252983  0.7804672587055919  1.0000
  H   H6        1.0  0.25117994979303376  0.39542975505519007  0.9474501690277889  1.0000
  H   H7        1.0  0.6987642080876525  0.40741741774453993  0.24571748881163563  1.0000
  H   H8        1.0  0.7942438286291917  0.3910430681831869  0.08174717312098775  1.0000
  H   H9        1.0  0.2260972883964527  0.13719893499762756  0.48307055876097144  1.0000
  H   H10       1.0  0.7920565983329905  0.8632248227642665  0.5177163764841808  1.0000
  H   H11       1.0  0.95823799703944  0.5733059942543549  0.2845674055217629  1.0000
  H   H12       1.0  0.89116969281514  0.5963083045634292  0.17562109350218688  1.0000
  H   H13       1.0  0.005142041512662844  0.5532792998593904  0.6975113921278294  1.0000
  H   H14       1.0  0.04817942879662238  0.5923984599975114  0.7970276989346843  1.0000
  C   C1        1.0  0.6756391790818768  0.48109409689562443  0.6644590860142188  1.0000
  C   C2        1.0  0.8511349526900743  0.21432457719485845  0.5064406600784395  1.0000
  C   C3        1.0  0.33143107385655657  0.5083473507192267  0.33548322795812874  1.0000
  C   C4        1.0  0.16103353286760572  0.7881497622998808  0.4905168968714619  1.0000
  C   C5        1.0  0.11026780510380971  0.9592761013238444  0.49201653518703387  1.0000
  C   C6        1.0  0.9046413009752713  0.04252097098811451  0.5061733399023467  1.0000
  C   C7        1.0  0.3705723722887058  0.4956757749903532  0.23928217114180944  1.0000
  C   C8        1.0  0.6331373812897071  0.48004237411041106  0.763232602153174  1.0000
  C   C9        1.0  0.20714747668350242  0.5341285497642544  0.18364750605866934  1.0000
  C   C10       1.0  0.26546414276695157  0.5260212622067472  0.09012279741885718  1.0000
  C   C11       1.0  0.7710688073791301  0.5224953323948968  0.8077133053272121  1.0000
  C   C12       1.0  0.7115703399970741  0.5209713124559909  0.90244406063605  1.0000
  C   C13       1.0  0.447231976309105  0.43700404753681715  0.8155115336527602  1.0000
  C   C14       1.0  0.3922315493376799  0.435597622371077  0.9082833286165339  1.0000
  C   C15       1.0  0.5790170643804942  0.4441225767059437  0.20022574799290993  1.0000
  C   C16       1.0  0.6321456765580038  0.4361193312323124  0.1089516421561711  1.0000
  C   C17       1.0  0.4729985232370026  0.4802552250074116  0.051887380799115604  1.0000
  C   C18       1.0  0.5263107773754568  0.4789262717908401  0.9530601435474892  1.0000
  N   N1        1.0  0.0013702766765532552  0.5825411099784077  0.21559998327062863  1.0000
  N   N2        1.0  0.9505513171015565  0.5706525189894476  0.7617617424963612  1.0000
  O   O1        1.0  0.5216965353881947  0.48928855203013905  0.6242895022679705  1.0000
  O   O2        1.0  0.0040932834415343695  0.2847133953788444  0.4970543233758207  1.0000
  O   O3        1.0  0.13964150451860033  0.5357264871917452  0.3748557405508421  1.0000
  O   O4        1.0  0.3523232819980606  0.7177572798100937  0.4800067441265057  1.0000
  O   O5        1.0  0.48807394553936234  0.49429962099122093  0.3754650653336356  1.0000
  O   O6        1.0  0.004813251425183228  0.7203043497893589  0.500172754918438  1.0000
  O   O7        1.0  0.8666611127070851  0.4724183007932936  0.623910582375963  1.0000
  O   O8        1.0  0.6590335213753137  0.28172175854418663  0.5159618357773752  1.0000
  O   O9        1.0  0.2568197189898172  0.42283890082964576  0.544310555013169  1.0000
  O   O10       1.0  0.7466730029385786  0.5815615405622123  0.45303416565523963  1.0000
  O   O11       1.0  0.2800020692486526  0.023448042428107427  0.4792985790617337  1.0000
  O   O12       1.0  0.7352918378109476  0.9777046831130108  0.5198668889679539  1.0000
