data_image0
_chemical_formula_structural       Zr6H82C138O32
_chemical_formula_sum              "Zr6 H82 C138 O32"
_cell_length_a       19.99952174175648
_cell_length_b       20.01808121364974
_cell_length_c       20.14784618862222
_cell_angle_alpha    92.71431368386021
_cell_angle_beta     91.94458447946404
_cell_angle_gamma    92.86756645872975

_space_group_name_H-M_alt    "P 1"
_space_group_IT_number       1

loop_
  _space_group_symop_operation_xyz
  'x, y, z'

loop_
  _atom_site_type_symbol
  _atom_site_label
  _atom_site_symmetry_multiplicity
  _atom_site_fract_x
  _atom_site_fract_y
  _atom_site_fract_z
  _atom_site_occupancy
  Zr  Zr1       1.0  0.1875635668215878  0.13351790171439143  0.040790683942105894  1.0000
  Zr  Zr2       1.0  0.22624381214811248  0.9961897956983565  0.1358397663435156  1.0000
  Zr  Zr3       1.0  0.0213277017084934  0.06761228738026398  0.015381990447110595  1.0000
  Zr  Zr4       1.0  0.09105933183666791  0.09460482859973497  0.1789646149427284  1.0000
  Zr  Zr5       1.0  0.1558217182152433  0.9684362603325807  0.9729222629331744  1.0000
  Zr  Zr6       1.0  0.05955211016128459  0.9299589195172826  0.11098281934312128  1.0000
  H   H1        1.0  0.08556864890429948  0.4102525351671814  0.7134086408025906  1.0000
  H   H2        1.0  0.0921548311801459  0.625131190386398  0.7324582697608477  1.0000
  H   H3        1.0  0.058157783105997396  0.5084624771262369  0.9035778567387351  1.0000
  H   H4        1.0  0.19002320560254296  0.5591830323479241  0.25066038435339516  1.0000
  H   H5        1.0  0.13944163975386908  0.43790145601770547  0.41466364009402656  1.0000
  H   H6        1.0  0.14398493367632167  0.6525010070639679  0.4386621875774068  1.0000
  H   H7        1.0  0.955694568538341  0.9667221726748068  0.5589900803377219  1.0000
  H   H8        1.0  0.7766911125637178  0.984274166436499  0.66984431032337  1.0000
  H   H9        1.0  0.7650870581287634  0.9779692980827047  0.45587274023277047  1.0000
  H   H10       1.0  0.2970197540061434  0.08788842112517868  0.5966142446505102  1.0000
  H   H11       1.0  0.46424402892288436  0.034771315467935396  0.47918132656150886  1.0000
  H   H12       1.0  0.4849645058295663  0.04822115164908778  0.692358899002599  1.0000
  H   H13       1.0  0.5009223778117614  0.6681818267139192  0.04387515783687227  1.0000
  H   H14       1.0  0.7160512499176689  0.6929865733543535  0.049157207476980595  1.0000
  H   H15       1.0  0.5960367966802451  0.8596020722975696  0.007243078490802224  1.0000
  H   H16       1.0  0.7459894531226609  0.39849193102647706  0.10838635520653375  1.0000
  H   H17       1.0  0.531210436740345  0.3698784698595716  0.10200996028055437  1.0000
  H   H18       1.0  0.6542759818684374  0.20386158403972837  0.13781592366586176  1.0000
  H   H19       1.0  0.2296570670087874  0.13375598360657648  0.1763822476949386  1.0000
  H   H20       1.0  0.11859530099786036  0.08987863411278599  0.9194272116476297  1.0000
  H   H21       1.0  0.9665956004532602  0.029518578268117296  0.13699065477265995  1.0000
  H   H22       1.0  0.178558400210207  0.8729330946590321  0.07046396410328978  1.0000
  H   H23       1.0  0.7626167409776556  0.23210056261473258  0.2286776938137862  1.0000
  H   H24       1.0  0.8004277417716282  0.3028808116091212  0.034279167564783095  1.0000
  H   H25       1.0  0.9056565820212866  0.24132563349868255  0.032076721711319985  1.0000
  H   H26       1.0  0.8719982405107272  0.1769068221614702  0.22939033729513617  1.0000
  H   H27       1.0  0.48056650028343034  0.2901954428497148  0.0345473376063907  1.0000
  H   H28       1.0  0.5524387627252594  0.1717131491659813  0.1926270137294708  1.0000
  H   H29       1.0  0.4462371039676184  0.10078732222936539  0.18264317331971108  1.0000
  H   H30       1.0  0.3735906827669382  0.22183443113953413  0.027953400137143095  1.0000
  H   H31       1.0  0.6979933319799938  0.8869779573842107  0.9501749724014273  1.0000
  H   H32       1.0  0.7674627773151881  0.774841361513097  0.11404179928444338  1.0000
  H   H33       1.0  0.8750484553857233  0.8421431386110851  0.11863957005339634  1.0000
  H   H34       1.0  0.8047662199219516  0.9572088556201381  0.9581071431920093  1.0000
  H   H35       1.0  0.4488540574250521  0.7647773076612837  0.11454498024713189  1.0000
  H   H36       1.0  0.48816610615167383  0.8350847104288659  0.9202528663435314  1.0000
  H   H37       1.0  0.38071453234474006  0.8936977824295624  0.92017950467838  1.0000
  H   H38       1.0  0.3459593213762843  0.8299178289833404  0.11746156987170756  1.0000
  H   H39       1.0  0.7009884840154471  0.6201515850258517  0.13147559422154123  1.0000
  H   H40       1.0  0.5317022814045983  0.5634038754086603  0.9993343309433341  1.0000
  H   H41       1.0  0.5445743724746136  0.44506444162936987  0.022692808084194382  1.0000
  H   H42       1.0  0.7138637936352622  0.5017360838690196  0.15488169779794694  1.0000
  H   H43       1.0  0.2698964381739231  0.008405218491390098  0.6771486229774836  1.0000
  H   H44       1.0  0.42913758660921525  0.13795269719555847  0.76809140467018  1.0000
  H   H45       1.0  0.3674388981038632  0.1435210404809055  0.8737850563338154  1.0000
  H   H46       1.0  0.21119103557725086  0.010199765694856897  0.7838990409190456  1.0000
  H   H47       1.0  0.4180813317874125  0.0790070411606365  0.4037596629772437  1.0000
  H   H48       1.0  0.23779528118829765  0.05837053863636751  0.5146112580917688  1.0000
  H   H49       1.0  0.169700698883517  0.062268830332918385  0.4104098945415443  1.0000
  H   H50       1.0  0.34947172157197304  0.07316685168953542  0.2994853433309288  1.0000
  H   H51       1.0  0.9844950168430555  0.908139098590212  0.6521415550675086  1.0000
  H   H52       1.0  0.8478375337330916  0.047926595778591284  0.7329408848451989  1.0000
  H   H53       1.0  0.914649227167203  0.05609735148749449  0.8392393399797055  1.0000
  H   H54       1.0  0.0526559188403581  0.9192022829774587  0.7583967185915198  1.0000
  H   H55       1.0  0.8349168842897469  0.8945847072044374  0.3846049494748199  1.0000
  H   H56       1.0  0.971630640277759  0.047836311014556494  0.47584392934626146  1.0000
  H   H57       1.0  0.031191867965795005  0.05490853305135351  0.369447501916042  1.0000
  H   H58       1.0  0.8980212212430982  0.8986535680492976  0.2796913191327093  1.0000
  H   H59       1.0  0.6888584585403094  0.058792460807907794  0.4842004117154417  1.0000
  H   H60       1.0  0.6729461658841629  0.9327077201407047  0.650988991279682  1.0000
  H   H61       1.0  0.5547736758582287  0.9597307043535394  0.6612787299862147  1.0000
  H   H62       1.0  0.5707008970901909  0.08562029905539248  0.4944190361526778  1.0000
  H   H63       1.0  0.2703946027559141  0.6687337686015126  0.27428907669158775  1.0000
  H   H64       1.0  0.07177688347161389  0.7025829808499819  0.3401838308295523  1.0000
  H   H65       1.0  0.07081043299773168  0.8070043280568056  0.2774802954752572  1.0000
  H   H66       1.0  0.2718289962565308  0.7770761660545061  0.21757287514801496  1.0000
  H   H67       1.0  0.18959824414888257  0.3647087895654407  0.3667076887468212  1.0000
  H   H68       1.0  0.15326578688082293  0.4748273223475579  0.1910843105130269  1.0000
  H   H69       1.0  0.15461472755835357  0.36974499434631974  0.12176004214156677  1.0000
  H   H70       1.0  0.18061817584855078  0.2593544817566381  0.2980241254609409  1.0000
  H   H71       1.0  0.0799240579894871  0.5916363120337423  0.9602593932428292  1.0000
  H   H72       1.0  0.055353495423680996  0.7020144421224115  0.782659026802932  1.0000
  H   H73       1.0  0.06292499555160448  0.8073895740435046  0.8514006543925489  1.0000
  H   H74       1.0  0.07761751592469318  0.6968798292655689  0.028636143458136584  1.0000
  H   H75       1.0  0.9954703528462543  0.3360508208455996  0.7843551116877306  1.0000
  H   H76       1.0  0.14939819563305431  0.42915936580559594  0.9174925220486755  1.0000
  H   H77       1.0  0.15315488326849894  0.32421477630469286  0.9792473771679225  1.0000
  H   H78       1.0  0.9958292182983541  0.23284905194812208  0.849733279733549  1.0000
  H   H79       1.0  0.1673182015308043  0.44253543618953717  0.6374254561605779  1.0000
  H   H80       1.0  0.037260412636889784  0.6073482747701815  0.6303159224019338  1.0000
  H   H81       1.0  0.06080635875741789  0.6191539287939348  0.5121333937548583  1.0000
  H   H82       1.0  0.19085623579861988  0.4543866596440862  0.5192579010331784  1.0000
  C   C1        1.0  0.0727505356006901  0.4532487356575813  0.812227579859389  1.0000
  C   C2        1.0  0.08181477662295579  0.4564041161001029  0.7438036384872787  1.0000
  C   C3        1.0  0.08773472087273149  0.5187433468148938  0.7146465311043427  1.0000
  C   C4        1.0  0.08365358784860179  0.5772794181619857  0.7550974588584082  1.0000
  C   C5        1.0  0.0724635876480946  0.5755874469346763  0.8234612129177632  1.0000
  C   C6        1.0  0.0672777523570076  0.5125966595092137  0.8509030775416304  1.0000
  C   C7        1.0  0.16651486969301735  0.6122869095917309  0.34125387264072055  1.0000
  C   C8        1.0  0.1764937575994097  0.5541206201349808  0.3021839114287062  1.0000
  C   C9        1.0  0.16682044580780794  0.49033366527838507  0.3274430912589352  1.0000
  C   C10       1.0  0.1498892098977151  0.48663849161645334  0.39431818553736514  1.0000
  C   C11       1.0  0.142483430076922  0.5440757084300641  0.4354949961231609  1.0000
  C   C12       1.0  0.14950707079655248  0.6069709364424368  0.40779283148916784  1.0000
  C   C13       1.0  0.8637823737541267  0.9705073739639899  0.5006712423371339  1.0000
  C   C14       1.0  0.9014256714543691  0.9693758558038323  0.5605496292039405  1.0000
  C   C15       1.0  0.8707458854827903  0.9737910265828232  0.6219517858429596  1.0000
  C   C16       1.0  0.8011607323135336  0.979509117123001  0.622435608386503  1.0000
  C   C17       1.0  0.7623070443920452  0.9815466225246396  0.56340073766561  1.0000
  C   C18       1.0  0.7942507780457858  0.9760875594821455  0.5024741502244723  1.0000
  C   C19       1.0  0.3870889217239295  0.06757257079789979  0.6509920225949485  1.0000
  C   C20       1.0  0.3486934304347073  0.07387577019055408  0.5922899596516372  1.0000
  C   C21       1.0  0.3753473846992392  0.06352429600170238  0.529433449601825  1.0000
  C   C22       1.0  0.4426659785642641  0.046973673985902985  0.5269039979948218  1.0000
  C   C23       1.0  0.4829750739521756  0.0422172131821767  0.584622302883929  1.0000
  C   C24       1.0  0.45462877390954043  0.05274346351160367  0.6468770920929927  1.0000
  C   C25       1.0  0.5417584574475782  0.7660367949866397  0.0218551919558791  1.0000
  C   C26       1.0  0.5466805433789544  0.699066800773032  0.037932841943913276  1.0000
  C   C27       1.0  0.609416847079629  0.6718561112190713  0.04785064103290888  1.0000
  C   C28       1.0  0.6670401737345699  0.7138518094729847  0.042972552744615186  1.0000
  C   C29       1.0  0.6634485145481364  0.7815165237023222  0.028485146422177386  1.0000
  C   C30       1.0  0.6002921881206973  0.8066878652321202  0.016332383948935075  1.0000
  C   C31       1.0  0.7069586377825559  0.2990908548061455  0.12686267229087628  1.0000
  C   C32       1.0  0.7007609123987208  0.36651950352833745  0.11313905870559178  1.0000
  C   C33       1.0  0.6374991765916462  0.39287875405813816  0.10415555652762978  1.0000
  C   C34       1.0  0.580571925089643  0.34964539861548616  0.10742901446388228  1.0000
  C   C35       1.0  0.5853137687859159  0.2814674705485913  0.11921337619155278  1.0000
  C   C36       1.0  0.6490389968894448  0.25705377061173357  0.13059338614620225  1.0000
  C   C37       1.0  0.0805450548107629  0.21080293657662003  0.9562050958809463  1.0000
  C   C38       1.0  0.3359496912417938  0.12078221476780733  0.10110968352371687  1.0000
  C   C39       1.0  0.157895716420235  0.24178015061055183  0.16727877550509615  1.0000
  C   C40       1.0  0.24852706749081924  0.07281152881711248  0.8981422439108327  1.0000
  C   C41       1.0  0.16561175305895395  0.8574423215737067  0.20189820143592382  1.0000
  C   C42       1.0  0.91350536455716  0.9406045400139218  0.04349178941536988  1.0000
  C   C43       1.0  0.21701576439993178  0.06054705366621959  0.2831873439653733  1.0000
  C   C44       1.0  0.29865393641751575  0.9082704837572348  0.02639612621204179  1.0000
  C   C45       1.0  0.02643291122713259  0.9965884554912633  0.87011003685366  1.0000
  C   C46       1.0  0.9534004565835587  0.16236531845485297  0.12327445357217208  1.0000
  C   C47       1.0  0.004149694037721484  0.9857505326195052  0.25551044493079894  1.0000
  C   C48       1.0  0.0818372475802889  0.8241262269931938  0.9828414612090763  1.0000
  C   C49       1.0  0.7947091251545186  0.23517822241706904  0.18608828290911106  1.0000
  C   C50       1.0  0.7738086585709995  0.27042409615462765  0.13111618062222158  1.0000
  C   C51       1.0  0.8161223681420963  0.2752987988250268  0.07706748465533758  1.0000
  C   C52       1.0  0.8751073771074684  0.24155944600580878  0.07588542169715848  1.0000
  C   C53       1.0  0.8949637575732368  0.20525025085446907  0.13044661108635577  1.0000
  C   C54       1.0  0.8556964711706669  0.20416874845881947  0.18662026678300944  1.0000
  C   C55       1.0  0.47278534565950275  0.24973362531270024  0.06829111614675298  1.0000
  C   C56       1.0  0.5237771493635391  0.23709696713113712  0.11524453019030997  1.0000
  C   C57       1.0  0.5136974626069915  0.18234868476211114  0.15573112988013793  1.0000
  C   C58       1.0  0.454153621706034  0.14267913599746146  0.1506036861602524  1.0000
  C   C59       1.0  0.40293496531658946  0.1574256640617619  0.10521795724417159  1.0000
  C   C60       1.0  0.41326057930531584  0.21107617390676833  0.06364375963164547  1.0000
  C   C61       1.0  0.7363428770652901  0.8777161753668279  0.9879643153251151  1.0000
  C   C62       1.0  0.725495378624842  0.8249742659830516  0.030739649941963883  1.0000
  C   C63       1.0  0.7759716839271462  0.8136243084502012  0.07860963743055999  1.0000
  C   C64       1.0  0.8357911399544946  0.8517152790919622  0.0820831433197853  1.0000
  C   C65       1.0  0.8468105461670205  0.9035006374978418  0.03844828889152297  1.0000
  C   C66       1.0  0.7961893135048257  0.9169105166571894  0.9918936565394458  1.0000
  C   C67       1.0  0.43378624458625836  0.7927919933226804  0.0718427741841268  1.0000
  C   C68       1.0  0.475844727364894  0.7963768198740198  0.0175314650513627  1.0000
  C   C69       1.0  0.4560449867766039  0.8326670134367259  0.962868500357075  1.0000
  C   C70       1.0  0.3961604326436685  0.8656061888971036  0.9626754629412203  1.0000
  C   C71       1.0  0.3570974805225475  0.8654434625178453  0.018965658342530396  1.0000
  C   C72       1.0  0.376133961571874  0.8285626624266627  0.07340347034790536  1.0000
  C   C73       1.0  0.6670409981017329  0.5817778749122411  0.10662118008430348  1.0000
  C   C74       1.0  0.6155826135183915  0.6009302000298786  0.06330894184296199  1.0000
  C   C75       1.0  0.5711423546408909  0.5503047792710801  0.034408370632455394  1.0000
  C   C76       1.0  0.5784711906271909  0.48342540243530857  0.04765038528505977  1.0000
  C   C77       1.0  0.6302751084425892  0.4641469036721444  0.09053421105191717  1.0000
  C   C78       1.0  0.6743545910028813  0.5148789216144252  0.1198879145465241  1.0000
  C   C79       1.0  0.2911063896606124  0.0384410981149657  0.7200777827720656  1.0000
  C   C80       1.0  0.3535493262855596  0.07310363202092417  0.7152010189951026  1.0000
  C   C81       1.0  0.38090987002946247  0.11053091534040502  0.7712740140796868  1.0000
  C   C82       1.0  0.3464572602987914  0.11392578909154587  0.8304535032491457  1.0000
  C   C83       1.0  0.28532137272627267  0.07753209343154308  0.8351300161292485  1.0000
  C   C84       1.0  0.25808042039422213  0.039508498256587594  0.779406778344544  1.0000
  C   C85       1.0  0.36372936514482745  0.07365706817142839  0.40598230036440697  1.0000
  C   C86       1.0  0.3336285459419841  0.06771911140827308  0.46773151214313896  1.0000
  C   C87       1.0  0.2630682562136498  0.06414829737148149  0.46798569149169117  1.0000
  C   C88       1.0  0.2242498049297268  0.06555178886568311  0.40932673459497687  1.0000
  C   C89       1.0  0.2552646107742902  0.06757203900451002  0.3481990949411297  1.0000
  C   C90       1.0  0.3254450885141082  0.0717899394826205  0.3471904867850455  1.0000
  C   C91       1.0  0.9694451793506998  0.9413495838856744  0.6928432697646726  1.0000
  C   C92       1.0  0.9110085934326122  0.9770024818002834  0.684930088011299  1.0000
  C   C93       1.0  0.8918436031011437  0.018383361394711493  0.7385946457785123  1.0000
  C   C94       1.0  0.9293426631723349  0.02377033356640369  0.7978777387881308  1.0000
  C   C95       1.0  0.9876801514300837  0.9882625816506869  0.8053833564872332  1.0000
  C   C96       1.0  0.007505090050734994  0.9469725236455487  0.7522845021790728  1.0000
  C   C97       1.0  0.878412956819865  0.9292754768840013  0.3815187560522588  1.0000
  C   C98       1.0  0.899178226841407  0.970749754932342  0.4373762865749668  1.0000
  C   C99       1.0  0.9556665620538212  0.014870447282916598  0.43295802957149476  1.0000
  C   C100      1.0  0.9891229899480364  0.018868328716614296  0.37402115740738395  1.0000
  C   C101      1.0  0.9684937937984868  0.9769364367284081  0.318539641663726  1.0000
  C   C102      1.0  0.9135738904689106  0.9313210899739063  0.3229086714098627  1.0000
  C   C103      1.0  0.6593030509790977  0.0357170475608797  0.5223542698783135  1.0000
  C   C104      1.0  0.6900914311668059  0.9936695074935071  0.5668081624185176  1.0000
  C   C105      1.0  0.6509443932639414  0.9669450865843101  0.6168371647173527  1.0000
  C   C106      1.0  0.5842342022301705  0.9823593395670613  0.6228122446434199  1.0000
  C   C107      1.0  0.5537022714402012  0.0250257737088617  0.5788209613115213  1.0000
  C   C108      1.0  0.5925971988518555  0.0510379363192968  0.5282586539198704  1.0000
  C   C109      1.0  0.22711362889775438  0.6997929227343176  0.2761107827888765  1.0000
  C   C110      1.0  0.17086429889697996  0.678235463663867  0.3108365327338162  1.0000
  C   C111      1.0  0.11571813543334028  0.7190221968667528  0.31346454422481423  1.0000
  C   C112      1.0  0.11510636506400827  0.7774323803708539  0.2789299750339538  1.0000
  C   C113      1.0  0.17120785277141687  0.7983247880386697  0.24381872847914815  1.0000
  C   C114      1.0  0.22800815972762922  0.7601722010554824  0.24419760314511046  1.0000
  C   C115      1.0  0.18032872240890188  0.36653752135268286  0.3132484798699338  1.0000
  C   C116      1.0  0.1707476758032911  0.4283779260838543  0.2847034713177407  1.0000
  C   C117      1.0  0.16220353342195176  0.4282258938179098  0.21501768617784475  1.0000
  C   C118      1.0  0.16207935266299237  0.3689900316790826  0.17561542582940595  1.0000
  C   C119      1.0  0.16737175512854208  0.3076321616285894  0.20535121908049794  1.0000
  C   C120      1.0  0.1767855040592252  0.3071247614252215  0.2746898714247124  1.0000
  C   C121      1.0  0.07380340612282049  0.6382595145140613  0.9354736306187802  1.0000
  C   C122      1.0  0.06880591683522401  0.6380111583737148  0.86549962663436  1.0000
  C   C123      1.0  0.061955352457445705  0.7000036089286114  0.8364010731112685  1.0000
  C   C124      1.0  0.0647739448430045  0.7594907530302918  0.8748019181534231  1.0000
  C   C125      1.0  0.07081889797166949  0.7588957708549839  0.9443172026463454  1.0000
  C   C126      1.0  0.07323156750241108  0.6975523648226697  0.9745594661949255  1.0000
  C   C127      1.0  0.029683070736666692  0.33361246051947546  0.8274285842732995  1.0000
  C   C128      1.0  0.0721462483349455  0.38963894877485217  0.8468205691873506  1.0000
  C   C129      1.0  0.115675710492269  0.38608921058934687  0.9027430867191198  1.0000
  C   C130      1.0  0.11775558573073398  0.3280330417875276  0.9374348437064768  1.0000
  C   C131      1.0  0.0743061538051677  0.2726767797172868  0.9185728109972046  1.0000
  C   C132      1.0  0.029691984568813695  0.27597135591847893  0.8638596510467805  1.0000
  C   C133      1.0  0.1427887154367369  0.4806685664435902  0.6098922051214757  1.0000
  C   C134      1.0  0.10044183912980031  0.524035360329961  0.6430693475064899  1.0000
  C   C135      1.0  0.0717421682734596  0.5740813211619269  0.606344407470864  1.0000
  C   C136      1.0  0.08502637030710501  0.5807507378235925  0.53954277484263  1.0000
  C   C137      1.0  0.12754929445276988  0.537529608026972  0.5063807716045827  1.0000
  C   C138      1.0  0.15607247125746676  0.487391055533031  0.5430992659489318  1.0000
  O   O1        1.0  0.0312633269918408  0.16872973303209446  0.9595349841610312  1.0000
  O   O2        1.0  0.3256598701721528  0.06621880046377268  0.12969426979211107  1.0000
  O   O3        1.0  0.1822187960709911  0.23242655466432183  0.11044566141853099  1.0000
  O   O4        1.0  0.24788403011208965  0.12153211646706545  0.9406137698924579  1.0000
  O   O5        1.0  0.2177285707206735  0.015202043340487097  0.9026847606822058  1.0000
  O   O6        1.0  0.12413366743349032  0.19761293727459156  0.19871252980667006  1.0000
  O   O7        1.0  0.2911606473157278  0.15081446254490058  0.0678956503831003  1.0000
  O   O8        1.0  0.13934398913199428  0.20530522100212778  0.9828134768304861  1.0000
  O   O9        1.0  0.20647260503455553  0.032920917315358594  0.043510695659229284  1.0000
  O   O10       1.0  0.09411131146234199  0.11548462464392625  0.07920608937671147  1.0000
  O   O11       1.0  0.1991529659993745  0.10494761850475239  0.14808603522401848  1.0000
  O   O12       1.0  0.1205993743086964  0.07359929166749168  0.963978809780059  1.0000
  O   O13       1.0  0.2161783357595651  0.8965842333764938  0.1931509501789677  1.0000
  O   O14       1.0  0.9236580929442295  0.9958950111823551  0.016044160529965268  1.0000
  O   O15       1.0  0.161003577063795  0.08682524544676078  0.27531965147096565  1.0000
  O   O16       1.0  0.2575713337167755  0.9153921702611425  0.9781979548259017  1.0000
  O   O17       1.0  0.08155107034191639  0.9686261600403584  0.8783507422347299  1.0000
  O   O18       1.0  0.993086430916577  0.1535068198275624  0.1722378778984606  1.0000
  O   O19       1.0  0.004624791022962384  0.93793048097703  0.21176058806766207  1.0000
  O   O20       1.0  0.0584732257814551  0.833198319523966  0.0401988141060983  1.0000
  O   O21       1.0  0.031920108900145294  0.044566172436347494  0.25082232998097  1.0000
  O   O22       1.0  0.1178538561723812  0.8672410709291255  0.9524524779969993  1.0000
  O   O23       1.0  0.247133160667822  0.02680983327714159  0.2382731236556239  1.0000
  O   O24       1.0  0.9569239249985558  0.13537184159130788  0.06430541479651448  1.0000
  O   O25       1.0  0.9994142529033567  0.0343316830083467  0.9140393320442753  1.0000
  O   O26       1.0  0.2953619949911683  0.9351463757720778  0.08544714133655158  1.0000
  O   O27       1.0  0.10653950970934288  0.8623763209995231  0.17590551077748975  1.0000
  O   O28       1.0  0.9575608471724663  0.911314128597915  0.07820936601726906  1.0000
  O   O29       1.0  0.06762266577499791  0.9779637280787837  0.022485909523354095  1.0000
  O   O30       1.0  0.1262198332414357  0.0005843849986249002  0.15876548131628  1.0000
  O   O31       1.0  0.011120444711231399  0.03040625885606829  0.11934435014028108  1.0000
  O   O32       1.0  0.1634914277877755  0.9182482029145759  0.07159750621152478  1.0000
