data_image0
_chemical_formula_structural       Al2H16C26S2O10
_chemical_formula_sum              "Al2 H16 C26 S2 O10"
_cell_length_a       6.850128503562884
_cell_length_b       12.756087612451962
_cell_length_c       17.541833645566534
_cell_angle_alpha    78.79669125151017
_cell_angle_beta     82.93345284513185
_cell_angle_gamma    74.50455067303679

_space_group_name_H-M_alt    "P 1"
_space_group_IT_number       1

loop_
  _space_group_symop_operation_xyz
  'x, y, z'

loop_
  _atom_site_type_symbol
  _atom_site_label
  _atom_site_symmetry_multiplicity
  _atom_site_fract_x
  _atom_site_fract_y
  _atom_site_fract_z
  _atom_site_occupancy
  Al  Al1       1.0  0.5001135454426662  0.49998075383772533  0.5000001589227451  1.0000
  Al  Al2       1.0  8.100807416162738e-05  0.5000074758113441  0.500014396860706  1.0000
  H   H1        1.0  0.28267292523001697  0.38318885063840463  0.5751971219256828  1.0000
  H   H2        1.0  0.7177294485322959  0.6164729124269214  0.42452860505483136  1.0000
  H   H3        1.0  0.6531959662915766  0.4903653000583787  0.2812836848812593  1.0000
  H   H4        1.0  0.7334579095736303  0.48723920769333523  0.13932477875288637  1.0000
  H   H5        1.0  0.03151858047728243  0.504268225837265  0.2552486354836389  1.0000
  H   H6        1.0  0.9678192700382339  0.49740508339245776  0.7446249991991747  1.0000
  H   H7        1.0  0.3477047599645288  0.5076531039351265  0.7188901497089474  1.0000
  H   H8        1.0  0.26748960010606043  0.5099368130596743  0.86094026017755  1.0000
  H   H9        1.0  0.3826249614589587  0.8513456398528019  0.5030800940327181  1.0000
  H   H10       1.0  0.617664078017235  0.14858002406272416  0.4968768036594182  1.0000
  H   H11       1.0  0.017211461583265485  0.4268587990361112  0.11093104841954465  1.0000
  H   H12       1.0  0.12452217374033134  0.5135593686228646  0.035803855507268195  1.0000
  H   H13       1.0  0.9339757016025343  0.5731389549455344  0.10401076596726708  1.0000
  H   H14       1.0  0.06358400890736962  0.42739759824864604  0.897446602644649  1.0000
  H   H15       1.0  0.8729225461065084  0.49083151811267794  0.9639439171268334  1.0000
  H   H16       1.0  0.9841756115192195  0.5741188783504398  0.887545638971602  1.0000
  C   C1        1.0  0.8456391868849379  0.30423925145049685  0.5021726370263977  1.0000
  C   C2        1.0  0.7072700155332614  0.4974450650420222  0.6385146318506683  1.0000
  C   C3        1.0  0.15460524380041119  0.6957000336908691  0.4978572652109248  1.0000
  C   C4        1.0  0.29291329686859063  0.5025499343427597  0.36148586793299825  1.0000
  C   C5        1.0  0.3365529976914061  0.4984242262910783  0.27652919453996105  1.0000
  C   C6        1.0  0.5358430236785594  0.49309284689325483  0.24377253674379765  1.0000
  C   C7        1.0  0.5802917234546854  0.49166822402262506  0.16493892541769373  1.0000
  C   C8        1.0  0.4285028669027042  0.49668172948417316  0.11603998225240278  1.0000
  C   C9        1.0  0.22747731589591072  0.5007319110279482  0.14873946233576865  1.0000
  C   C10       1.0  0.18526325444157266  0.5011378436727226  0.22874939364743335  1.0000
  C   C11       1.0  0.4785086308082286  0.4983574266567884  0.0350347003686906  1.0000
  C   C12       1.0  0.5214965738387177  0.5010620382810416  0.9650314676181532  1.0000
  C   C13       1.0  0.5715158563444974  0.5027613192400722  0.8840197762822936  1.0000
  C   C14       1.0  0.7720279955474325  0.5000059936975491  0.8512099213456703  1.0000
  C   C15       1.0  0.8143931751014148  0.4996546212236836  0.7711926724350416  1.0000
  C   C16       1.0  0.6635877879708476  0.5013917159343676  0.7234953888070732  1.0000
  C   C17       1.0  0.46471653716871225  0.505551432850268  0.7563638085625255  1.0000
  C   C18       1.0  0.420247884488866  0.5066029765512283  0.8352332594178972  1.0000
  C   C19       1.0  0.21891442746034065  0.8825962763014773  0.5013817376227434  1.0000
  C   C20       1.0  0.7813728313383379  0.11733434693321947  0.4985816828229445  1.0000
  C   C21       1.0  0.09289827502382764  0.8147983941947102  0.49925930581184713  1.0000
  C   C22       1.0  0.9073609240528668  0.18513941031451248  0.5007269136288314  1.0000
  C   C23       1.0  0.8944095563616089  0.0072458766721510024  0.49879126764763265  1.0000
  C   C24       1.0  0.10588941430315661  0.9926977149051553  0.5011376377920626  1.0000
  C   C25       1.0  0.06685397095290573  0.5040784386819793  0.09711447869135978  1.0000
  C   C26       1.0  0.9320200585379866  0.49773368046446353  0.902798200082671  1.0000
  S   S1        1.0  0.837152770766089  0.8841041038879067  0.4971009849883145  1.0000
  S   S2        1.0  0.1631194283106509  0.11583815872070603  0.5028537067189089  1.0000
  O   O1        1.0  0.6561567104547734  0.3500630282383598  0.5010361080900549  1.0000
  O   O2        1.0  0.8855093210608799  0.49807468301106883  0.6074511859450806  1.0000
  O   O3        1.0  0.011839793438269899  0.6496279271101173  0.4947932453564688  1.0000
  O   O4        1.0  0.4423094302508091  0.5079955548814185  0.3961682164440601  1.0000
  O   O5        1.0  0.3440813599968635  0.6498607853669044  0.49900761082980677  1.0000
  O   O6        1.0  0.11463344898601951  0.5020491635203399  0.3925577626693481  1.0000
  O   O7        1.0  0.9883659466937401  0.3503326538762435  0.50526453758237  1.0000
  O   O8        1.0  0.5579528216065626  0.49194811006148587  0.6038167099073133  1.0000
  O   O9        1.0  0.26301447461791844  0.4493073798266208  0.5360976780842606  1.0000
  O   O10       1.0  0.7371855964944701  0.5506502883320366  0.4638937633355338  1.0000
