data_image0
_chemical_formula_structural       Zn8H56C80N40O16
_chemical_formula_sum              "Zn8 H56 C80 N40 O16"
_cell_length_a       9.83581554000201
_cell_length_b       14.407818098021055
_cell_length_c       22.112126867026262
_cell_angle_alpha    90.00017896141374
_cell_angle_beta     89.99999569795403
_cell_angle_gamma    90.00007358256997

_space_group_name_H-M_alt    "P 1"
_space_group_IT_number       1

loop_
  _space_group_symop_operation_xyz
  'x, y, z'

loop_
  _atom_site_type_symbol
  _atom_site_label
  _atom_site_symmetry_multiplicity
  _atom_site_fract_x
  _atom_site_fract_y
  _atom_site_fract_z
  _atom_site_occupancy
  Zn  Zn1       1.0  0.0851023500981754  0.1397777892753567  0.3647809730157903  1.0000
  Zn  Zn2       1.0  0.08510257700771719  0.3602235331904707  0.1352184798324032  1.0000
  Zn  Zn3       1.0  0.4148977093962286  0.8602226917249494  0.8647806503659297  1.0000
  Zn  Zn4       1.0  0.414896502158598  0.6397786383934231  0.6352186069986347  1.0000
  Zn  Zn5       1.0  0.9148979542996895  0.8602223666129588  0.6352192777065184  1.0000
  Zn  Zn6       1.0  0.914897727390148  0.6397766226978446  0.8647817708898985  1.0000
  Zn  Zn7       1.0  0.5851025950016718  0.1397774641622931  0.1352191481158513  1.0000
  Zn  Zn8       1.0  0.5851027855460983  0.3602208234268288  0.36478164372297067  1.0000
  H   H1        1.0  0.4734694494147504  0.9150343472572968  0.45371757951067343  1.0000
  H   H2        1.0  0.4734722192396532  0.5849681395211163  0.0462806296102869  1.0000
  H   H3        1.0  0.0265285626079006  0.0849672484292654  0.9537192895985811  1.0000
  H   H4        1.0  0.026528907397789698  0.4150322233078398  0.5462807592519638  1.0000
  H   H5        1.0  0.5265298382912957  0.08496650269712801  0.5462822189718324  1.0000
  H   H6        1.0  0.5265280851575936  0.4150313222985033  0.9537191688707692  1.0000
  H   H7        1.0  0.9734707250967958  0.9150322133909865  0.046280961123024204  1.0000
  H   H8        1.0  0.9734713969994572  0.5849672385117869  0.45371903922909956  1.0000
  H   H9        1.0  0.07174581624185809  0.9688370729923789  0.5243363577825022  1.0000
  H   H10       1.0  0.07174638278088  0.531164652337921  0.9756629117491117  1.0000
  H   H11       1.0  0.4282553138714035  0.031163186055884796  0.024337348730625805  1.0000
  H   H12       1.0  0.4282556925358847  0.4688370471343005  0.4756629964307848  1.0000
  H   H13       1.0  0.9282534714628738  0.031162388826800197  0.47566344069857547  1.0000
  H   H14       1.0  0.9282549383101539  0.46883619761845097  0.0243373389738935  1.0000
  H   H15       1.0  0.5717449905258007  0.9688362757648077  0.9756629019909654  1.0000
  H   H16       1.0  0.5717435951708153  0.5311644968877332  0.5243368020524387  1.0000
  H   H17       1.0  0.5164784719081793  0.7940488496424861  0.5326148848129436  1.0000
  H   H18       1.0  0.5164803874464495  0.7059532630110398  0.9673834644696981  1.0000
  H   H19       1.0  0.9835210769546378  0.20595257808492562  0.0326166865419353  1.0000
  H   H20       1.0  0.9835201092407144  0.29404744462580373  0.4673831866914426  1.0000
  H   H21       1.0  0.4835228491821937  0.20595130624626987  0.4673853659093438  1.0000
  H   H22       1.0  0.4835199169514155  0.2940468928772759  0.0326167862526106  1.0000
  H   H23       1.0  0.016479227442573595  0.7940468837357668  0.9673835641796559  1.0000
  H   H24       1.0  0.016480195157185996  0.705952711261439  0.5326166117903313  1.0000
  H   H25       1.0  0.9685735170536207  0.060879527866283895  0.14929730769055283  1.0000
  H   H26       1.0  0.9685738592373951  0.43911978776040417  0.3507030183125793  1.0000
  H   H27       1.0  0.5314260133253299  0.9391203694887905  0.6492971613630516  1.0000
  H   H28       1.0  0.5314266559315683  0.5608803680491263  0.8507020918692805  1.0000
  H   H29       1.0  0.03142678734359091  0.9391199339544086  0.8507029430310384  1.0000
  H   H30       1.0  0.03142542846730121  0.560879674059848  0.649297232409026  1.0000
  H   H31       1.0  0.4685732743800273  0.06087978639907729  0.3507030893592713  1.0000
  H   H32       1.0  0.4685736484663322  0.4391197878381162  0.1492977066124936  1.0000
  H   H33       1.0  0.926255817320957  0.16626486727626852  0.23928604697641734  1.0000
  H   H34       1.0  0.9262559741923154  0.3337351055627876  0.2607142805278002  1.0000
  H   H35       1.0  0.5737436988035113  0.8337347616002477  0.7392852295516904  1.0000
  H   H36       1.0  0.5737445552311228  0.6662653187252939  0.7607140221795561  1.0000
  H   H37       1.0  0.07374448707624741  0.833734594544424  0.7607142037451738  1.0000
  H   H38       1.0  0.07374331351307718  0.6662650503240072  0.7392855179539952  1.0000
  H   H39       1.0  0.4262566055937  0.166264700220445  0.2607150211699008  1.0000
  H   H40       1.0  0.426255749166117  0.3337341430943254  0.23928577630150016  1.0000
  H   H41       1.0  0.2552791884461313  0.9912167986325  0.28555202041963673  1.0000
  H   H42       1.0  0.2552797539800764  0.5087834159220606  0.21444845763775788  1.0000
  H   H43       1.0  0.2447198669053279  0.008783307663939898  0.7855517566823808  1.0000
  H   H44       1.0  0.2447193126346008  0.4912170481656092  0.714447832192441  1.0000
  H   H45       1.0  0.7447211159517337  0.008783357255815402  0.7144482303026649  1.0000
  H   H46       1.0  0.7447205504170995  0.491216045899705  0.7855522453243609  1.0000
  H   H47       1.0  0.7552794207993755  0.991216154156312  0.21444849403922464  1.0000
  H   H48       1.0  0.755279975070792  0.508783107721193  0.2855519662893542  1.0000
  H   H49       1.0  0.17493300450837526  0.9549930929291505  0.1664291151307538  1.0000
  H   H50       1.0  0.17493361976970329  0.5450070516485183  0.3335704612942366  1.0000
  H   H51       1.0  0.3250670864041608  0.04500644999188101  0.6664293754956675  1.0000
  H   H52       1.0  0.3250674613615274  0.45499397581268397  0.8335697582899186  1.0000
  H   H53       1.0  0.8250672998888645  0.0450063688904763  0.8335706833503026  1.0000
  H   H54       1.0  0.8250666846275438  0.4549924101711084  0.6664293371868268  1.0000
  H   H55       1.0  0.6749332179930789  0.9549930118277455  0.3335704229853889  1.0000
  H   H56       1.0  0.6749328430363732  0.5450061800745657  0.1664300401918553  1.0000
  C   C1        1.0  0.19196045293487168  0.8644036553454555  0.5701527361695398  1.0000
  C   C2        1.0  0.1919622411879089  0.6355974806135407  0.929846076858624  1.0000
  C   C3        1.0  0.308039653229379  0.13559751445341559  0.07015394677360123  1.0000
  C   C4        1.0  0.30803780799844555  0.36440122590175844  0.4298459504081081  1.0000
  C   C5        1.0  0.8080398514629934  0.13559650054286007  0.4298475145527689  1.0000
  C   C6        1.0  0.8080380632086416  0.3644012871395361  0.07015417386224951  1.0000
  C   C7        1.0  0.6919616678603758  0.8644019473666518  0.9298458517074408  1.0000
  C   C8        1.0  0.6919614797062934  0.6355982359174205  0.5701538480729696  1.0000
  C   C9        1.0  0.3959110426931005  0.8982761298154714  0.4871209537183178  1.0000
  C   C10       1.0  0.3959128328500796  0.6017249012814859  0.012877710391578  1.0000
  C   C11       1.0  0.10408696403668928  0.10172354164330237  0.9871217911369213  1.0000
  C   C12       1.0  0.10408728238636657  0.3982759976406383  0.5128782549638089  1.0000
  C   C13       1.0  0.6040882450122564  0.10172402607239661  0.5128792970040053  1.0000
  C   C14       1.0  0.6040874715485103  0.3982759486722997  0.9871216358503788  1.0000
  C   C15       1.0  0.8959123236680071  0.8982759201769493  0.012878459584690902  1.0000
  C   C16       1.0  0.895912005319019  0.6017241582461637  0.48712154351797926  1.0000
  C   C17       1.0  0.24771914348490034  0.014865284176984498  0.4331143855799766  1.0000
  C   C18       1.0  0.24771961776576745  0.4851375680476123  0.0668841570230398  1.0000
  C   C19       1.0  0.25228090518631063  0.9851362140681487  0.9331152308084754  1.0000
  C   C20       1.0  0.2522804889162842  0.5148635862908292  0.5668844845607169  1.0000
  C   C21       1.0  0.752282177606169  0.9851355657783215  0.5668854129024936  1.0000
  C   C22       1.0  0.7522806866320977  0.5148625878406959  0.9331160936992617  1.0000
  C   C23       1.0  0.7477193992109292  0.014863247751470996  0.0668845676725809  1.0000
  C   C24       1.0  0.7477187987891084  0.4851365695959726  0.43311531392107844  1.0000
  C   C25       1.0  0.27068812300895223  0.9474625575406957  0.4838689450016957  1.0000
  C   C26       1.0  0.27068880281494495  0.5525390585647612  0.016129723548687004  1.0000
  C   C27       1.0  0.22931395100858504  0.052539874811166995  0.983870128777319  1.0000
  C   C28       1.0  0.22931232859831846  0.44746116166827216  0.5161294606444501  1.0000
  C   C29       1.0  0.7293131980833606  0.05253968055198039  0.5161317579632723  1.0000
  C   C30       1.0  0.7293125182747388  0.44746040325744474  0.9838709794134177  1.0000
  C   C31       1.0  0.7706863533900119  0.9474609751426257  0.0161292174646377  1.0000
  C   C32       1.0  0.7706869591077279  0.5525396882861457  0.4838703378380558  1.0000
  C   C33       1.0  0.3149374976315683  0.8138242302887165  0.5722872571368924  1.0000
  C   C34       1.0  0.3149393820039847  0.6861763187053709  0.927711551530436  1.0000
  C   C35       1.0  0.18506159150209808  0.18617694960385472  0.0722881241801474  1.0000
  C   C36       1.0  0.18506066752040337  0.31382237771685334  0.4277122296029532  1.0000
  C   C37       1.0  0.6850628067662612  0.18617592560066498  0.4277134458259439  1.0000
  C   C38       1.0  0.685060922392644  0.31382244904556694  0.07228779470937502  1.0000
  C   C39       1.0  0.8149376962025983  0.8138225122163972  0.927712126541465  1.0000
  C   C40       1.0  0.8149386201849821  0.6861777781699484  0.572287568878842  1.0000
  C   C41       1.0  0.1678669411626004  0.9318356796279799  0.5258617252327085  1.0000
  C   C42       1.0  0.16786961139761303  0.5681661294155873  0.9741370886503873  1.0000
  C   C43       1.0  0.332132155325958  0.06816666883754857  0.0258632481465284  1.0000
  C   C44       1.0  0.3321314474670629  0.4318341747035248  0.47413664818311224  1.0000
  C   C45       1.0  0.8321323465427497  0.06816447625988789  0.4741385254896143  1.0000
  C   C46       1.0  0.8321317096920708  0.43183333240661875  0.025863614311717204  1.0000
  C   C47       1.0  0.6678671323800955  0.9318341811168692  0.9741365503359775  1.0000
  C   C48       1.0  0.6678678402396798  0.5681673693174429  0.5258626980595764  1.0000
  C   C49       1.0  0.4202251771770307  0.8312411104900761  0.530643608398158  1.0000
  C   C50       1.0  0.42022803866480973  0.6687609183353304  0.9693547442970997  1.0000
  C   C51       1.0  0.07977290186094882  0.16876056652216676  0.030644895493409804  1.0000
  C   C52       1.0  0.0797720042647967  0.331239363167505  0.4693550097828592  1.0000
  C   C53       1.0  0.5797751272215309  0.16875973946478945  0.4693561900843335  1.0000
  C   C54       1.0  0.5797722657330553  0.3312392375529853  0.030645506425202  1.0000
  C   C55       1.0  0.920227402536959  0.8312395893650757  0.9693549029883642  1.0000
  C   C56       1.0  0.9202272834405606  0.6687607927203699  0.5306452409394637  1.0000
  C   C57       1.0  0.006491671597153499  0.11475770256702586  0.236665728527683  1.0000
  C   C58       1.0  0.0064919255920302  0.385242163302415  0.2633346315872629  1.0000
  C   C59       1.0  0.49350840818959096  0.8852414784594556  0.7366650024523906  1.0000
  C   C60       1.0  0.4935081499717525  0.6147585319874053  0.7633342521235988  1.0000
  C   C61       1.0  0.9935086328000508  0.8852417592536665  0.7633345221939081  1.0000
  C   C62       1.0  0.993508378805835  0.6147579925858934  0.7366656191350458  1.0000
  C   C63       1.0  0.506491896207649  0.1147579833601711  0.2633347960286656  1.0000
  C   C64       1.0  0.5064911377336329  0.38524162389938965  0.2366655463581893  1.0000
  C   C65       1.0  0.1761226609423261  0.022172677078415897  0.2580891684861157  1.0000
  C   C66       1.0  0.1761230936583331  0.47782733652437037  0.2419107333740698  1.0000
  C   C67       1.0  0.32387639875908997  0.9778272993373632  0.7580895438626172  1.0000
  C   C68       1.0  0.3238759686064157  0.5221732574428869  0.741910168968886  1.0000
  C   C69       1.0  0.8238776434555746  0.9778274788088267  0.7419106299956582  1.0000
  C   C70       1.0  0.8238772107388711  0.522172125296322  0.7580895173475143  1.0000
  C   C71       1.0  0.676123905638775  0.022172856550952198  0.2419107068596915  1.0000
  C   C72       1.0  0.6761233190982808  0.4778262043773579  0.25809008175271947  1.0000
  C   C73       1.0  0.13706132186123196  0.003760296075483899  0.19964565410514012  1.0000
  C   C74       1.0  0.1370627968795617  0.4962396835096854  0.30035470138047066  1.0000
  C   C75       1.0  0.3629377470974831  0.9962394039368474  0.6996451615906666  1.0000
  C   C76       1.0  0.3629382895129467  0.503761186860835  0.8003536453748482  1.0000
  C   C77       1.0  0.8629379658434645  0.9962391657447682  0.8003545966164722  1.0000
  C   C78       1.0  0.8629375075182677  0.5037604723796959  0.6996460015823658  1.0000
  C   C79       1.0  0.6370625572997994  0.003760057881706299  0.3003541846498621  1.0000
  C   C80       1.0  0.6370609981917853  0.496238274958344  0.1996461531062295  1.0000
  N   N1        1.0  0.0935825435737669  0.09181127512547249  0.2807225236280644  1.0000
  N   N2        1.0  0.0935818313083132  0.4081886665913146  0.2192773811585838  1.0000
  N   N3        1.0  0.4064175292344813  0.9081881142644475  0.7807227524486465  1.0000
  N   N4        1.0  0.4064172345421184  0.5918125144022496  0.7192769574563799  1.0000
  N   N5        1.0  0.9064177608241335  0.9081888807617702  0.7192772748537096  1.0000
  N   N6        1.0  0.906417456397044  0.5918114892965606  0.7807228695637392  1.0000
  N   N7        1.0  0.593583791855238  0.09181134755669257  0.21927749827292334  1.0000
  N   N8        1.0  0.5935830698557821  0.408187641484993  0.2807228410253941  1.0000
  N   N9        1.0  0.11208092023899499  0.8307872586336131  0.6162997789617465  1.0000
  N   N10       1.0  0.1120807460764084  0.6692145018237878  0.8836990368992801  1.0000
  N   N11       1.0  0.38791917861639286  0.16921482347978406  0.1163010560679822  1.0000
  N   N12       1.0  0.3879182937282692  0.33078537457939916  0.3836988382830314  1.0000
  N   N13       1.0  0.8879193841589054  0.1692128972536295  0.3837000195200275  1.0000
  N   N14       1.0  0.8879185416289488  0.33078565406408694  0.1163012138230428  1.0000
  N   N15       1.0  0.6120811257815076  0.8307853324074583  0.8836987424137916  1.0000
  N   N16       1.0  0.6120809939771235  0.6692147813074032  0.616300960198757  1.0000
  N   N17       1.0  0.1799603302258603  0.7639916764978308  0.6449749242367986  1.0000
  N   N18       1.0  0.17996028709502102  0.736009449010339  0.8550243414573944  1.0000
  N   N19       1.0  0.32003874739369553  0.23600915309471296  0.1449758892730344  1.0000
  N   N20       1.0  0.3200397739441456  0.2639902917795354  0.3550240074839124  1.0000
  N   N21       1.0  0.8200389574788075  0.23600778532349406  0.3550257787253415  1.0000
  N   N22       1.0  0.8200390006109969  0.26399140094515156  0.1449759092656464  1.0000
  N   N23       1.0  0.6799605403110363  0.763990308724466  0.8550239092080432  1.0000
  N   N24       1.0  0.6799615471456093  0.736009170040532  0.6449757909971298  1.0000
  N   N25       1.0  0.3020874592548211  0.7525735628877044  0.6194350785386434  1.0000
  N   N26       1.0  0.30208946708668794  0.7474283630493019  0.8805632783451713  1.0000
  N   N27       1.0  0.19791060571890987  0.2474285340532134  0.11943652369656378  1.0000
  N   N28       1.0  0.1979095732153127  0.2525721925920267  0.38056337739187285  1.0000
  N   N29       1.0  0.697912845143044  0.24742659300060404  0.3805651721836583  1.0000
  N   N30       1.0  0.6979108373112126  0.2525717928379407  0.11943652013660258  1.0000
  N   N31       1.0  0.8020886819864756  0.7525716218335885  0.8805632747852243  1.0000
  N   N32       1.0  0.8020897144900374  0.7474279632958413  0.61943687333045  1.0000
  N   N33       1.0  0.030828195116328092  0.0629697408532692  0.1872167905292059  1.0000
  N   N34       1.0  0.030828539348931396  0.43703014621021197  0.3127831164823647  1.0000
  N   N35       1.0  0.46917087581104505  0.937029900379052  0.6872166243698601  1.0000
  N   N36       1.0  0.46917254507425804  0.562970088872703  0.812782631068977  1.0000
  N   N37       1.0  0.9691710925884038  0.9370297209659096  0.8127830079518716  1.0000
  N   N38       1.0  0.9691707483558005  0.5629693156089743  0.6872166819987129  1.0000
  N   N39       1.0  0.5308284118936868  0.06296956144012708  0.3127831741112175  1.0000
  N   N40       1.0  0.5308277593229817  0.4370293729469239  0.1872171674120793  1.0000
  O   O1        1.0  0.1265599299504672  0.049413826315614494  0.42932329098290717  1.0000
  O   O2        1.0  0.12656237158945768  0.45058683818855627  0.07067570815413401  1.0000
  O   O3        1.0  0.3734391026280761  0.9505869599317618  0.9293240606589492  1.0000
  O   O4        1.0  0.373438751183876  0.549413640014542  0.5706761026558453  1.0000
  O   O5        1.0  0.8734403744467796  0.9505856355040121  0.570676507498149  1.0000
  O   O6        1.0  0.8734389495002616  0.5494126236325768  0.9293245425674428  1.0000
  O   O7        1.0  0.626561201769789  0.049413195956546495  0.07067619006335242  1.0000
  O   O8        1.0  0.6265605365215167  0.45058651587226  0.4293236958259428  1.0000
  O   O9        1.0  0.3421536309380783  0.03322541036951068  0.3968935542158221  1.0000
  O   O10       1.0  0.34215508140630396  0.4667782181697716  0.1031058895208048  1.0000
  O   O11       1.0  0.1578464234711134  0.9667766106390656  0.8968934604444954  1.0000
  O   O12       1.0  0.1578460362314971  0.5332238015441176  0.6031067105140977  1.0000
  O   O13       1.0  0.6578476901529556  0.9667754395868683  0.603106696507183  1.0000
  O   O14       1.0  0.6578452229915682  0.5332219377185367  0.8968943612015042  1.0000
  O   O15       1.0  0.8421528642336257  0.0332228511801134  0.1031063380365822  1.0000
  O   O16       1.0  0.8421532514738246  0.466776354344823  0.39689399244876006  1.0000
