data_image0
_chemical_formula_structural       Cd4H32C32N8Cl8O4
_chemical_formula_sum              "Cd4 H32 C32 N8 Cl8 O4"
_cell_length_a       7.102308138939794
_cell_length_b       10.034502907725697
_cell_length_c       14.941036784469146
_cell_angle_alpha    80.92445599981595
_cell_angle_beta     78.5960480178425
_cell_angle_gamma    83.05934686118782

_space_group_name_H-M_alt    "P 1"
_space_group_IT_number       1

loop_
  _space_group_symop_operation_xyz
  'x, y, z'

loop_
  _atom_site_type_symbol
  _atom_site_label
  _atom_site_symmetry_multiplicity
  _atom_site_fract_x
  _atom_site_fract_y
  _atom_site_fract_z
  _atom_site_occupancy
  Cd  Cd1       1.0  0.23748966231694624  0.9230925579730066  0.5296442801122012  1.0000
  Cd  Cd2       1.0  0.7625026672463092  0.0769095528911024  0.4703557787885373  1.0000
  Cd  Cd3       1.0  0.2664010860402755  0.43689477621095557  0.9875951777614489  1.0000
  Cd  Cd4       1.0  0.7335986182182026  0.563106196103817  0.012408966786907201  1.0000
  H   H1        1.0  0.15511515680672264  0.7782068443188521  0.3505265017428698  1.0000
  H   H2        1.0  0.8448828111583564  0.22179623288027975  0.6494735864832535  1.0000
  H   H3        1.0  0.11758187191937712  0.5990773096009223  0.2560354888516371  1.0000
  H   H4        1.0  0.8824134914694923  0.4009237239569501  0.7439670608490871  1.0000
  H   H5        1.0  0.19681475104467688  0.6369482177459105  0.741345593027873  1.0000
  H   H6        1.0  0.8031684196988065  0.36304679219129815  0.2586600679694371  1.0000
  H   H7        1.0  0.44371411985717657  0.5790141166830337  0.7138260719580245  1.0000
  H   H8        1.0  0.5562686691958233  0.4209839566266568  0.2861779846141488  1.0000
  H   H9        1.0  0.23506222325155327  0.28045278141325275  0.4738950127073309  1.0000
  H   H10       1.0  0.7649156490223135  0.719550385832022  0.5261090155846162  1.0000
  H   H11       1.0  0.15729284606501182  0.357345768130905  0.3169338773435442  1.0000
  H   H12       1.0  0.8426877992329551  0.642658371733127  0.6830711257517024  1.0000
  H   H13       1.0  0.5079980673912132  0.7916403158098434  0.6584560193051914  1.0000
  H   H14       1.0  0.4919831728398377  0.20835876833171343  0.3415487563624282  1.0000
  H   H15       1.0  0.3151565839729288  0.39948189843075  0.6319594635943631  1.0000
  H   H16       1.0  0.6848327783471859  0.6005212091345841  0.3680427914956041  1.0000
  H   H17       1.0  0.09039749158298349  0.21273301685048546  0.1524964246850686  1.0000
  H   H18       1.0  0.9096158369650027  0.7872618407450176  0.8475043305683414  1.0000
  H   H19       1.0  0.21914992972318706  0.7760187660914397  0.012923227690627896  1.0000
  H   H20       1.0  0.7808598148608042  0.22398130320526385  0.9870699960597661  1.0000
  H   H21       1.0  0.9725356050429851  0.9977130950546994  0.24143685380506946  1.0000
  H   H22       1.0  0.027476200454195503  0.0022818750751625  0.7585580132733583  1.0000
  H   H23       1.0  0.031622667940652625  0.7844326503273821  0.17215543507685277  1.0000
  H   H24       1.0  0.9683903237115531  0.21556434931310522  0.8278384476207634  1.0000
  H   H25       1.0  0.5108456598097249  0.3291324931261528  0.8120067097284291  1.0000
  H   H26       1.0  0.4891605321098352  0.6708736170792662  0.18798960720872057  1.0000
  H   H27       1.0  0.586872932736263  0.17350033330760786  0.7675988345744571  1.0000
  H   H28       1.0  0.41313365038556077  0.826502702010323  0.2323997563577151  1.0000
  H   H29       1.0  0.3307763415834869  0.19759763734307972  0.7019984838726286  1.0000
  H   H30       1.0  0.6692303529155268  0.8024043960423555  0.297999525918101  1.0000
  H   H31       1.0  0.4005719961941309  0.9601471351078318  0.8577991041528675  1.0000
  H   H32       1.0  0.5994341576782956  0.03985902115758221  0.1421945345047249  1.0000
  C   C1        1.0  0.2263660273325813  0.6270263725488688  0.4622489823412721  1.0000
  C   C2        1.0  0.7736378113004889  0.37297565560530194  0.5377506424972579  1.0000
  C   C3        1.0  0.17800412104391228  0.6704094788534507  0.3753934988843071  1.0000
  C   C4        1.0  0.8219969445650649  0.32959157668195627  0.6246051511509235  1.0000
  C   C5        1.0  0.2484178991289383  0.4873265212325464  0.4969485006218051  1.0000
  C   C6        1.0  0.751586050881329  0.5126745049891285  0.5030505430752896  1.0000
  C   C7        1.0  0.1564568640052997  0.5708109384622873  0.32396113882841604  1.0000
  C   C8        1.0  0.8435383784945925  0.4291911085430797  0.676041322443858  1.0000
  C   C9        1.0  0.29415583062448286  0.611758784836681  0.6000271450245478  1.0000
  C   C10       1.0  0.7058327082075311  0.3882392528755432  0.39997635973158197  1.0000
  C   C11       1.0  0.3279779591993588  0.6484962087554891  0.6884232273310076  1.0000
  C   C12       1.0  0.6720035132978593  0.3515008600060767  0.311581055623634  1.0000
  C   C13       1.0  0.22318444593293654  0.3875235247635302  0.4460951740486863  1.0000
  C   C14       1.0  0.7768051676769118  0.6124775443918085  0.5539079274680816  1.0000
  C   C15       1.0  0.17881018678283309  0.4320641684657859  0.3587756894442151  1.0000
  C   C16       1.0  0.8211736865597813  0.5679369247720273  0.641228633458482  1.0000
  C   C17       1.0  0.22028410665870984  0.11435701280876737  0.03241448605152189  1.0000
  C   C18       1.0  0.7797228676653845  0.885642947621683  0.9675863788756729  1.0000
  C   C19       1.0  0.2560343729599097  0.9912566272092606  0.9940803815470217  1.0000
  C   C20       1.0  0.7439765034726166  0.008746404440572097  0.0059164563833391795  1.0000
  C   C21       1.0  0.11932004369511869  0.11836680995841681  0.12263817940946349  1.0000
  C   C22       1.0  0.8806887212288715  0.8816301127451782  0.8773621432791855  1.0000
  C   C23       1.0  0.19241648033224118  0.8698401858065238  0.0433086005000618  1.0000
  C   C24       1.0  0.8076030655635194  0.13016187111959712  0.9566821415755699  1.0000
  C   C25       1.0  0.37294471779407706  0.1608250272934981  0.8902902392845675  1.0000
  C   C26       1.0  0.6270659644194154  0.8391799736763164  0.10970976963833577  1.0000
  C   C27       1.0  0.05414185314115368  0.9976365869877527  0.1715196593475881  1.0000
  C   C28       1.0  0.9458802752708236  0.0023562709215526004  0.8284757580494357  1.0000
  C   C29       1.0  0.0901443522145655  0.8757513317049401  0.13255314292877068  1.0000
  C   C30       1.0  0.9098745196174178  0.12424460737558013  0.867440945951145  1.0000
  C   C31       1.0  0.4606724127698172  0.23531826062013297  0.7998806338714601  1.0000
  C   C32       1.0  0.5393328633080114  0.7646837586346679  0.20011885301305915  1.0000
  N   N1        1.0  0.25611623137494627  0.7009412205200719  0.5285305649834555  1.0000
  N   N2        1.0  0.7438793547683035  0.29905780917281527  0.47147082243439087  1.0000
  N   N3        1.0  0.2925180260447816  0.4826406265009169  0.5840084099807754  1.0000
  N   N4        1.0  0.7074715590297201  0.5173604771994249  0.415992682826321  1.0000
  N   N5        1.0  0.2954882181815108  0.217118156135399  0.9659539143033555  1.0000
  N   N6        1.0  0.7045161135192403  0.782879806713794  0.03404673381887582  1.0000
  N   N7        1.0  0.3539797858582006  0.025067187994437704  0.9050228443623638  1.0000
  N   N8        1.0  0.6460298949075207  0.9749338256597609  0.09497430837891592  1.0000
  Cl  Cl1       1.0  0.1283925034322593  0.06124016873859972  0.3850767581677488  1.0000
  Cl  Cl2       1.0  0.8716017756669955  0.938757844891164  0.6149255252024517  1.0000
  Cl  Cl3       1.0  0.38869579982012675  0.09688280299094033  0.5891854015586445  1.0000
  Cl  Cl4       1.0  0.6113069164762024  0.9031162512951031  0.41081127866981143  1.0000
  Cl  Cl5       1.0  0.0056512851413544184  0.5066031604727286  0.1179284519058683  1.0000
  Cl  Cl6       1.0  0.9943520889593955  0.4934028984414168  0.8820721583586388  1.0000
  Cl  Cl7       1.0  0.475684022288938  0.616315053102639  0.8971275192990333  1.0000
  Cl  Cl8       1.0  0.5243170080371016  0.38368691224526696  0.10287706843674728  1.0000
  O   O1        1.0  0.3689091687952981  0.7867076523371563  0.6778870017391726  1.0000
  O   O2        1.0  0.6310749748606169  0.2132913794606708  0.32211950673009676  1.0000
  O   O3        1.0  0.32279468062436933  0.2719641978941425  0.7394918188149333  1.0000
  O   O4        1.0  0.6772079528301089  0.7280358237794005  0.2605074512646298  1.0000
