data_image0
_chemical_formula_structural       Zn4Ni4H64C40N24O8
_chemical_formula_sum              "Zn4 Ni4 H64 C40 N24 O8"
_cell_length_a       8.847201017
_cell_length_b       11.233512137
_cell_length_c       14.7436
_cell_angle_alpha    90.0
_cell_angle_beta     90.0
_cell_angle_gamma    90.0

_space_group_name_H-M_alt    "P 1"
_space_group_IT_number       1

loop_
  _space_group_symop_operation_xyz
  'x, y, z'

loop_
  _atom_site_type_symbol
  _atom_site_label
  _atom_site_symmetry_multiplicity
  _atom_site_fract_x
  _atom_site_fract_y
  _atom_site_fract_z
  _atom_site_occupancy
  Zn  Zn1       1.0  0.3805542559201028  0.5000003499795938  0.7499986434792021  1.0000
  Zn  Zn2       1.0  0.11945246840998888  0.9999989195720929  0.2500020347811898  1.0000
  Zn  Zn3       1.0  0.6194524109341799  0.4999994597860464  0.24999864347920214  1.0000
  Zn  Zn4       1.0  0.880553068143314  0.0  0.7500027130415888  1.0000
  Ni  Ni1       1.0  2.260601967e-06  0.4999985695924991  0.9999986434792021  1.0000
  Ni  Ni2       1.0  0.4999999425241981  0.0  0.5000027130415887  1.0000
  Ni  Ni3       1.0  0.49999203041731727  2.6705806349e-06  0.9999972869584113  1.0000
  Ni  Ni4       1.0  5.6515049138e-06  0.5000012401731411  0.4999972869584114  1.0000
  H   H1        1.0  0.45230011077072874  0.7560760959188499  0.6623518001030959  1.0000
  H   H2        1.0  0.0477009620544493  0.7439240638263768  0.16234976532189904  1.0000
  H   H3        1.0  0.0477043529573962  0.256074855745716  0.3376502346781011  1.0000
  H   H4        1.0  0.45229785016876173  0.24392549423387777  0.8376481998969043  1.0000
  H   H5        1.0  0.5476986439766804  0.24392460404033048  0.33765091293849286  1.0000
  H   H6        1.0  0.9523000532949268  0.2560766361328035  0.837649556417702  1.0000
  H   H7        1.0  0.9522977926929599  0.7439240638263768  0.6623524783634951  1.0000
  H   H8        1.0  0.5477009045786473  0.7560752057253097  0.16234773054070936  1.0000
  H   H9        1.0  0.6100008341203065  0.8027533944881001  0.7272206245421773  1.0000
  H   H10       1.0  0.8899989934522807  0.6972476554506812  0.2272192680213792  1.0000
  H   H11       1.0  0.8900046449571946  0.3027521543149589  0.2727800537182219  1.0000
  H   H12       1.0  0.6099985735183395  0.1972455250839928  0.7727793754578229  1.0000
  H   H13       1.0  0.38999792062710265  0.1972481956646348  0.27278141023901986  1.0000
  H   H14       1.0  0.1100020218970883  0.3027530445085063  0.772780053718222  1.0000
  H   H15       1.0  0.10999976129512848  0.6972476554506812  0.7272206245421773  1.0000
  H   H16       1.0  0.3900001812290696  0.8027498337139178  0.22721858976098025  1.0000
  H   H17       1.0  0.6995432779370316  0.7059466267793439  0.5874406522152  1.0000
  H   H18       1.0  0.8004542890335884  0.7940544231594303  0.08744065221520003  1.0000
  H   H19       1.0  0.8004588102375223  0.2059498375739395  0.4125613825659969  1.0000
  H   H20       1.0  0.6995432779370316  0.2940522927927489  0.912558669524401  1.0000
  H   H21       1.0  0.3004543465093974  0.2940531829862891  0.412560704305598  1.0000
  H   H22       1.0  0.1995444657138137  0.20594716699329751  0.9125600260451991  1.0000
  H   H23       1.0  0.1995422051118538  0.7940526427723427  0.5874420087359908  1.0000
  H   H24       1.0  0.3004532162084104  0.7059448463922564  0.0874399739548011  1.0000
  H   H25       1.0  0.7486740707340687  0.6162934544039089  0.6833622724436381  1.0000
  H   H26       1.0  0.7513257568385114  0.8837075955348652  0.18336295070403716  1.0000
  H   H27       1.0  0.7513291477414583  0.1162939946178625  0.3166404405979577  1.0000
  H   H28       1.0  0.7486729404330887  0.3837063553617241  0.8166370492959629  1.0000
  H   H29       1.0  0.2513246840133405  0.38370813574881873  0.3166397623375589  1.0000
  H   H30       1.0  0.24867299790889058  0.116292214230775  0.8166390840771598  1.0000
  H   H31       1.0  0.2486741282098777  0.8837067053413179  0.6833629507040373  1.0000
  H   H32       1.0  0.25132694461530036  0.6162907838232741  0.18336159418323925  1.0000
  H   H33       1.0  0.60425551422734  0.6041672379242655  0.4732182099351547  1.0000
  H   H34       1.0  0.8957386618403334  0.8958347022080559  0.9732175316747631  1.0000
  H   H35       1.0  0.89574205274328  0.10416866833176638  0.5267851813668332  1.0000
  H   H36       1.0  0.60425551422734  0.39583079145427996  0.026781790064838207  1.0000
  H   H37       1.0  0.3957375890151552  0.3958325718413747  0.5267851813668332  1.0000
  H   H38       1.0  0.1042578323051089  0.10416866833176638  0.026783146585636106  1.0000
  H   H39       1.0  0.1042589626060959  0.8958329218209684  0.4732182099351547  1.0000
  H   H40       1.0  0.3957398496171223  0.6041672379242655  0.9732154968935661  1.0000
  H   H41       1.0  0.4164175757870652  0.6180186494954967  0.5169822838384094  1.0000
  H   H42       1.0  0.083577845533199  0.8819832906368247  0.0169788925364216  1.0000
  H   H43       1.0  0.0835823667371329  0.1180182995159029  0.4830231422447683  1.0000
  H   H44       1.0  0.4164164454860852  0.38198116027014345  0.9830183944219899  1.0000
  H   H45       1.0  0.583578918358377  0.3819820504636908  0.4830238205051671  1.0000
  H   H46       1.0  0.9164197789132231  0.1180191897094502  0.9830217857239775  1.0000
  H   H47       1.0  0.9164175183112633  0.8819832906368247  0.5169802490572195  1.0000
  H   H48       1.0  0.5835811789603439  0.618016869108402  0.01697753601562371  1.0000
  H   H49       1.0  0.4220611685916182  0.7064958761970459  0.8177955180552916  1.0000
  H   H50       1.0  0.0779387739325728  0.7935042835481808  0.3177948397948924  1.0000
  H   H51       1.0  0.0779387739325728  0.20649196544327708  0.1822038036843097  1.0000
  H   H52       1.0  0.4220634291935852  0.2935039335685872  0.682202447163512  1.0000
  H   H53       1.0  0.577934195252837  0.293503043375047  0.18220448194470865  1.0000
  H   H54       1.0  0.9220633717177832  0.2064946360239119  0.6822038036843098  1.0000
  H   H55       1.0  0.9220633717177832  0.7935042835481808  0.8177982310968803  1.0000
  H   H56       1.0  0.5779387164567708  0.7064949860035057  0.3177941615344936  1.0000
  H   H57       1.0  0.5811374682366406  0.6305961941028144  0.8205668900404248  1.0000
  H   H58       1.0  0.9188646199379136  0.8694039656424123  0.3205662117800259  1.0000
  H   H59       1.0  0.9188657502388934  0.130590502961951  0.17943650126156296  1.0000
  H   H60       1.0  0.5811385985376205  0.369404505856366  0.6794324316991762  1.0000
  H   H61       1.0  0.4188624168117485  0.36940628624346056  0.17943514474077205  1.0000
  H   H62       1.0  0.08113752571244247  0.1305940637361331  0.6794351447407723  1.0000
  H   H63       1.0  0.0811397863144094  0.8694039656424123  0.8205668900404248  1.0000
  H   H64       1.0  0.4188658077146954  0.6305935235221796  0.3205641769988362  1.0000
  C   C1        1.0  0.13977188916855  0.48886580910986766  0.9090235763314285  1.0000
  C   C2        1.0  0.3602337048605548  0.0111354310632734  0.409027645893815  1.0000
  C   C3        1.0  0.3602280533556481  0.9888670492830016  0.090973710626983  1.0000
  C   C4        1.0  0.139769628566583  0.5111366712364074  0.5909737106269832  1.0000
  C   C5        1.0  0.8602313867827859  0.5111331104622252  0.0909723541061851  1.0000
  C   C6        1.0  0.6397673104888142  0.9888634885088194  0.5909804932309586  1.0000
  C   C7        1.0  0.6397605286829204  0.0111398820310029  0.9090222198106306  1.0000
  C   C8        1.0  0.8602381685886797  0.48886580910986766  0.4090222198106305  1.0000
  C   C9        1.0  0.1115143646113879  0.396244731453038  0.07091687240565393  1.0000
  C   C10       1.0  0.3884776658059295  0.1037538381394612  0.5709256897908264  1.0000
  C   C11       1.0  0.3884799264078964  0.8962513127874487  0.9290763449903707  1.0000
  C   C12       1.0  0.11151888581532177  0.6037550783126022  0.4290770232507698  1.0000
  C   C13       1.0  0.8884877810389609  0.6037497371513254  0.9290783797715607  1.0000
  C   C14       1.0  0.6115109162326391  0.8962539833680836  0.42908787541713184  1.0000
  C   C15       1.0  0.6115030041257654  0.1037493871717388  0.07091551588485603  1.0000
  C   C16       1.0  0.8884945628448547  0.396250962807855  0.5709134811036665  1.0000
  C   C17       1.0  0.5491725564575842  0.7240825398860764  0.7021195637429118  1.0000
  C   C18       1.0  0.9508284014159897  0.7759167296656102  0.2021195637429116  1.0000
  C   C19       1.0  0.9508284014159897  0.2240821899064827  0.2978817927778863  1.0000
  C   C20       1.0  0.5491736867585643  0.2759163796860165  0.7978797579966896  1.0000
  C   C21       1.0  0.4508273285908117  0.2759163796860165  0.2978811145174874  1.0000
  C   C22       1.0  0.0491737442343663  0.22408486048711748  0.7978797579966896  1.0000
  C   C23       1.0  0.0491748745353533  0.7759167296656102  0.7021209202637095  1.0000
  C   C24       1.0  0.4508273285908117  0.7240825398860764  0.20211888548251275  1.0000
  C   C25       1.0  0.6535886309002095  0.6503994397206583  0.6426151007894918  1.0000
  C   C26       1.0  0.8464123269733576  0.8496007200245757  0.14261374426870083  1.0000
  C   C27       1.0  0.8464145875753175  0.1503999799346118  0.3573869339916983  1.0000
  C   C28       1.0  0.6535875005992294  0.3495985896578944  0.8573842209501097  1.0000
  C   C29       1.0  0.3464101238471926  0.3496003700449819  0.3573876122520972  1.0000
  C   C30       1.0  0.1535886883760185  0.1504008701281592  0.8573862557312995  1.0000
  C   C31       1.0  0.1535864277740515  0.8495998298310283  0.6426151007894918  1.0000
  C   C32       1.0  0.3464123844491596  0.6503976593335636  0.1426130660083018  1.0000
  C   C33       1.0  0.5189426566863347  0.5621118242443401  0.5171810141349482  1.0000
  C   C34       1.0  0.9810549102842855  0.937889225694441  0.017178979353751303  1.0000
  C   C35       1.0  0.9810583011872324  0.0621096938776589  0.4828223771670395  1.0000
  C   C36       1.0  0.5189415263853476  0.43788709532775266  0.9828183076046528  1.0000
  C   C37       1.0  0.4810549677600946  0.4378888757148474  0.4828223771670395  1.0000
  C   C38       1.0  0.0189393232591897  0.06211414484538119  0.9828216989066476  1.0000
  C   C39       1.0  0.0189427141621366  0.9378901158879813  0.5171810141349482  1.0000
  C   C40       1.0  0.4810549677600946  0.5621091536637053  0.0171783010933524  1.0000
  N   N1        1.0  0.2297110686300599  0.481752272486105  0.8510065384302339  1.0000
  N   N2        1.0  0.2702933950980649  0.0182471872999415  0.3510099297322214  1.0000
  N   N3        1.0  0.2702900041951182  0.981750842078604  0.1489921050489684  1.0000
  N   N4        1.0  0.2297099383290728  0.5182484274730825  0.6489907485281777  1.0000
  N   N5        1.0  0.7702910770202962  0.5182448666988932  0.1489880354865818  1.0000
  N   N6        1.0  0.729706489950324  0.9817570734334282  0.6489941398301653  1.0000
  N   N7        1.0  0.729706489950324  0.0182507480741236  0.8510092514718224  1.0000
  N   N8        1.0  0.770295598224223  0.4817540528731996  0.35100721669063273  1.0000
  N   N9        1.0  0.1806107939595378  0.329976943523377  0.11665264928511483  1.0000
  N   N10       1.0  0.3193902788656401  0.1700127241336702  0.6166553623267037  1.0000
  N   N11       1.0  0.3193834970597464  0.8299906464061522  0.8833364985485235  1.0000
  N   N12       1.0  0.1806164454644517  0.670019305468081  0.3833419246317078  1.0000
  N   N13       1.0  0.8193913516908182  0.6700148545003515  0.8833426028920999  1.0000
  N   N14       1.0  0.6806163879886424  0.829978183696511  0.3833480289752842  1.0000
  N   N15       1.0  0.6806039546778421  0.1700180652949399  0.11665468406630451  1.0000
  N   N16       1.0  0.8193947425937649  0.329976943523377  0.6166492579831271  1.0000
  N   N17       1.0  0.4917860452859201  0.6526195824236538  0.7789637537643446  1.0000
  N   N18       1.0  0.0082150275392578  0.8473796871280328  0.2789644320247433  1.0000
  N   N19       1.0  0.0082172881412248  0.1526174520569725  0.22103692449605467  1.0000
  N   N20       1.0  0.4917860452859201  0.3473802273419864  0.7210348897148579  1.0000
  N   N21       1.0  0.5082149700634488  0.3473802273419864  0.22103692449605467  1.0000
  N   N22       1.0  0.9917871181110982  0.1526192324440601  0.7210369244960548  1.0000
  N   N23       1.0  0.991788248412078  0.8473814675151203  0.7789651102851423  1.0000
  N   N24       1.0  0.5082183609663957  0.6526186922301065  0.2789623972435464  1.0000
  O   O1        1.0  0.5790249357007439  0.5479728801578432  0.6064841694023144  1.0000
  O   O2        1.0  0.9209737615708562  0.952028169780931  0.1064841694023144  1.0000
  O   O3        1.0  0.920977152473803  0.0479752007588914  0.3935185436392744  1.0000
  O   O4        1.0  0.5790238053997638  0.4520260394142497  0.8935158305976858  1.0000
  O   O5        1.0  0.4209749493476451  0.452026929607797  0.3935185436392744  1.0000
  O   O6        1.0  0.079022732574586  0.0479743105653441  0.8935165088580774  1.0000
  O   O7        1.0  0.079023862875566  0.9520263893938434  0.6064848476627135  1.0000
  O   O8        1.0  0.4209749493476451  0.5479719899642959  0.10648145636072573  1.0000
