data_image0
_chemical_formula_structural       La4Mg6H60C84N12O60
_chemical_formula_sum              "La4 Mg6 H60 C84 N12 O60"
_cell_length_a       15.225577533001184
_cell_length_b       15.704067963457106
_cell_length_c       15.704056341423374
_cell_angle_alpha    119.99992840801586
_cell_angle_beta     90.00004518919215
_cell_angle_gamma    89.99997776794696

_space_group_name_H-M_alt    "P 1"
_space_group_IT_number       1

loop_
  _space_group_symop_operation_xyz
  'x, y, z'

loop_
  _atom_site_type_symbol
  _atom_site_label
  _atom_site_symmetry_multiplicity
  _atom_site_fract_x
  _atom_site_fract_y
  _atom_site_fract_z
  _atom_site_occupancy
  La  La1       1.0  0.7499999972147721  0.333332651798912  0.6666679418381065  1.0000
  La  La2       1.0  0.7499997948132133  0.6666671634075172  0.3333329368523151  1.0000
  La  La3       1.0  0.2500003705872373  0.6666678961901694  0.33333200902379184  1.0000
  La  La4       1.0  0.24999991619944242  0.3333313757398884  0.6666664757431775  1.0000
  Mg  Mg1       1.0  0.9999996081265368  0.5000002764994136  0.5000001679708603  1.0000
  Mg  Mg2       1.0  2.0324346649999993e-07  3.549696642988412e-07  0.5000000422518198  1.0000
  Mg  Mg3       1.0  3.0612950039999997e-07  0.499999622038487  0.9999995560095343  1.0000
  Mg  Mg4       1.0  0.49999952711146994  0.5000002739945373  0.499999975430697  1.0000
  Mg  Mg5       1.0  0.4999997303550289  0.4999996245433635  0.9999997485494416  1.0000
  Mg  Mg6       1.0  0.5000002842585333  3.5747454054403903e-07  0.5000002347919832  1.0000
  H   H1        1.0  0.9478190338047343  0.3684951830175294  0.5352348359312415  1.0000
  H   H2        1.0  0.8502838386521107  0.7169284033206794  0.7596360924137855  1.0000
  H   H3        1.0  0.9478191134331555  0.16674111973739508  0.6315069718128612  1.0000
  H   H4        1.0  0.850284437050462  0.04270620520383519  0.2830708081948146  1.0000
  H   H5        1.0  0.9478191356250251  0.4647656011858174  0.8332595742775268  1.0000
  H   H6        1.0  0.8502840146511801  0.24036454982115862  0.9572945657590921  1.0000
  H   H7        1.0  0.9478189523697864  0.6315053694584732  0.46476545982302025  1.0000
  H   H8        1.0  0.8502837146561931  0.2830721481780714  0.2403641282227085  1.0000
  H   H9        1.0  0.9478188727411451  0.8332598003823789  0.36849295629709633  1.0000
  H   H10       1.0  0.8502844298367835  0.957293709517849  0.7169287756647975  1.0000
  H   H11       1.0  0.9478188505494958  0.5352349512901854  0.16674072147673513  1.0000
  H   H12       1.0  0.8502835386576637  0.7596342619692322  0.042706121032935515  1.0000
  H   H13       1.0  0.5521807384130001  0.5352348626610636  0.3684947551574069  1.0000
  H   H14       1.0  0.6497160514387659  0.7596358385372068  0.7169272421899746  1.0000
  H   H15       1.0  0.5521806370792747  0.6315068040059231  0.16674044529789706  1.0000
  H   H16       1.0  0.6497145594517163  0.2830714993260628  0.04270762717213466  1.0000
  H   H17       1.0  0.5521807177277014  0.8332593544282786  0.4647651212832569  1.0000
  H   H18       1.0  0.6497164748388402  0.9572944199854092  0.24036482976423906  1.0000
  H   H19       1.0  0.552180859467562  0.4647656858508355  0.631505235891943  1.0000
  H   H20       1.0  0.6497159793077855  0.24036507859572254  0.2830724563328388  1.0000
  H   H21       1.0  0.5521803040116211  0.3684931077289092  0.8332589089738178  1.0000
  H   H22       1.0  0.6497155009270373  0.7169289516526332  0.9572938110602252  1.0000
  H   H23       1.0  0.5521808801528608  0.16674119408362728  0.5352348697660928  1.0000
  H   H24       1.0  0.6497162126976976  0.042705761859991774  0.7596356040474461  1.0000
  H   H25       1.0  0.05218067720774401  0.6315053649715452  0.464765114930408  1.0000
  H   H26       1.0  0.14971652914989872  0.28307214466840236  0.24036385844811997  1.0000
  H   H27       1.0  0.052180597579322814  0.8332594282516866  0.3684929790487884  1.0000
  H   H28       1.0  0.14971527396210146  0.9572933383644084  0.7169288735337602  1.0000
  H   H29       1.0  0.052180575387673414  0.5352345791594929  0.16674074422842713  1.0000
  H   H30       1.0  0.14971569636139045  0.7596349937470849  0.04270511596948259  1.0000
  H   H31       1.0  0.0521807586426846  0.36849517853060115  0.5352344910386293  1.0000
  H   H32       1.0  0.14971533956674682  0.7169283998110032  0.7596358226386856  1.0000
  H   H33       1.0  0.05218083827133311  0.16674074760670268  0.6315069945645533  1.0000
  H   H34       1.0  0.14971462438567334  0.042705932560842506  0.2830695339975193  1.0000
  H   H35       1.0  0.052180860463202805  0.464765229055125  0.8332595970292189  1.0000
  H   H36       1.0  0.14971682914488582  0.24036454631148263  0.9572942959844966  1.0000
  H   H37       1.0  0.44781897259947817  0.46476568532801105  0.6315051957042428  1.0000
  H   H38       1.0  0.3502836595730869  0.2403631667644177  0.2830704306952113  1.0000
  H   H39       1.0  0.4478190739332036  0.36849374398315865  0.8332595055637526  1.0000
  H   H40       1.0  0.3502844947715787  0.7169293177963212  0.9572933281109499  1.0000
  H   H41       1.0  0.4478189932847699  0.16674119356079603  0.5352348295783929  1.0000
  H   H42       1.0  0.35028454975280005  0.042705123582841446  0.759634851964833  1.0000
  H   H43       1.0  0.4478188515449092  0.535234862138239  0.36849471496970654  1.0000
  H   H44       1.0  0.3502837317044652  0.7596358370371232  0.7169271268844993  1.0000
  H   H45       1.0  0.44781940700072204  0.6315068034830987  0.16674040511044544  1.0000
  H   H46       1.0  0.3502855236650859  0.2830714978259934  0.04270751186793121  1.0000
  H   H47       1.0  0.44781883085974533  0.8332599906825209  0.464765717872936  1.0000
  H   H48       1.0  0.3502841551045748  0.9572960596832302  0.24036562036923204  1.0000
  H   H49       1.0  0.7499999984257502  0.8123780787409983  0.9061897808494095  1.0000
  H   H50       1.0  0.7499998505645991  0.09381144956491735  0.18762279714800195  1.0000
  H   H51       1.0  0.750000142652631  0.09381063295339216  0.9061890416510748  1.0000
  H   H52       1.0  0.7499991368124769  0.1876221041091881  0.0938107301964521  1.0000
  H   H53       1.0  0.7499999414627183  0.9061894685728049  0.8123769786094995  1.0000
  H   H54       1.0  0.7500003061642246  0.9061902851843301  0.09381073410668246  1.0000
  H   H55       1.0  0.2500010261660179  0.18762210160431889  0.09381053765705621  1.0000
  H   H56       1.0  0.24999986044836223  0.9061900043345404  0.8123787949127248  1.0000
  H   H57       1.0  0.2500002251496057  0.9061895473919249  0.09381127685513485  1.0000
  H   H58       1.0  0.24999991741068336  0.8123780762361222  0.906189588309246  1.0000
  H   H59       1.0  0.24999911275986625  0.09381081028296022  0.1876219678302036  1.0000
  H   H60       1.0  0.2500007184273231  0.09381026280475169  0.9061892167554718  1.0000
  C   C1        1.0  0.8057515556343445  0.6806581467409031  0.7857064801064553  1.0000
  C   C2        1.0  0.8034304619412468  0.5780069753443369  0.7363143910836384  1.0000
  C   C3        1.0  0.8605901752460456  0.5147352383577796  0.6479847562910094  1.0000
  C   C4        1.0  0.8057521383866656  0.10504793681209885  0.3193429086881494  1.0000
  C   C5        1.0  0.8034297616245284  0.15830772499659668  0.42199423996749624  1.0000
  C   C6        1.0  0.8605901856733242  0.13324415398606965  0.4852645323784088  1.0000
  C   C7        1.0  0.8057530072269544  0.21429270647961818  0.894952393772364  1.0000
  C   C8        1.0  0.8034299110768404  0.26368626912131526  0.8416960635870012  1.0000
  C   C9        1.0  0.8605902968347012  0.35201890596067653  0.8667594175786278  1.0000
  C   C10       1.0  0.8057507390943712  0.319342404311648  0.21429370623276606  1.0000
  C   C11       1.0  0.8034296443485189  0.421993575684958  0.26368579346797105  1.0000
  C   C12       1.0  0.8605900608531982  0.4852656808879985  0.35201510463871694  1.0000
  C   C13       1.0  0.8057521267108783  0.8949522465967019  0.6806576452961364  1.0000
  C   C14       1.0  0.8034296878757062  0.8416928260327053  0.5780059445838575  1.0000
  C   C15       1.0  0.8605893936366088  0.866756397615937  0.5147356961953661  1.0000
  C   C16       1.0  0.8057519146603126  0.7857054680875208  0.10504762194602066  1.0000
  C   C17       1.0  0.8034288816346165  0.736312174555856  0.1583049547639419  1.0000
  C   C18       1.0  0.860589282476475  0.6479804441995967  0.1332432859940695  1.0000
  C   C19       1.0  0.6942489891474325  0.7857058323379319  0.6806573219741736  1.0000
  C   C20       1.0  0.6965707083443108  0.7363120026045423  0.5780065407163093  1.0000
  C   C21       1.0  0.6394109638450375  0.6479809308822482  0.5147362331555173  1.0000
  C   C22       1.0  0.6942468784070287  0.3193427062468146  0.10504777857306638  1.0000
  C   C23       1.0  0.6965699440405332  0.4219936942844171  0.15830656515084476  1.0000
  C   C24       1.0  0.6394095278539567  0.4852641587332088  0.13324392031691443  1.0000
  C   C25       1.0  0.6942468072799886  0.8949504036916096  0.2142910984929001  1.0000
  C   C26       1.0  0.6965699026357515  0.841695057243065  0.2636863782543414  1.0000
  C   C27       1.0  0.639409540211645  0.8667584077866906  0.3520190675928419  1.0000
  C   C28       1.0  0.6942489569686005  0.21429535437449942  0.3193434152678662  1.0000
  C   C29       1.0  0.6965694262107648  0.2636881797103073  0.42199392918026046  1.0000
  C   C30       1.0  0.6394096976904537  0.35201915234944176  0.4852655647848819  1.0000
  C   C31       1.0  0.6942471269716607  0.6806578436885287  0.8949523218900594  1.0000
  C   C32       1.0  0.6965695337247838  0.5780068556741967  0.8416935371011718  1.0000
  C   C33       1.0  0.6394098201016548  0.5147363906526862  0.8667561379126737  1.0000
  C   C34       1.0  0.6942471980985305  0.10504786826874843  0.7857074592823778  1.0000
  C   C35       1.0  0.696570888708955  0.15830412065095353  0.7363138225094019  1.0000
  C   C36       1.0  0.6394111213231711  0.1332427783762853  0.6479816274146373  1.0000
  C   C37       1.0  0.19424881216779266  0.31934303802524516  0.21429410753282946  1.0000
  C   C38       1.0  0.1965699058613382  0.42199347413428967  0.26368693184426917  1.0000
  C   C39       1.0  0.13940953576758372  0.4852651126103851  0.35201793870263737  1.0000
  C   C40       1.0  0.19424625904785137  0.894950772958154  0.6806588803945317  1.0000
  C   C41       1.0  0.19656994938865324  0.8416933612591038  0.5780077197375347  1.0000
  C   C42       1.0  0.13940952533959464  0.8667556587154762  0.5147361537718564  1.0000
  C   C43       1.0  0.1942473605749271  0.7857072047323898  0.10504692031215494  1.0000
  C   C44       1.0  0.19657045672530427  0.73631491564484  0.1583045240522907  1.0000
  C   C45       1.0  0.1394100709676636  0.6479819111617146  0.13324153770496833  1.0000
  C   C46       1.0  0.19424765833903732  0.6806581436774193  0.785706244628379  1.0000
  C   C47       1.0  0.1965694098744208  0.5780069723041165  0.7363141573934229  1.0000
  C   C48       1.0  0.13940965015914492  0.5147342303240093  0.6479842094455462  1.0000
  C   C49       1.0  0.19424758430142933  0.10504602341739401  0.31934076287765834  1.0000
  C   C50       1.0  0.1965706799255571  0.1583055424918527  0.4219910915241982  1.0000
  C   C51       1.0  0.1394109741647824  0.13324260768568758  0.4852619766900689  1.0000
  C   C52       1.0  0.19424910993212308  0.21429360932651054  0.8949537994933651  1.0000
  C   C53       1.0  0.19657214295791195  0.2636858984373445  0.8416961975423617  1.0000
  C   C54       1.0  0.13941174211608853  0.35201926999150857  0.8667587722226955  1.0000
  C   C55       1.0  0.3057513786540512  0.21429216854286182  0.3193400817781864  1.0000
  C   C56       1.0  0.3034303162466756  0.26368435707834686  0.42198995712583803  1.0000
  C   C57       1.0  0.360589403956901  0.35201633471102417  0.48526190588545853  1.0000
  C   C58       1.0  0.30575217581591113  0.68065784174226  0.8949521722883274  1.0000
  C   C59       1.0  0.30342976697194507  0.5780068537046574  0.8416933857108049  1.0000
  C   C60       1.0  0.3605908399479248  0.5147357524787991  0.8667553937676047  1.0000
  C   C61       1.0  0.30575356052194286  0.1050468619016556  0.7857070405480755  1.0000
  C   C62       1.0  0.30342980837703953  0.1583041186814142  0.7363136711185376  1.0000
  C   C63       1.0  0.36058951401129496  0.13324214020238398  0.6479808832685521  1.0000
  C   C64       1.0  0.3057514108336364  0.785704825970825  0.6806569032383436  1.0000
  C   C65       1.0  0.3034296280123954  0.736312000635003  0.5780063893254379  1.0000
  C   C66       1.0  0.36058935653328933  0.6479809294854204  0.5147361257868183  1.0000
  C   C67       1.0  0.30575324083070404  0.31934297343386214  0.1050486333935297  1.0000
  C   C68       1.0  0.30342952049815614  0.42199369231487793  0.15830641376022914  1.0000
  C   C69       1.0  0.36059054770013427  0.48526452498015976  0.13324344530492027  1.0000
  C   C70       1.0  0.30575251291465133  0.8949532179869452  0.21429450042265327  1.0000
  C   C71       1.0  0.3034294790934097  0.8416966964714304  0.2636871327741943  1.0000
  C   C72       1.0  0.36058924647897334  0.8667584063898701  0.3520189602246545  1.0000
  C   C73       1.0  0.749999998222677  0.732112083712124  0.8660565142597462  1.0000
  C   C74       1.0  0.7499998751362326  0.1339440793770521  0.2678882148014523  1.0000
  C   C75       1.0  0.750000118284163  0.13394299374929353  0.8660566214542057  1.0000
  C   C76       1.0  0.74999913701555  0.2678880991380622  0.13394399678611524  1.0000
  C   C77       1.0  0.7499999168913049  0.8660564711168987  0.7321119286003608  1.0000
  C   C78       1.0  0.750000987322416  0.8660559155467595  0.13394261603764318  1.0000
  C   C79       1.0  0.2500010263690912  0.2678880966331931  0.13394380424671226  1.0000
  C   C80       1.0  0.24999983587690625  0.8660553656807367  0.7321128389931174  1.0000
  C   C81       1.0  0.25000024951807387  0.8660571865960235  0.13394369705200398  1.0000
  C   C82       1.0  0.24999991720773815  0.7321127179843145  0.8660569584969764  1.0000
  C   C83       1.0  0.24999913733123696  0.1339421665409546  0.2678861119288811  1.0000
  C   C84       1.0  0.25000266442798147  0.13394517070895529  0.8660593436689084  1.0000
  N   N1        1.0  0.7499999977086989  0.5288869616556156  0.7644437165276942  1.0000
  N   N2        1.0  0.7499999373495145  0.23555851830631264  0.47111439316819304  1.0000
  N   N3        1.0  0.7500007133745682  0.23555595485152037  0.7644447835076136  1.0000
  N   N4        1.0  0.7499991375294359  0.47111422561540917  0.23555706365124252  1.0000
  N   N5        1.0  0.750000511467789  0.7644416645438808  0.528886117878173  1.0000
  N   N6        1.0  0.7499990786536446  0.7644434927111446  0.23555646282711246  1.0000
  N   N7        1.0  0.24999971330412765  0.4711138554667684  0.23555723875564635  1.0000
  N   N8        1.0  0.24999911687378076  0.7644422988160641  0.5288865621148914  1.0000
  N   N9        1.0  0.24999965442779631  0.7644448622708709  0.2355561717759754  1.0000
  N   N10       1.0  0.24999991669349703  0.5288863223736656  0.7644428872101514  1.0000
  N   N11       1.0  0.25000051312323285  0.23555633633691997  0.47111128587444273  1.0000
  N   N12       1.0  0.2500019459386991  0.23555658912371769  0.7644452277453482  1.0000
  O   O1        1.0  0.9048991446969981  0.5566428541029323  0.6120908244014487  1.0000
  O   O2        1.0  0.8588739901372551  0.4219497960901961  0.6168024525696438  1.0000
  O   O3        1.0  0.9049004902854777  0.05544915281364385  0.4433581939192308  1.0000
  O   O4        1.0  0.8588733631778355  0.19485170904304983  0.578051280184134  1.0000
  O   O5        1.0  0.9049006272867928  0.38791050675814615  0.9445580715162477  1.0000
  O   O6        1.0  0.8588740744769086  0.38319672103308733  0.8051512229577112  1.0000
  O   O7        1.0  0.9048990763080555  0.44335706116596896  0.3879088015202328  1.0000
  O   O8        1.0  0.8588738638479682  0.5780511231383869  0.3831974070383381  1.0000
  O   O9        1.0  0.9048983875088011  0.9445521345198601  0.556641333491477  1.0000
  O   O10       1.0  0.8588738340180768  0.8051488425417688  0.42194894706790353  1.0000
  O   O11       1.0  0.9048995640874082  0.6120876688024027  0.05544202056172752  1.0000
  O   O12       1.0  0.8588731227195013  0.6168004496454671  0.19484856453939875  1.0000
  O   O13       1.0  0.595100682052376  0.6120880422235261  0.5566441598102968  1.0000
  O   O14       1.0  0.6411258098653433  0.6168016260841541  0.4219515227844183  1.0000
  O   O15       1.0  0.5950998553996598  0.4433585412457219  0.05544811048221018  1.0000
  O   O16       1.0  0.6411257253297578  0.5780512136904932  0.1948511234119294  1.0000
  O   O17       1.0  0.5950992331542082  0.9445572545126595  0.3879116525593318  1.0000
  O   O18       1.0  0.6411250995184546  0.8051515635636619  0.3831982180498627  1.0000
  O   O19       1.0  0.5951000242085628  0.3879124082079599  0.4433572363600007  1.0000
  O   O20       1.0  0.6411259202050063  0.38319946158555496  0.5780505456102958  1.0000
  O   O21       1.0  0.5951008508606961  0.5566420076962117  0.9445519136220923  1.0000
  O   O22       1.0  0.6411260047396611  0.4219497033563613  0.8051485684950919  1.0000
  O   O23       1.0  0.5951001595270783  0.05544329442927424  0.6120883715444592  1.0000
  O   O24       1.0  0.6411292577094158  0.19484798141861154  0.616801572369397  1.0000
  O   O25       1.0  0.09509990952683013  0.4433562233110919  0.38791059703717673  1.0000
  O   O26       1.0  0.14112506408613262  0.5780500166113497  0.38319823358036587  1.0000
  O   O27       1.0  0.09509922072708582  0.9445503907545999  0.5566414878093369  1.0000
  O   O28       1.0  0.14112634783486303  0.8051484713022675  0.4219490383218271  1.0000
  O   O29       1.0  0.09509974051544391  0.6120896735871709  0.05544224698996201  1.0000
  O   O30       1.0  0.14112695011468193  0.6168054681539061  0.19484963381491124  1.0000
  O   O31       1.0  0.09510063470450801  0.5566424824022747  0.6120908802083349  1.0000
  O   O32       1.0  0.14112584716437482  0.421948788073621  0.6168019070459252  1.0000
  O   O33       1.0  0.095101323503286  0.055446503138000404  0.4433567070380207  1.0000
  O   O34       1.0  0.14112784736172299  0.1948512656911561  0.5780476228851157  1.0000
  O   O35       1.0  0.095101460504452  0.38791150712208394  0.9445580288116561  1.0000
  O   O36       1.0  0.14112855866217439  0.3831957130165192  0.8051506774350017  1.0000
  O   O37       1.0  0.4048996857498183  0.3879104969238867  0.4433552527854516  1.0000
  O   O38       1.0  0.35887324435773854  0.3831952718653396  0.5780469839003572  1.0000
  O   O39       1.0  0.4049011691913052  0.5566421052538146  0.944550468313949  1.0000
  O   O40       1.0  0.3588739856827133  0.42194933429858844  0.8051488274497203  1.0000
  O   O41       1.0  0.4049004778576517  0.05544175078896517  0.6120860203258474  1.0000
  O   O42       1.0  0.3588732979152597  0.19484761236081036  0.6168018313225119  1.0000
  O   O43       1.0  0.40489903001495264  0.6120880412706597  0.5566440865673954  1.0000
  O   O44       1.0  0.3588737908081755  0.6168016246701455  0.4219514140947354  1.0000
  O   O45       1.0  0.40489951694131326  0.4433585402928699  0.055448037239813106  1.0000
  O   O46       1.0  0.3588743630621281  0.5780512122764776  0.19485101472250224  1.0000
  O   O47       1.0  0.4048995514854355  0.9445588947577122  0.3879124852276588  1.0000
  O   O48       1.0  0.35887308046120137  0.8051525665704844  0.3831983784932619  1.0000
  O   O49       1.0  1.2823412020000006e-07  0.36341859572269175  0.4949177258767249  1.0000
  O   O50       1.0  2.323685138e-07  0.13150077488412387  0.6365828394383044  1.0000
  O   O51       1.0  2.516570702999999e-07  0.5050804117367845  0.8685005555474276  1.0000
  O   O52       1.0  7.753775579999996e-08  0.6365819472566301  0.5050818399048607  1.0000
  O   O53       1.0  1.3543363050000008e-07  0.8685004098820315  0.3634177482009804  1.0000
  O   O54       1.0  1.1614516640000004e-07  0.49491976860853265  0.13149976295878218  1.0000
  O   O55       1.0  0.5000001294023236  0.4949181546094295  0.3634181673990682  1.0000
  O   O56       1.0  0.5000000066964604  0.6365820095398363  0.13149977868820872  1.0000
  O   O57       1.0  0.5000001120028729  0.8684999502513904  0.5050806741710331  1.0000
  O   O58       1.0  0.49999958161014757  0.5050823933796522  0.6365817834625815  1.0000
  O   O59       1.0  0.4999997043161032  0.3634175340284074  0.868499903040366  1.0000
  O   O60       1.0  0.5000002557993569  0.13150023009392695  0.49491964433516966  1.0000
