data_image0
_chemical_formula_structural       Zn4H24C20N16O8
_chemical_formula_sum              "Zn4 H24 C20 N16 O8"
_cell_length_a       4.771527484000026
_cell_length_b       9.994149278001194
_cell_length_c       15.907715715001924
_cell_angle_alpha    89.99994444143488
_cell_angle_beta     90.00000948662026
_cell_angle_gamma    90.00000704978812

_space_group_name_H-M_alt    "P 1"
_space_group_IT_number       1

loop_
  _space_group_symop_operation_xyz
  'x, y, z'

loop_
  _atom_site_type_symbol
  _atom_site_label
  _atom_site_symmetry_multiplicity
  _atom_site_fract_x
  _atom_site_fract_y
  _atom_site_fract_z
  _atom_site_occupancy
  Zn  Zn1       1.0  0.3451307574607442  0.6896572341863915  0.35684801614193856  1.0000
  Zn  Zn2       1.0  0.6548680635997783  0.1896574865116847  0.6431520101874497  1.0000
  Zn  Zn3       1.0  0.6548681871318395  0.6896568574416548  0.8568475298903592  1.0000
  Zn  Zn4       1.0  0.3451327296933258  0.1896568626715549  0.1431518678136143  1.0000
  H   H1        1.0  0.08309312938351351  0.44488778063224277  0.6655536260880197  1.0000
  H   H2        1.0  0.9169057575772966  0.944888596990104  0.3344468733641577  1.0000
  H   H3        1.0  0.9169056464110454  0.4448881909030717  0.16555351210898545  1.0000
  H   H4        1.0  0.08309324054975781  0.9448881867192752  0.8344469873431918  1.0000
  H   H5        1.0  0.0134446061965292  0.6034515148550812  0.7108976099139781  1.0000
  H   H6        1.0  0.9865562883707286  0.10345133244894099  0.2891024689376422  1.0000
  H   H7        1.0  0.9865542355699051  0.6034519292097045  0.2108974993937949  1.0000
  H   H8        1.0  0.013444563232418702  0.10345091809426071  0.7891025794577755  1.0000
  H   H9        1.0  0.6770957620776272  0.47271215323557664  0.5670938642801671  1.0000
  H   H10       1.0  0.3229052278321234  0.9727127828118324  0.4329059895939551  1.0000
  H   H11       1.0  0.3229050623140425  0.4727125286770786  0.0670943494279399  1.0000
  H   H12       1.0  0.6770959275958789  0.9727124073698478  0.9329061330719526  1.0000
  H   H13       1.0  0.5929382582121719  0.6273015603736454  0.6142420049092009  1.0000
  H   H14       1.0  0.4070626425130541  0.12730219540633667  0.385757430785425  1.0000
  H   H15       1.0  0.4070626321211321  0.6273019407496604  0.1142424942363576  1.0000
  H   H16       1.0  0.5929382686044422  0.12730181502935523  0.8857581987098015  1.0000
  H   H17       1.0  0.06417885928361501  0.7195105296294242  0.5677638889464305  1.0000
  H   H18       1.0  0.9358199694850244  0.21951112393523434  0.4322361191943145  1.0000
  H   H19       1.0  0.9358199334357309  0.7195109410092826  0.0677637759067053  1.0000
  H   H20       1.0  0.06417889533290831  0.21951071255537613  0.9322362322340323  1.0000
  H   H21       1.0  0.14205535554020093  0.5673015161215814  0.5191736799257143  1.0000
  H   H22       1.0  0.8579455296931542  0.0673010302863233  0.48082642095089057  1.0000
  H   H23       1.0  0.8579454668210359  0.5673009223493679  0.019174191644658795  1.0000
  H   H24       1.0  0.14205541841232622  0.06730162405853692  0.980825909231946  1.0000
  C   C1        1.0  0.7122648382227014  0.4529734736242971  0.7383711336480303  1.0000
  C   C2        1.0  0.28773405082539233  0.9529723643002512  0.2616287322526389  1.0000
  C   C3        1.0  0.2877339798564763  0.45297284641869606  0.2383709884237462  1.0000
  C   C4        1.0  0.7122649091916246  0.9529729915058525  0.7616288774769302  1.0000
  C   C5        1.0  0.915654626019837  0.5168709092402395  0.6799642419261787  1.0000
  C   C6        1.0  0.0843441504276967  0.016870626193501395  0.3200365183016415  1.0000
  C   C7        1.0  0.08434417631568181  0.5168702701085407  0.1799647152270367  1.0000
  C   C8        1.0  0.9156546001319017  0.016870264739303295  0.8200366736268591  1.0000
  C   C9        1.0  0.7681106618312087  0.5607496399475875  0.5985263853460124  1.0000
  C   C10       1.0  0.23189231747542047  0.060749239869331  0.4014737195224427  1.0000
  C   C11       1.0  0.2318902026429299  0.5607500100529776  0.0985262373480964  1.0000
  C   C12       1.0  0.7681085851341223  0.060749870348743705  0.9014744961457237  1.0000
  C   C13       1.0  0.9659110448065321  0.6316751891430243  0.5377992336366617  1.0000
  C   C14       1.0  0.03408985704807319  0.13167668491777104  0.4622001993930097  1.0000
  C   C15       1.0  0.034089804457750006  0.6316755476500476  0.0377997044414613  1.0000
  C   C16       1.0  0.9659110973970189  0.13167632641025764  0.9622003572139801  1.0000
  C   C17       1.0  0.8176419473030734  0.6795232398175983  0.4594089535499961  1.0000
  C   C18       1.0  0.18235896690565312  0.1795236227206587  0.5405904503279186  1.0000
  C   C19       1.0  0.18235914705448414  0.6795238359520113  0.9594097010841196  1.0000
  C   C20       1.0  0.8176438629195318  0.1795230265853291  0.0405909600453711  1.0000
  N   N1        1.0  0.5970355165416096  0.5091803025921919  0.8067178216065614  1.0000
  N   N2        1.0  0.4029632579199501  0.0091792332616976  0.19328231468134047  1.0000
  N   N3        1.0  0.40296335377911424  0.5091796821429783  0.30671768210473255  1.0000
  N   N4        1.0  0.5970354206824453  0.009179853710918498  0.6932824541831692  1.0000
  N   N5        1.0  0.41009537735577345  0.42026024740776774  0.8392058523411023  1.0000
  N   N6        1.0  0.5899055990107911  0.9202593114197767  0.1607940334905678  1.0000
  N   N7        1.0  0.5899055837050824  0.42025963791970616  0.339205722123033  1.0000
  N   N8        1.0  0.41009539266143236  0.9202609214937356  0.6607935350825613  1.0000
  N   N9        1.0  0.4100157116208578  0.3136969362462523  0.7924323559475182  1.0000
  N   N10       1.0  0.5899831414666253  0.8136969286620751  0.20756822343477666  1.0000
  N   N11       1.0  0.5899851961053812  0.3136973273487627  0.2924315971073383  1.0000
  N   N12       1.0  0.4100157527468156  0.813697538146009  0.707567725023175  1.0000
  N   N13       1.0  0.5974336673824965  0.3312542631731574  0.7287242768487017  1.0000
  N   N14       1.0  0.4025672860029985  0.8312541462795552  0.271275663210865  1.0000
  N   N15       1.0  0.40256720970876364  0.3312546432860727  0.22872413732684288  1.0000
  N   N16       1.0  0.5974337436768664  0.8312547667520535  0.7712758027324182  1.0000
  O   O1        1.0  0.9488011893151693  0.7074956617741108  0.3916870943561789  1.0000
  O   O2        1.0  0.0511976363510342  0.2074959324713532  0.6083122924791198  1.0000
  O   O3        1.0  0.05119777911544791  0.7074952496331122  0.8916872067512358  1.0000
  O   O4        1.0  0.9488010465509265  0.2074963446118687  0.108312808709826  1.0000
  O   O5        1.0  0.5516348895352082  0.6916903474817246  0.4635302137698787  1.0000
  O   O6        1.0  0.44836602781479235  0.1916887511714549  0.5364691826956544  1.0000
  O   O7        1.0  0.44836621023848994  0.6916889580429242  0.9635303458891327  1.0000
  O   O8        1.0  0.5516347071117735  0.19168813943796437  0.0364709364543074  1.0000
