data_image0
_chemical_formula_structural       Tb2Cu4H16C16N18O24
_chemical_formula_sum              "Tb2 Cu4 H16 C16 N18 O24"
_cell_length_a       7.259820613666776
_cell_length_b       11.17452431291629
_cell_length_c       11.812975757300693
_cell_angle_alpha    102.3348308031819
_cell_angle_beta     90.00291519486954
_cell_angle_gamma    89.9972599841299

_space_group_name_H-M_alt    "P 1"
_space_group_IT_number       1

loop_
  _space_group_symop_operation_xyz
  'x, y, z'

loop_
  _atom_site_type_symbol
  _atom_site_label
  _atom_site_symmetry_multiplicity
  _atom_site_fract_x
  _atom_site_fract_y
  _atom_site_fract_z
  _atom_site_occupancy
  Tb  Tb1       1.0  0.5008846158321988  0.24999699802636136  0.9999964870501188  1.0000
  Tb  Tb2       1.0  0.49911560024153795  0.7500024484747386  1.871090574894655e-06  1.0000
  Cu  Cu1       1.0  0.8613648947754625  0.8887483742216274  0.5746512055064911  1.0000
  Cu  Cu2       1.0  0.8613537960046499  0.6112580300154988  0.4253430056192684  1.0000
  Cu  Cu3       1.0  0.13862981165426896  0.11125375944951804  0.42535280253130753  1.0000
  Cu  Cu4       1.0  0.1386464201394375  0.38874139620338627  0.574657041372582  1.0000
  H   H1        1.0  0.2291700910893297  0.0516812279399232  0.9275921409964454  1.0000
  H   H2        1.0  0.22917810722874069  0.4483191922191808  0.07240390898578403  1.0000
  H   H3        1.0  0.7708301252021386  0.9483154300492984  0.07240901143038055  1.0000
  H   H4        1.0  0.7708234862571429  0.5516838979123051  0.9275969159124243  1.0000
  H   H5        1.0  0.3110151876718206  0.036734294764606504  0.0477210035041153  1.0000
  H   H6        1.0  0.3110257610514465  0.4632621747459352  0.9522818785840457  1.0000
  H   H7        1.0  0.6889864059357648  0.9632669431196991  0.9522811213011269  1.0000
  H   H8        1.0  0.6889730776576286  0.5367381573316337  0.04771920728730086  1.0000
  H   H9        1.0  0.3087167912977407  0.27204909224605  0.7725883284790244  1.0000
  H   H10       1.0  0.3087083406072821  0.2279375217419783  0.2273988428547042  1.0000
  H   H11       1.0  0.6912779151938934  0.7279421206231121  0.2274074349150652  1.0000
  H   H12       1.0  0.6912877433953496  0.772060031999452  0.7726041928409375  1.0000
  H   H13       1.0  0.27013174590819494  0.13304950588106831  0.7805226091673847  1.0000
  H   H14       1.0  0.27014685144308  0.3669453855197559  0.21946679140416586  1.0000
  H   H15       1.0  0.7298643381524669  0.8669434882301774  0.21947776531682447  1.0000
  H   H16       1.0  0.7298533647200075  0.6330558523818652  0.780535333382943  1.0000
  C   C1        1.0  0.7173209151252706  0.041245932917135505  0.7759513728472316  1.0000
  C   C2        1.0  0.7173447953408215  0.4587553517533679  0.22403407267881192  1.0000
  C   C3        1.0  0.2826710362518909  0.9587607908421492  0.22405276308901986  1.0000
  C   C4        1.0  0.28266230793644104  0.5412422829784164  0.7759622077572674  1.0000
  C   C5        1.0  0.7926871200804301  0.3593691576814565  0.8096360252673734  1.0000
  C   C6        1.0  0.7927261174746576  0.1406355655279938  0.19036608201395208  1.0000
  C   C7        1.0  0.2073089636084333  0.6406321208365499  0.1903627217630515  1.0000
  C   C8        1.0  0.2072740985828929  0.8593657027969573  0.8096335094964361  1.0000
  C   C9        1.0  0.8154981721151132  0.12395729541819378  0.7136581373991505  1.0000
  C   C10       1.0  0.8155828589623367  0.37605458719023227  0.2863123497075222  1.0000
  C   C11       1.0  0.18450755409789818  0.876042955443907  0.28634970396744547  1.0000
  C   C12       1.0  0.18442148930420646  0.6239448998233713  0.7136826307852645  1.0000
  C   C13       1.0  0.8611743099944746  0.2485188604536647  0.7264576540267315  1.0000
  C   C14       1.0  0.8612450668463439  0.2514889738454187  0.2735261182274158  1.0000
  C   C15       1.0  0.13882590629981456  0.7514814310421444  0.27354680956504757  1.0000
  C   C16       1.0  0.1387579040812241  0.7485104827621644  0.7264713955239657  1.0000
  N   N1        1.0  0.9038525702225045  0.06418770844040722  0.6171382645926897  1.0000
  N   N2        1.0  0.9039477033818316  0.43582658318857886  0.382831298695514  1.0000
  N   N3        1.0  0.0961393812735452  0.9358135295651094  0.3828638600856422  1.0000
  N   N4        1.0  0.0960607771830553  0.5641729139141775  0.6171628374260862  1.0000
  N   N5        1.0  0.9771209316088729  0.255800666693176  0.6382867781709365  1.0000
  N   N6        1.0  0.9772146439217622  0.24420980885044943  0.36169614680432727  1.0000
  N   N7        1.0  0.0228655100388053  0.7442005916638269  0.361713657583728  1.0000
  N   N8        1.0  0.022791081894816007  0.7557896477224945  0.6383013669833063  1.0000
  N   N9        1.0  0.6948173483084403  0.750025689134276  0.4999408293495692  1.0000
  N   N10       1.0  0.3051856235537542  0.24996532080876932  0.5000718226647934  1.0000
  N   N11       1.0  0.0003579633863211  0.8562495662646938  0.42578176147723207  1.0000
  N   N12       1.0  0.0002713454402752  0.6437393260809969  0.5742390369087147  1.0000
  N   N13       1.0  0.9996326106300445  0.14375168189925353  0.5742195187573955  1.0000
  N   N14       1.0  0.9997357577247784  0.3562610667393358  0.4257569825179601  1.0000
  N   N15       1.0  0.5280694309484701  0.7499810025670754  0.5000108203192042  1.0000
  N   N16       1.0  0.4719238975214353  0.2500258225860037  0.49998487137943215  1.0000
  N   N17       1.0  0.3683671411006841  0.7499492742860525  0.5000650492683718  1.0000
  N   N18       1.0  0.6316358284624214  0.2500714730230058  0.4999183599776771  1.0000
  O   O1        1.0  0.6527891278115376  0.07612791370902984  0.8765983081399044  1.0000
  O   O2        1.0  0.6527714642973947  0.42387219533260634  0.12338907683786723  1.0000
  O   O3        1.0  0.34721935321345393  0.9238750850658806  0.12341011667912478  1.0000
  O   O4        1.0  0.3472301289327504  0.5761300599452853  0.8766047981836849  1.0000
  O   O5        1.0  0.2799413694857336  0.09977313082458043  0.0025633619373409  1.0000
  O   O6        1.0  0.2799327535507672  0.40022237951119166  0.9974307131471677  1.0000
  O   O7        1.0  0.7200643564268746  0.9002253894836656  0.9974356462293912  1.0000
  O   O8        1.0  0.7200688400568183  0.5997788583731135  0.0025714116580743793  1.0000
  O   O9        1.0  0.3553732542145411  0.20197233485268382  0.8021251394290303  1.0000
  O   O10       1.0  0.3553875179030825  0.29801568132999284  0.1978781990237195  1.0000
  O   O11       1.0  0.6446186975221053  0.7980215651518847  0.19787627389841594  1.0000
  O   O12       1.0  0.6446058110698232  0.7019819130105136  0.8021214589333637  1.0000
  O   O13       1.0  0.682364646879627  0.33920590337962864  0.8873420229989153  1.0000
  O   O14       1.0  0.6823819815823883  0.16078958472107985  0.11266309602439863  1.0000
  O   O15       1.0  0.31764107920886897  0.6607925662230657  0.11266120729569447  1.0000
  O   O16       1.0  0.31762374436257096  0.8392052919394645  0.8873334454029519  1.0000
  O   O17       1.0  0.7113423702485592  0.9280343815919566  0.7212850270322165  1.0000
  O   O18       1.0  0.7113358488931708  0.5719629809418336  0.2787016679766481  1.0000
  O   O19       1.0  0.2886619782251855  0.07197140574677971  0.27872060344629557  1.0000
  O   O20       1.0  0.2886602351161399  0.42803184513437037  0.7212990954516699  1.0000
  O   O21       1.0  0.8444072339072834  0.46422763502211967  0.7987727046361145  1.0000
  O   O22       1.0  0.8444479542010157  0.0357720021603356  0.2012401193495279  1.0000
  O   O23       1.0  0.1555957372313443  0.5357717607387971  0.20122987566871595  1.0000
  O   O24       1.0  0.155546752270574  0.9642273937044766  0.7987624608465254  1.0000
