data_image0
_chemical_formula_structural       CdH32C20S2N4O6
_chemical_formula_sum              "Cd1 H32 C20 S2 N4 O6"
_cell_length_a       7.495276575652676
_cell_length_b       8.94998933028309
_cell_length_c       9.52459300899797
_cell_angle_alpha    72.80115467816597
_cell_angle_beta     84.50761589728812
_cell_angle_gamma    71.85816487592169

_space_group_name_H-M_alt    "P 1"
_space_group_IT_number       1

loop_
  _space_group_symop_operation_xyz
  'x, y, z'

loop_
  _atom_site_type_symbol
  _atom_site_label
  _atom_site_symmetry_multiplicity
  _atom_site_fract_x
  _atom_site_fract_y
  _atom_site_fract_z
  _atom_site_occupancy
  Cd  Cd1       1.0  0.4999989299533991  0.9999983224981791  1.3458045770441671e-06  1.0000
  H   H1        1.0  0.7623638016090201  0.9974890620067638  0.19173997905311782  1.0000
  H   H2        1.0  0.23763680108319818  0.0025088923892156003  0.8082627376032433  1.0000
  H   H3        1.0  0.716977903488214  0.1978726184669739  0.84755967609739  1.0000
  H   H4        1.0  0.283019191314672  0.8021277975342612  0.1524426395061056  1.0000
  H   H5        1.0  0.8780896441832625  0.5368632221950094  0.9113854638675534  1.0000
  H   H6        1.0  0.12191548256030418  0.46313717876789434  0.08861307760138706  1.0000
  H   H7        1.0  0.8964718208482979  0.3811041420456078  0.7392721540451814  1.0000
  H   H8        1.0  0.10352709921238566  0.6188987445035677  0.2607240910863097  1.0000
  H   H9        1.0  0.08954774109449905  0.7421172015562049  0.4006780468207652  1.0000
  H   H10       1.0  0.9104538562797444  0.2578856799801912  0.5993169402658722  1.0000
  H   H11       1.0  0.08470640226529713  0.8905548334553328  0.5804343832167831  1.0000
  H   H12       1.0  0.9153002594613187  0.1094529202817185  0.4195588705564433  1.0000
  H   H13       1.0  0.5998064592620125  0.115469722344848  0.3866276908174625  1.0000
  H   H14       1.0  0.40019589737487127  0.8845270012485074  0.6133752263653278  1.0000
  H   H15       1.0  0.5423266567120137  0.24610582461734506  0.20481021473204916  1.0000
  H   H16       1.0  0.4576762187458813  0.7538933435779781  0.7951919909953202  1.0000
  H   H17       1.0  0.38476972498572337  0.1393950602179856  0.3041561542495828  1.0000
  H   H18       1.0  0.6152331647921798  0.860604095331844  0.6958481536974117  1.0000
  H   H19       1.0  0.7509121891767592  0.7428365153473633  0.2849005509884107  1.0000
  H   H20       1.0  0.24908572188189734  0.2571614567068892  0.7151013214931794  1.0000
  H   H21       1.0  0.6625026836997492  0.8266872006042618  0.43351697344694173  1.0000
  H   H22       1.0  0.3374979189924687  0.1733107537917177  0.5664857432094195  1.0000
  H   H23       1.0  0.5434492534859316  0.32305020733913636  0.5953462283602348  1.0000
  H   H24       1.0  0.4565495952616202  0.6769489778594748  0.40465628776969  1.0000
  H   H25       1.0  0.6695644938422944  0.11169767133556259  0.6607366275249545  1.0000
  H   H26       1.0  0.33043529259415994  0.8883027270074066  0.3392665322533188  1.0000
  H   H27       1.0  0.508261765841418  0.4859156270322628  0.7583135331892732  1.0000
  H   H28       1.0  0.49173440559257386  0.5140835631791278  0.24169024098551256  1.0000
  H   H29       1.0  0.3223629240313812  0.40614734948128006  0.8467937813402386  1.0000
  H   H30       1.0  0.6776340636583739  0.5938493967831207  0.15320954971263478  1.0000
  H   H31       1.0  0.5134136435055722  0.3929015184409152  0.9519713974474513  1.0000
  H   H32       1.0  0.48658335850418405  0.6070952151779919  0.04803403582504731  1.0000
  C   C1        1.0  0.9838826681980563  0.7230369567882845  0.7579291352294888  1.0000
  C   C2        1.0  0.01611798432728761  0.2769647179265107  0.24206415709899423  1.0000
  C   C3        1.0  0.9287214398201512  0.5805270643535678  0.8004327240444482  1.0000
  C   C4        1.0  0.07128200429188779  0.4194782687625321  0.1995593458996154  1.0000
  C   C5        1.0  0.9366964474650461  0.4933177480896871  0.6998488368740465  1.0000
  C   C6        1.0  0.06330421222029503  0.5066839203023578  0.3001455065642417  1.0000
  C   C7        1.0  0.996619138293923  0.5463263643121932  0.5536677716536076  1.0000
  C   C8        1.0  0.0033815428714234538  0.45367528511160754  0.4463297251141255  1.0000
  C   C9        1.0  0.048558140435176325  0.6917595744176451  0.5131616017476048  1.0000
  C   C10       1.0  0.9514426192032986  0.30824577003397735  0.48683067513150036  1.0000
  C   C11       1.0  0.04386598752441983  0.7783960521882918  0.6138306128529647  1.0000
  C   C12       1.0  0.9561329468562717  0.22160682171539037  0.3861677344981515  1.0000
  C   C13       1.0  0.5334019934084395  0.1308960325299395  0.2826239247834081  1.0000
  C   C14       1.0  0.46659954697268097  0.8691031350103984  0.7173794355212945  1.0000
  C   C15       1.0  0.6335765201610783  0.8333685613881415  0.32014851146039547  1.0000
  C   C16       1.0  0.36642449423902684  0.16662816787297172  0.6798545091899157  1.0000
  C   C17       1.0  0.45189023443811743  0.7912500199844245  0.3170696264156589  1.0000
  C   C18       1.0  0.5481095519983371  0.2087503783585447  0.6829335333626145  1.0000
  C   C19       1.0  0.4741050342303126  0.3867857102416964  0.8466418423640647  1.0000
  C   C20       1.0  0.5258964989908037  0.6132134636213918  0.15336046683081864  1.0000
  S   S1        1.0  0.9829503487228662  0.829747470968911  0.8894515154803102  1.0000
  S   S2        1.0  0.017046305732137095  0.1702541954581775  0.11054629168997819  1.0000
  N   N1        1.0  0.6268720895166313  0.9952443631666126  0.21917898223128426  1.0000
  N   N2        1.0  0.3731271709388082  0.0047535968971317  0.7808238378925976  1.0000
  N   N3        1.0  0.42320332957783796  0.7751645934084266  0.17230265654117005  1.0000
  N   N4        1.0  0.5767937723850523  0.22483581627006544  0.827700710172138  1.0000
  O   O1        1.0  0.8147324168299054  0.8172472276635148  0.9810146602260658  1.0000
  O   O2        1.0  0.18526450641984837  0.18274957550561058  0.0189792108384879  1.0000
  O   O3        1.0  0.9730751202862392  0.9989935145086691  0.8043716092752715  1.0000
  O   O4        1.0  0.0269229050455522  0.0010081209596748  0.19563029886675307  1.0000
  O   O5        1.0  0.15809090598511227  0.7423492776584483  0.9718597321436774  1.0000
  O   O6        1.0  0.8419034971842125  0.25765115600106014  0.028141739285047183  1.0000
