data_image0
_chemical_formula_structural       Zn2H32C20N12Cl4
_chemical_formula_sum              "Zn2 H32 C20 N12 Cl4"
_cell_length_a       6.332332627231573
_cell_length_b       7.2450942885419565
_cell_length_c       18.120122853160613
_cell_angle_alpha    101.19141795369588
_cell_angle_beta     90.00096345407167
_cell_angle_gamma    115.8837619331943

_space_group_name_H-M_alt    "P 1"
_space_group_IT_number       1

loop_
  _space_group_symop_operation_xyz
  'x, y, z'

loop_
  _atom_site_type_symbol
  _atom_site_label
  _atom_site_symmetry_multiplicity
  _atom_site_fract_x
  _atom_site_fract_y
  _atom_site_fract_z
  _atom_site_occupancy
  Zn  Zn1       1.0  0.8199007403190212  0.000192375632082102  0.7498907185213071  1.0000
  Zn  Zn2       1.0  0.18008867098883738  0.9997979343474057  0.25010719135423193  1.0000
  H   H1        1.0  0.4016223878256256  0.2736518294092392  0.7407334880313173  1.0000
  H   H2        1.0  0.12779834521172265  0.7264203906725798  0.7591190438488127  1.0000
  H   H3        1.0  0.5983719437106956  0.7263388455447028  0.2592738311341805  1.0000
  H   H4        1.0  0.8721754084879978  0.27355754760750983  0.2408829327964312  1.0000
  H   H5        1.0  0.8558975389375761  0.8825439175162941  0.567983115219036  1.0000
  H   H6        1.0  0.9727051834460456  0.11731095901267002  0.9318990476632508  1.0000
  H   H7        1.0  0.14408389116238146  0.11744622215913132  0.4320103668527224  1.0000
  H   H8        1.0  0.027328992457611972  0.8827057267549708  0.06809250328617374  1.0000
  H   H9        1.0  0.6901593786255662  0.12159669932690063  0.5963645369511426  1.0000
  H   H10       1.0  0.5679026571605379  0.8778368489225203  0.9034861455825479  1.0000
  H   H11       1.0  0.3098418903418577  0.8783920579651225  0.4036338118465893  1.0000
  H   H12       1.0  0.4320977413896118  0.12216912714968232  0.09651180078511601  1.0000
  H   H13       1.0  0.742766504433938  0.35589973437799943  0.6629430240235052  1.0000
  H   H14       1.0  0.3862509336100645  0.6436180971286589  0.8368992597169651  1.0000
  H   H15       1.0  0.25722544835566197  0.644083020560842  0.3370620628719081  1.0000
  H   H16       1.0  0.6137510831596986  0.35638163682074264  0.16309933614164862  1.0000
  H   H17       1.0  0.6482776294098471  0.49651192779390385  0.5558470947621786  1.0000
  H   H18       1.0  0.15148534350828421  0.5027882642946865  0.9439347245091909  1.0000
  H   H19       1.0  0.35172146650737107  0.5034882808501636  0.4441636779842569  1.0000
  H   H20       1.0  0.8485285152003785  0.4972193657072026  0.056065549964237994  1.0000
  H   H21       1.0  0.6042129377957437  0.2610848819743907  0.4918437683743591  1.0000
  H   H22       1.0  0.34213793046133384  0.7383070580847286  0.007938856617400288  1.0000
  H   H23       1.0  0.39577807690672995  0.7389275967231301  0.5081601705472707  1.0000
  H   H24       1.0  0.6578703777353284  0.2617052653896366  0.9920612075586633  1.0000
  H   H25       1.0  0.06808093924922079  0.5850154843214029  0.5853643536381695  1.0000
  H   H26       1.0  0.483550420433268  0.41487504543300696  0.9146350428348596  1.0000
  H   H27       1.0  0.9319180165410901  0.4149844442983834  0.4146392237066224  1.0000
  H   H28       1.0  0.5164713175307016  0.5851420312902677  0.08536647119548493  1.0000
  H   H29       1.0  0.024862661863458924  0.3350322181281769  0.5362311351228115  1.0000
  H   H30       1.0  0.6894660528509393  0.6652039393807243  0.9638118644821246  1.0000
  H   H31       1.0  0.9751291624738846  0.6649692404276025  0.46377144972593237  1.0000
  H   H32       1.0  0.3105375056353736  0.3348051998242454  0.0361868640570933  1.0000
  C   C1        1.0  0.30024809297309935  0.185072441417347  0.6868091566353485  1.0000
  C   C2        1.0  0.11484632752302572  0.814897954997811  0.8130595335813879  1.0000
  C   C3        1.0  0.6997335468693819  0.8149086372440452  0.3131930486076016  1.0000
  C   C4        1.0  0.8851486578005991  0.18509086853006093  0.1869404758021957  1.0000
  C   C5        1.0  0.02883801918756019  0.9851011628947289  0.5977337302592076  1.0000
  C   C6        1.0  0.043147481695747614  0.014761873072714603  0.9021603242641519  1.0000
  C   C7        1.0  0.9711537581422578  0.014893881619322301  0.4022650761681419  1.0000
  C   C8        1.0  0.9568567491399591  0.985258092007328  0.09783477688890231  1.0000
  C   C9        1.0  0.6453609654275427  0.2540421303536746  0.6089231217548132  1.0000
  C   C10       1.0  0.39069419320819787  0.7454447145438295  0.8909228453347923  1.0000
  C   C11       1.0  0.3546387803854216  0.7459498989839093  0.39107877675805014  1.0000
  C   C12       1.0  0.6093053594785545  0.25456588916871675  0.10907323017680431  1.0000
  C   C13       1.0  0.7038703813815843  0.3701632917466071  0.5446220096939527  1.0000
  C   C14       1.0  0.3332077499733757  0.6292343781137787  0.9551937351001953  1.0000
  C   C15       1.0  0.29614194144785705  0.6298444248203126  0.45538047877634824  1.0000
  C   C16       1.0  0.6668021195520455  0.3707842297566159  0.0448067865155224  1.0000
  C   C17       1.0  0.9678537922391188  0.45860850689079774  0.5360661265504305  1.0000
  C   C18       1.0  0.5091796623296504  0.541286348798387  0.9639084096579326  1.0000
  C   C19       1.0  0.03215772589712174  0.5414007595375879  0.46393592280769985  1.0000
  C   C20       1.0  0.49082781272839093  0.45873378779686663  0.036091119380316214  1.0000
  N   N1        1.0  0.06563439104451162  0.0700484839775299  0.6736080620186655  1.0000
  N   N2        1.0  0.9953564945358626  0.9300676315508127  0.8262660832131489  1.0000
  N   N3        1.0  0.9343550594877714  0.9299355842828659  0.3263904973749518  1.0000
  N   N4        1.0  0.004644700924380598  0.0699241388991112  0.1737291733633768  1.0000
  N   N5        1.0  0.3962777740992821  0.1681605215255786  0.6216124416563034  1.0000
  N   N6        1.0  0.22753072055821374  0.8314834042839151  0.8782802475547342  1.0000
  N   N7        1.0  0.6037243642352907  0.8318268151469541  0.37838966720820383  1.0000
  N   N8        1.0  0.772468901744162  0.1685178583903308  0.1217173557264104  1.0000
  N   N9        1.0  0.22635163857273005  0.0417920338569715  0.564040489396568  1.0000
  N   N10       1.0  0.18378868819070254  0.9577830437098387  0.9358634419892911  1.0000
  N   N11       1.0  0.7736441730020761  0.9581952828900883  0.4359610660840545  1.0000
  N   N12       1.0  0.816239238351912  0.04223693685483451  0.06413221224912041  1.0000
  Cl  Cl1       1.0  0.49913982147740654  0.7263287930773927  0.6844480053006096  1.0000
  Cl  Cl2       1.0  0.7726556891132077  0.2740448621383322  0.8153331454773183  1.0000
  Cl  Cl3       1.0  0.5008487370796217  0.27367245088252196  0.3155490446780718  1.0000
  Cl  Cl4       1.0  0.22733848268399726  0.7259486536508674  0.1846666535275006  1.0000
