data_image0
_chemical_formula_structural       Cd2H16C12N28O8
_chemical_formula_sum              "Cd2 H16 C12 N28 O8"
_cell_length_a       7.8796416391399875
_cell_length_b       9.064627699604001
_cell_length_c       9.378834597001989
_cell_angle_alpha    89.99992956294113
_cell_angle_beta     89.99997936053262
_cell_angle_gamma    93.22376444808457

_space_group_name_H-M_alt    "P 1"
_space_group_IT_number       1

loop_
  _space_group_symop_operation_xyz
  'x, y, z'

loop_
  _atom_site_type_symbol
  _atom_site_label
  _atom_site_symmetry_multiplicity
  _atom_site_fract_x
  _atom_site_fract_y
  _atom_site_fract_z
  _atom_site_occupancy
  Cd  Cd1       1.0  0.5000002625181493  0.5000006562122721  0.49999991528755316  1.0000
  Cd  Cd2       1.0  0.4999998381111439  0.9999999466515488  3.964245749000001e-07  1.0000
  H   H1        1.0  0.147373996777219  0.40723449842315057  0.5080820513822175  1.0000
  H   H2        1.0  0.8526257854101614  0.09276595496825019  0.0080818433884886  1.0000
  H   H3        1.0  0.852625184154256  0.5927657123298786  0.4919188454242942  1.0000
  H   H4        1.0  0.1473733955213135  0.9072342557847792  0.9919190534180302  1.0000
  H   H5        1.0  0.1519205611153183  0.5764232117110097  0.46850667073798047  1.0000
  H   H6        1.0  0.8480792994339623  0.9235767835061778  0.9685077133637775  1.0000
  H   H7        1.0  0.8480798886931068  0.4235769957805431  0.531493159837794  1.0000
  H   H8        1.0  0.1519211503741928  0.0764234239846857  0.03149318344254941  1.0000
  H   H9        1.0  0.7201952016585125  0.4482371156929189  0.8827937409615885  1.0000
  H   H10       1.0  0.2798055821617567  0.051761743507718394  0.3827937551439504  1.0000
  H   H11       1.0  0.2798050976941795  0.5517608819326583  0.11720608961552162  1.0000
  H   H12       1.0  0.7201948676466683  0.9482384639838344  0.6172060754318238  1.0000
  H   H13       1.0  0.8285467877558903  0.5909243966091681  0.7869021949905745  1.0000
  H   H14       1.0  0.17145316585475712  0.9090758341479274  0.28690075118998953  1.0000
  H   H15       1.0  0.17145366205254214  0.40907581088238476  0.2130976355851999  1.0000
  H   H16       1.0  0.8285460150775422  0.09092437660718389  0.7130969469248711  1.0000
  C   C1        1.0  0.6622427546612926  0.4222083372864773  0.1664702251567434  1.0000
  C   C2        1.0  0.3377567959063157  0.0777897008113655  0.6664707669480096  1.0000
  C   C3        1.0  0.3377563510428628  0.5777907685349459  0.8335285391893379  1.0000
  C   C4        1.0  0.6622448475509232  0.9222093984850303  0.3335290636282409  1.0000
  C   C5        1.0  0.7787653187312741  0.5490778859253922  0.14568716619955072  1.0000
  C   C6        1.0  0.2212345567869392  0.9509203181184842  0.6456872999184782  1.0000
  C   C7        1.0  0.22123505584929148  0.4509212166331763  0.8543126643768845  1.0000
  C   C8        1.0  0.7787671618981663  0.04907988611089559  0.3543125306571042  1.0000
  C   C9        1.0  0.8308053407521642  0.6085491773115946  0.0075878755174088  1.0000
  C   C10       1.0  0.16919468076097385  0.891450310777934  0.5075880956579795  1.0000
  C   C11       1.0  0.16919376495226152  0.3914499285105252  0.9924098225981198  1.0000
  C   C12       1.0  0.8308070379244016  0.1085498934521425  0.49241066868705025  1.0000
  N   N1        1.0  0.5698402250608083  0.38094721891596345  0.2833536555852092  1.0000
  N   N2        1.0  0.4301593408393742  0.11905177251885848  0.7833541203687844  1.0000
  N   N3        1.0  0.4301601495197502  0.619051883642605  0.7166461749912331  1.0000
  N   N4        1.0  0.5698423778454609  0.8809484317098394  0.2166467764373508  1.0000
  N   N5        1.0  0.48288793655591183  0.2552372159076768  0.24733434288940262  1.0000
  N   N6        1.0  0.5171116478021959  0.24476182224446313  0.7473335657428706  1.0000
  N   N7        1.0  0.5171124380246538  0.7447618866508918  0.7526654876870396  1.0000
  N   N8        1.0  0.4828900708831866  0.755238381985613  0.25266519860215914  1.0000
  N   N9        1.0  0.5213876095829092  0.22452190168907993  0.11391052881295849  1.0000
  N   N10       1.0  0.47861077426972554  0.2754773127739369  0.6139097268284104  1.0000
  N   N11       1.0  0.4786114961209762  0.775477204131654  0.8860893017636684  1.0000
  N   N12       1.0  0.5213896755389698  0.724522894718312  0.3860890375168111  1.0000
  N   N13       1.0  0.6325072251076235  0.3261465937634397  0.0595838724706468  1.0000
  N   N14       1.0  0.36749245546032944  0.17385268789747946  0.5595842911156909  1.0000
  N   N15       1.0  0.3674918805965319  0.6738525120579908  0.9404148918754345  1.0000
  N   N16       1.0  0.6325079943480959  0.8261475195940731  0.4404155394600835  1.0000
  N   N17       1.0  0.8501128231858744  0.6308350937676933  0.24675083603317918  1.0000
  N   N18       1.0  0.14988580689480097  0.8691640873931943  0.746751088500922  1.0000
  N   N19       1.0  0.1498862825180112  0.3691640120530479  0.7532489945434548  1.0000
  N   N20       1.0  0.8501146429133541  0.13083612009766907  0.2532498083054051  1.0000
  N   N21       1.0  0.9263448818613469  0.7324401768515969  0.029573461453551903  1.0000
  N   N22       1.0  0.07365385950912885  0.7675592859857046  0.5295727915022539  1.0000
  N   N23       1.0  0.07365549271921168  0.26755892570697176  0.9704263691228903  1.0000
  N   N24       1.0  0.9263453214226159  0.23244092476802078  0.47042703907371225  1.0000
  N   N25       1.0  0.7891324679067252  0.547121204374825  0.881801011131806  1.0000
  N   N26       1.0  0.21086736184619778  0.9528777983662874  0.3818005695802213  1.0000
  N   N27       1.0  0.2108679066732861  0.45287789818235774  0.1182009519057416  1.0000
  N   N28       1.0  0.7891317438574176  0.04712130745375729  0.6182003272269654  1.0000
  O   O1        1.0  0.9410040193089272  0.7440316366923484  0.180314995486853  1.0000
  O   O2        1.0  0.05899464481583997  0.7559676306347282  0.6803154099782205  1.0000
  O   O3        1.0  0.05899508639495111  0.25596746912838597  0.8196848350897739  1.0000
  O   O4        1.0  0.9410045361159121  0.244032580118997  0.31968442059774566  1.0000
  O   O5        1.0  0.20048298480891447  0.4814188571679096  0.44311657166633717  1.0000
  O   O6        1.0  0.7995179185553596  0.018582133660601095  0.9431170439847918  1.0000
  O   O7        1.0  0.7995175402273773  0.5185824552566345  0.5568832589087691  1.0000
  O   O8        1.0  0.20048253125306556  0.9814180738309587  0.0568827865909824  1.0000
