data_image0
_chemical_formula_structural       Mg6H36C54N6O24
_chemical_formula_sum              "Mg6 H36 C54 N6 O24"
_cell_length_a       6.8541933610178996
_cell_length_b       31.19470768454021
_cell_length_c       31.20396008697433
_cell_angle_alpha    119.44486982541973
_cell_angle_beta     94.21984645727912
_cell_angle_gamma    94.19510437979585

_space_group_name_H-M_alt    "P 1"
_space_group_IT_number       1

loop_
  _space_group_symop_operation_xyz
  'x, y, z'

loop_
  _atom_site_type_symbol
  _atom_site_label
  _atom_site_symmetry_multiplicity
  _atom_site_fract_x
  _atom_site_fract_y
  _atom_site_fract_z
  _atom_site_occupancy
  Mg  Mg1       1.0  0.6448845328587964  0.36999060789881344  0.6735749244784374  1.0000
  Mg  Mg2       1.0  0.09593236719122435  0.6933528269830301  0.322352797918505  1.0000
  Mg  Mg3       1.0  0.27485257250436496  0.30359538003587255  0.6301346107300533  1.0000
  Mg  Mg4       1.0  0.40251381945526543  0.6290143601962157  0.306662162344722  1.0000
  Mg  Mg5       1.0  0.9714520723625881  0.32652466312768513  0.6965049838532097  1.0000
  Mg  Mg6       1.0  0.7736068871126136  0.6776343946738519  0.3709752988237796  1.0000
  H   H1        1.0  0.2703178113874642  0.4809685339313389  0.0999817126827409  1.0000
  H   H2        1.0  0.33940880383374855  0.580005811846618  0.1844157642460615  1.0000
  H   H3        1.0  0.6141620540189267  0.5416628885465825  0.16630310420430308  1.0000
  H   H4        1.0  0.7938844972405051  0.4958100379857979  0.09324736513082846  1.0000
  H   H5        1.0  0.18859662268485516  0.5797825190325268  0.0735700555717429  1.0000
  H   H6        1.0  0.9512395749653636  0.5458197384890936  0.0564797399701789  1.0000
  H   H7        1.0  0.23494057225766332  0.5225903051490517  0.9790368945628674  1.0000
  H   H8        1.0  0.08140942188314425  0.5705187310374881  0.994179310678483  1.0000
  H   H9        1.0  0.08690052700904964  0.47306450626199836  0.9043101452394071  1.0000
  H   H10       1.0  0.019118969055739343  0.42972520237618267  0.8198587330877275  1.0000
  H   H11       1.0  0.3268579955731071  0.3881017557985515  0.8355763797047616  1.0000
  H   H12       1.0  0.5655245289055985  0.43880571848673355  0.9123805091252352  1.0000
  H   H13       1.0  0.7900903836008483  0.619046471662827  0.5191841803533493  1.0000
  H   H14       1.0  0.7599960847494815  0.6045245054472161  0.4200462429927328  1.0000
  H   H15       1.0  0.07303005185400471  0.6244955340985497  0.4583589094675348  1.0000
  H   H16       1.0  0.2992376337123801  0.5974308471418509  0.5042781838024838  1.0000
  H   H17       1.0  0.6098598699643247  0.4939135905717292  0.4203477252246302  1.0000
  H   H18       1.0  0.4061506609637248  0.5107099824994561  0.45415339333744953  1.0000
  H   H19       1.0  0.7126030119234629  0.4564352953216541  0.4775204708619328  1.0000
  H   H20       1.0  0.5114897488617772  0.4237273480017052  0.42949961887514837  1.0000
  H   H21       1.0  0.6133196396330263  0.4310458348043439  0.5268446515684317  1.0000
  H   H22       1.0  0.5885941465448639  0.38991504967025736  0.5701568907767935  1.0000
  H   H23       1.0  0.9381839530900038  0.4473850087522492  0.6117162178109581  1.0000
  H   H24       1.0  0.1261826446687095  0.47345484109759167  0.5610029071776381  1.0000
  H   H25       1.0  0.17125003657123733  0.9000464728506542  0.38094285888266916  1.0000
  H   H26       1.0  0.1553565963221003  0.8155367254683765  0.39549560077333723  1.0000
  H   H27       1.0  0.4483410590426899  0.8337808040696614  0.3752470811195111  1.0000
  H   H28       1.0  0.7014692932457508  0.9068265624858823  0.40245875895494265  1.0000
  H   H29       1.0  0.11541014325943863  0.9263699228931369  0.5060630486592217  1.0000
  H   H30       1.0  0.8954132107217135  0.9435626750413063  0.489179307038235  1.0000
  H   H31       1.0  0.2566991395981617  0.021000667325154196  0.5433995676571612  1.0000
  H   H32       1.0  0.08829792935895849  0.005781895789503696  0.5761769032756804  1.0000
  H   H33       1.0  0.1827227431281102  0.09585130542593838  0.5689738828104325  1.0000
  H   H34       1.0  0.1989927739277562  0.18026800578707025  0.610130210166929  1.0000
  H   H35       1.0  0.4909994588462681  0.1644176109598376  0.552662813889846  1.0000
  H   H36       1.0  0.6530061063236233  0.0876333129420388  0.52654233682442  1.0000
  C   C1        1.0  0.1942778710430417  0.5034212998788091  0.051096789171417405  1.0000
  C   C2        1.0  0.07953430654794859  0.5342835624602386  0.1350433383846834  1.0000
  C   C3        1.0  0.1798315703658844  0.5715433166379994  0.1801036160060009  1.0000
  C   C4        1.0  0.08068942352348066  0.5994848049384273  0.22129399511187134  1.0000
  C   C5        1.0  0.8716386685437743  0.5869570569540767  0.2161029601354515  1.0000
  C   C6        1.0  0.7733098915741082  0.5502541927728969  0.1693672849548093  1.0000
  C   C7        1.0  0.8725567478766648  0.5243930179358357  0.12886744661728503  1.0000
  C   C8        1.0  0.7564843910170393  0.6083717435428678  0.2582716202101878  1.0000
  C   C9        1.0  0.10207331009511475  0.544067349139432  0.04638367182018758  1.0000
  C   C10       1.0  0.09696839715071794  0.535482452696918  0.9938955613908365  1.0000
  C   C11       1.0  0.9172333304258657  0.4992105926264043  0.9607501596055884  1.0000
  C   C12       1.0  0.8067413926888917  0.4386372902452179  0.8710149489519525  1.0000
  C   C13       1.0  0.8667844579769408  0.4209859266729977  0.8239089181862556  1.0000
  C   C14       1.0  0.7340529108367309  0.39307838698218933  0.7803015712533538  1.0000
  C   C15       1.0  0.5327731835413729  0.38204820265414696  0.7852252512917632  1.0000
  C   C16       1.0  0.47948524190808683  0.3983306944057146  0.8331014800989536  1.0000
  C   C17       1.0  0.6104919059647217  0.4262032324476194  0.8758486441283824  1.0000
  C   C18       1.0  0.3772236755394617  0.35547339121460897  0.7428944061091017  1.0000
  C   C19       1.0  0.6913101908019427  0.5477203599226355  0.4967364021828118  1.0000
  C   C20       1.0  0.5460759508270385  0.6008010026304829  0.4657749221398575  1.0000
  C   C21       1.0  0.6088577810386652  0.6086154229873129  0.4285068766003519  1.0000
  C   C22       1.0  0.4814822468339841  0.6218107289590119  0.4005341492478109  1.0000
  C   C23       1.0  0.284904796749167  0.6290698694065708  0.4130390321924792  1.0000
  C   C24       1.0  0.22359107196773204  0.6190444706769822  0.4497707647768933  1.0000
  C   C25       1.0  0.3489915894022247  0.6044610566948023  0.47566310944561974  1.0000
  C   C26       1.0  0.14820166115975297  0.6498390958196437  0.39162976983346454  1.0000
  C   C27       1.0  0.5587368969828007  0.5023878604253296  0.4560104243879053  1.0000
  C   C28       1.0  0.5618867858518185  0.45844038921255487  0.46455993751435903  1.0000
  C   C29       1.0  0.41804970038652556  0.46150738385335877  0.5007212860434294  1.0000
  C   C30       1.0  0.3674387072828722  0.43219884671046305  0.561199595660625  1.0000
  C   C31       1.0  0.44505036022639644  0.4027393402341133  0.5788796495779849  1.0000
  C   C32       1.0  0.3404128925912104  0.3871233019987768  0.6068668831144706  1.0000
  C   C33       1.0  0.15015196579792436  0.4030762930245471  0.6178567452014435  1.0000
  C   C34       1.0  0.08053801955382772  0.43465090084909963  0.6015054116804708  1.0000
  C   C35       1.0  0.18366832161686378  0.44948975271945085  0.5735990399708726  1.0000
  C   C36       1.0  0.02143127525702226  0.38738612402484307  0.6445267663935966  1.0000
  C   C37       1.0  0.14390840330972313  0.9489333674841446  0.452229912470962  1.0000
  C   C38       1.0  0.9450786074702933  0.8649708867222683  0.39914316042140296  1.0000
  C   C39       1.0  0.00011527544715044393  0.8198829387221448  0.3913272977336534  1.0000
  C   C40       1.0  0.8596371183137277  0.7787044259804711  0.3781053542708931  1.0000
  C   C41       1.0  0.6557800680282001  0.7839253731099021  0.3707589872995385  1.0000
  C   C42       1.0  0.6044034207980928  0.8306778124203331  0.3807561955827836  1.0000
  C   C43       1.0  0.7442985465603014  0.8711738203518276  0.395402882111128  1.0000
  C   C44       1.0  0.49828555601382607  0.7417599052254144  0.3500534337281991  1.0000
  C   C45       1.0  0.056383431479609614  0.9536092302382922  0.497544909293147  1.0000
  C   C46       1.0  0.10390301819935388  0.006098082503626799  0.5414418562888059  1.0000
  C   C47       1.0  0.9570734869815356  0.039240245286499886  0.5383635239939438  1.0000
  C   C48       1.0  0.9355815172095491  0.12904527316516118  0.5678093601939622  1.0000
  C   C49       1.0  0.04257552271418062  0.17617610181024193  0.59732335763853  1.0000
  C   C50       1.0  0.9534535425405866  0.21977726977187467  0.6129765952756614  1.0000
  C   C51       1.0  0.7471914152878655  0.21481615399272866  0.5970052296743377  1.0000
  C   C52       1.0  0.6460853835200666  0.16691181473142078  0.565412450622681  1.0000
  C   C53       1.0  0.7344690272125832  0.1241733547436326  0.5505230378795789  1.0000
  C   C54       1.0  0.6340651410754958  0.25716988617821096  0.6127249425465919  1.0000
  N   N1        1.0  0.18916706990520282  0.5050574391862597  0.09595296886222116  1.0000
  N   N2        1.0  0.947295360991163  0.4693663296332388  0.9120693988891446  1.0000
  N   N3        1.0  0.6851264631439732  0.5909166462926548  0.49499238528872525  1.0000
  N   N4        1.0  0.4774852858020822  0.4425387873893526  0.530507881181059  1.0000
  N   N5        1.0  0.0940375773875816  0.9040592995911112  0.4090329387122227  1.0000
  N   N6        1.0  0.035395802452804  0.08801259260483359  0.5574321331048537  1.0000
  O   O1        1.0  0.2019982879420965  0.3445961484437844  0.7488128388423477  1.0000
  O   O2        1.0  0.4214805531144846  0.3443937170389899  0.6992292059509995  1.0000
  O   O3        1.0  0.8011312548811276  0.37900333299756256  0.7365156419641324  1.0000
  O   O4        1.0  0.576521268484008  0.5917218749370858  0.2540730632875778  1.0000
  O   O5        1.0  0.843038840064459  0.6444164482128655  0.30040070002436897  1.0000
  O   O6        1.0  0.18780639503057014  0.6357685783397286  0.26296122174427694  1.0000
  O   O7        1.0  0.27913256279624216  0.4721693418611749  0.018504445274267343  1.0000
  O   O8        1.0  0.7580812316569591  0.4987615951993971  0.976632637906569  1.0000
  O   O9        1.0  0.8571639177926399  0.40422658934488703  0.6554381638987296  1.0000
  O   O10       1.0  0.07691724882453593  0.3548365737167102  0.6556807902141345  1.0000
  O   O11       1.0  0.42176196840683394  0.357496855864376  0.6210689488587917  1.0000
  O   O12       1.0  0.9849153162644626  0.6622958186639349  0.4082809912656771  1.0000
  O   O13       1.0  0.19863269380544324  0.6559598651568946  0.35559484200686603  1.0000
  O   O14       1.0  0.5521182435338261  0.6272063086306258  0.36424169804367773  1.0000
  O   O15       1.0  0.8067664943369977  0.546365695216302  0.5281102806182929  1.0000
  O   O16       1.0  0.25948449447051297  0.477903293548806  0.5011220353433075  1.0000
  O   O17       1.0  0.4528701539264119  0.2512466815369193  0.5959307326017154  1.0000
  O   O18       1.0  0.7221598877089479  0.30084920318000025  0.6452643679950967  1.0000
  O   O19       1.0  0.06443908859380798  0.26357464346343557  0.6426454959198864  1.0000
  O   O20       1.0  0.3224671475856625  0.7459645197112437  0.33762046003680274  1.0000
  O   O21       1.0  0.5426617851652935  0.6996225322938938  0.3440042194907704  1.0000
  O   O22       1.0  0.9249327393447687  0.7370258254125657  0.37276309299619476  1.0000
  O   O23       1.0  0.2613659111114543  0.9815536179514905  0.453585825724268  1.0000
  O   O24       1.0  0.7821950507532591  0.023253193881188797  0.5218522740451661  1.0000
