data_image0
_chemical_formula_structural       Hg2H28C44N12O4F4
_chemical_formula_sum              "Hg2 H28 C44 N12 O4 F4"
_cell_length_a       8.25588760516077
_cell_length_b       10.373142065886249
_cell_length_c       12.10000188609414
_cell_angle_alpha    104.75061838245135
_cell_angle_beta     89.9992961720653
_cell_angle_gamma    90.00015263629106

_space_group_name_H-M_alt    "P 1"
_space_group_IT_number       1

loop_
  _space_group_symop_operation_xyz
  'x, y, z'

loop_
  _atom_site_type_symbol
  _atom_site_label
  _atom_site_symmetry_multiplicity
  _atom_site_fract_x
  _atom_site_fract_y
  _atom_site_fract_z
  _atom_site_occupancy
  Hg  Hg1       1.0  4.3423173680000037e-07  0.9999989125121614  2.2957274127000107e-07  1.0000
  Hg  Hg2       1.0  0.4999999768651621  0.49999981662031684  0.9999999472655289  1.0000
  H   H1        1.0  0.031410779839951906  0.9462732953277565  0.6693975029093406  1.0000
  H   H2        1.0  0.5314102539237241  0.553728411954502  0.33060304827524317  1.0000
  H   H3        1.0  0.9685883479403047  0.05372538485965351  0.33060154338231473  1.0000
  H   H4        1.0  0.4685888738560067  0.4462722619856478  0.6693964275943712  1.0000
  H   H5        1.0  0.11060489775109521  0.0965159906282338  0.5425831046293297  1.0000
  H   H6        1.0  0.6106020634285656  0.40348677944388817  0.4574181905531204  1.0000
  H   H7        1.0  0.8893942300063956  0.903485690336595  0.4574190675685657  1.0000
  H   H8        1.0  0.389395853086782  0.5965148947556428  0.5425823272904465  1.0000
  H   H9        1.0  0.2116810128238384  0.40128493868290604  0.8308368257129429  1.0000
  H   H10       1.0  0.7116701731848566  0.09871579071491955  0.16916151665954257  1.0000
  H   H11       1.0  0.7883193261980423  0.5987157420225414  0.16916430451100684  1.0000
  H   H12       1.0  0.2883301658372872  0.9012838931141541  0.830839398775424  1.0000
  H   H13       1.0  0.9934930284110594  0.47355484230635614  0.4052189743952324  1.0000
  H   H14       1.0  0.4935007630474999  0.0264507696538416  0.5947805007677189  1.0000
  H   H15       1.0  0.006507310625472901  0.5264458316335519  0.5947805014691736  1.0000
  H   H16       1.0  0.5064983647325008  0.9735489074099349  0.4052187603129197  1.0000
  H   H17       1.0  0.1756294885512659  0.3471334481230456  0.5110370860580886  1.0000
  H   H18       1.0  0.6756398052965978  0.15287327685210528  0.4889628548764192  1.0000
  H   H19       1.0  0.824369639228202  0.6528682226934776  0.48896260460050184  1.0000
  H   H20       1.0  0.3243593224907286  0.8471263968289048  0.5110355790244508  1.0000
  H   H21       1.0  0.3318604803009465  0.15317586925238658  0.3997620727994614  1.0000
  H   H22       1.0  0.8318694626495218  0.34683080041788367  0.6002381794512245  1.0000
  H   H23       1.0  0.668137436214657  0.8468248080707708  0.6002382302551225  1.0000
  H   H24       1.0  0.1681296651375348  0.6531698701394999  0.39976046923862185  1.0000
  H   H25       1.0  0.30125256861467165  0.07708985817119181  0.18720795588593117  1.0000
  H   H26       1.0  0.80125439937337  0.42291383979747366  0.8127935695108447  1.0000
  H   H27       1.0  0.6987489816713293  0.9229108191512483  0.8127923471530352  1.0000
  H   H28       1.0  0.19874593967075785  0.577085833883295  0.18720486438481024  1.0000
  C   C1        1.0  0.071701442837373  0.04868394192184409  0.7052129606925135  1.0000
  C   C2        1.0  0.5717004378189118  0.4513168430880014  0.2947865849804642  1.0000
  C   C3        1.0  0.928298896199685  0.9513147382653169  0.2947860855939337  1.0000
  C   C4        1.0  0.4282999012176205  0.5486838308519069  0.705212890883942  1.0000
  C   C5        1.0  0.11534620083462242  0.1318055078662042  0.6356953779109771  1.0000
  C   C6        1.0  0.6153436898386745  0.36819626006299433  0.3643048345424376  1.0000
  C   C7        1.0  0.8846517156736625  0.8681951728397264  0.3643057523233748  1.0000
  C   C8        1.0  0.38465543794105633  0.6318044138771555  0.635694641327177  1.0000
  C   C9        1.0  0.17210336196227163  0.29947297026195946  0.7933143459340071  1.0000
  C   C10       1.0  0.6720994597165701  0.20052877173508674  0.20668455142928369  1.0000
  C   C11       1.0  0.8278969770671978  0.7005267101843484  0.20668574232119136  1.0000
  C   C12       1.0  0.3279008793126366  0.7994719055875948  0.7933157516148909  1.0000
  C   C13       1.0  0.1306267414460294  0.21649259108773578  0.8642334219335196  1.0000
  C   C14       1.0  0.6306267920576972  0.28351016764635517  0.1357668739377829  1.0000
  C   C15       1.0  0.8693723863269086  0.7835060924824403  0.13576645153790415  1.0000
  C   C16       1.0  0.36937354696392083  0.7164915099354656  0.8642344710751428  1.0000
  C   C17       1.0  0.15271781159826503  0.26885704804383437  0.9915768593250717  1.0000
  C   C18       1.0  0.6527223699714141  0.23114569852979358  0.008422419439874268  1.0000
  C   C19       1.0  0.84728131617414  0.7311436292790816  0.00842344372431107  1.0000
  C   C20       1.0  0.3472791803219195  0.7688549754098729  0.9915770564193236  1.0000
  C   C21       1.0  0.13667096859899894  0.23383896007798904  0.17792982419580736  1.0000
  C   C22       1.0  0.6366745415384473  0.2661608056249136  0.8220697753338511  1.0000
  C   C23       1.0  0.8633293704312663  0.7661577297392057  0.8220696196924492  1.0000
  C   C24       1.0  0.36332700874756096  0.7338398716975262  0.17793052770511508  1.0000
  C   C25       1.0  0.05361712207164971  0.34551814236640144  0.24269054639138687  1.0000
  C   C26       1.0  0.5536226868106412  0.1544816597162253  0.7573105942868564  1.0000
  C   C27       1.0  0.9463832169583527  0.6544795443271665  0.7573091122858526  1.0000
  C   C28       1.0  0.44637886347536704  0.8455190176062145  0.24268970875211682  1.0000
  C   C29       1.0  0.0651836477770331  0.3878268221841523  0.3607342928943851  1.0000
  C   C30       1.0  0.5651923772452535  0.11217795630154365  0.6392669951030497  1.0000
  C   C31       1.0  0.9348166912594992  0.6121738517557561  0.6392651829700213  1.0000
  C   C32       1.0  0.43480796178395315  0.8878227210211374  0.3607333079411246  1.0000
  C   C33       1.0  0.16580091650281764  0.3179207023855284  0.4179705043326436  1.0000
  C   C34       1.0  0.6658108907399694  0.18208702337095417  0.5820297358842197  1.0000
  C   C35       1.0  0.8341982112766502  0.6820809684309878  0.5820291863259469  1.0000
  C   C36       1.0  0.33418944829656283  0.8179136505689542  0.41796973998018666  1.0000
  C   C37       1.0  0.2521687432573501  0.2071720024366995  0.3554557176249132  1.0000
  C   C38       1.0  0.752176762435262  0.2928336986362011  0.6445441777359662  1.0000
  C   C39       1.0  0.7478315957718565  0.7928286748859746  0.6445445854192611  1.0000
  C   C40       1.0  0.2478223653517944  0.7071669719211754  0.35545447095388016  1.0000
  C   C41       1.0  0.23739239240440924  0.1649655021746383  0.23682490627185615  1.0000
  C   C42       1.0  0.7373984473576628  0.335038217782106  0.7631763409048345  1.0000
  C   C43       1.0  0.7626079466177346  0.8350341816544355  0.7631760091631108  1.0000
  C   C44       1.0  0.2626018916788696  0.6649624561578023  0.2368231349595716  1.0000
  N   N1        1.0  0.07938713980134791  0.0915641386870973  0.8190707488487232  1.0000
  N   N2        1.0  0.5793892234076169  0.408438640404121  0.1809299874981462  1.0000
  N   N3        1.0  0.9206119879710571  0.9084365386358184  0.18092955420065943  1.0000
  N   N4        1.0  0.4206111156215898  0.5915620369185604  0.8190703155460283  1.0000
  N   N5        1.0  0.16496394408369497  0.25754362665058744  0.6793771290634963  1.0000
  N   N6        1.0  0.6649557374042133  0.24245712469021194  0.3206224420835184  1.0000
  N   N7        1.0  0.8350376061952505  0.7424560571782519  0.32062378636626215  1.0000
  N   N8        1.0  0.33504339036792896  0.7575445495090776  0.6793780757548403  1.0000
  N   N9        1.0  0.1138433940490629  0.18768818695131975  0.05853846287745768  1.0000
  N   N10       1.0  0.6138462135391195  0.31231058756200264  0.9414602909253134  1.0000
  N   N11       1.0  0.8861557337314636  0.8123094963597166  0.941460368625222  1.0000
  N   N12       1.0  0.3861541254976828  0.6876890895015323  0.058538970150117095  1.0000
  O   O1        1.0  0.21113576211460133  0.3833177916349797  0.028504093139503084  1.0000
  O   O2        1.0  0.7111422503537169  0.11668693224705608  0.9714967673612306  1.0000
  O   O3        1.0  0.7888633656504781  0.6166828890707093  0.9714970370896477  1.0000
  O   O4        1.0  0.2888580886754895  0.8833137450756182  0.028503535682943806  1.0000
  F   F1        1.0  0.951964490246084  0.41269622536844947  0.18817801666524758  1.0000
  F   F2        1.0  0.45196736614268934  0.08730143822936039  0.8118225787486392  1.0000
  F   F3        1.0  0.0480358487763226  0.5873024615842583  0.8118226839807432  1.0000
  F   F4        1.0  0.5480317616370486  0.9126992357107897  0.1881768971209752  1.0000
