data_image0
_chemical_formula_structural       Cu2H4C12N4O8
_chemical_formula_sum              "Cu2 H4 C12 N4 O8"
_cell_length_a       5.210519422556847
_cell_length_b       6.712596169938265
_cell_length_c       10.140922787543952
_cell_angle_alpha    87.34652574919153
_cell_angle_beta     80.63228795750281
_cell_angle_gamma    71.31869019393687

_space_group_name_H-M_alt    "P 1"
_space_group_IT_number       1

loop_
  _space_group_symop_operation_xyz
  'x, y, z'

loop_
  _atom_site_type_symbol
  _atom_site_label
  _atom_site_symmetry_multiplicity
  _atom_site_fract_x
  _atom_site_fract_y
  _atom_site_fract_z
  _atom_site_occupancy
  Cu  Cu1       1.0  0.9999987588459047  1.8300623380987946e-06  0.9999997937565935  1.0000
  Cu  Cu2       1.0  3.4791070789549216e-06  0.4999990524207689  0.4999994743728989  1.0000
  H   H1        1.0  0.8203672616258829  0.3595543592597182  0.7930728267585039  1.0000
  H   H2        1.0  0.17963326963537446  0.6404487237769133  0.2069252629358473  1.0000
  H   H3        1.0  0.7947109523519984  0.971615381444053  0.6543252639764602  1.0000
  H   H4        1.0  0.20528697159399914  0.028379900617153495  0.3456782517782386  1.0000
  C   C1        1.0  0.03361362973565463  0.2688419267520387  0.7593822021506468  1.0000
  C   C2        1.0  0.9663842971147288  0.7311580317737237  0.24061720546887236  1.0000
  C   C3        1.0  0.4308655045696526  0.21168393497720217  0.6048517449164023  1.0000
  C   C4        1.0  0.5691350203443835  0.7883144627497953  0.3951494673907376  1.0000
  C   C5        1.0  0.5776186667627528  0.05707966328536428  0.6842623343565746  1.0000
  C   C6        1.0  0.4223805507815971  0.9429171589185829  0.31573805862955595  1.0000
  C   C7        1.0  0.42869203397741273  0.0063732949742743  0.8001069801349558  1.0000
  C   C8        1.0  0.5713052561330797  0.9936282538250794  0.1998943986072419  1.0000
  C   C9        1.0  0.5497910031258967  0.8315139856684722  0.8941481785992096  1.0000
  C   C10       1.0  0.4502082345370085  0.16848755722540432  0.1058530338637027  1.0000
  C   C11       1.0  0.5529629030232216  0.27220001593018844  0.4692552017315563  1.0000
  C   C12       1.0  0.4470428209225047  0.7277999366638285  0.530745511815631  1.0000
  N   N1        1.0  0.1602236591889437  0.1124966740733058  0.8359673778131054  1.0000
  N   N2        1.0  0.8397742642186116  0.8875032756073794  0.1640310442840232  1.0000
  N   N3        1.0  0.16124692647537842  0.31517419254343076  0.6427050997024182  1.0000
  N   N4        1.0  0.8387549023655081  0.6848257718615329  0.3572959464033261  1.0000
  O   O1        1.0  0.7998626479924268  0.7375140619708914  0.8757592065242578  1.0000
  O   O2        1.0  0.20013658278481475  0.2624874632328371  0.12424003489387296  1.0000
  O   O3        1.0  0.37255674062404154  0.8013229195995635  0.9923106758080208  1.0000
  O   O4        1.0  0.6274386254954294  0.19868336464026018  0.007692674212641695  1.0000
  O   O5        1.0  0.37609179924744757  0.3952035707228704  0.40088766739950893  1.0000
  O   O6        1.0  0.6239139246982788  0.6047963818711538  0.5991130461476786  1.0000
  O   O7        1.0  0.8046956891941902  0.2039152750435775  0.43211104094557834  1.0000
  O   O8        1.0  0.1953080906419517  0.7960846923009866  0.5678908244032854  1.0000
