data_image0
_chemical_formula_structural       Na4H14C8S2N4Cl2O8
_chemical_formula_sum              "Na4 H14 C8 S2 N4 Cl2 O8"
_cell_length_a       6.549633963621297
_cell_length_b       8.682270248623551
_cell_length_c       9.978596863407793
_cell_angle_alpha    115.78201798773252
_cell_angle_beta     109.12708235391003
_cell_angle_gamma    90.02002421045907

_space_group_name_H-M_alt    "P 1"
_space_group_IT_number       1

loop_
  _space_group_symop_operation_xyz
  'x, y, z'

loop_
  _atom_site_type_symbol
  _atom_site_label
  _atom_site_symmetry_multiplicity
  _atom_site_fract_x
  _atom_site_fract_y
  _atom_site_fract_z
  _atom_site_occupancy
  Na  Na1       1.0  0.7521657463423068  0.25241449227961255  0.5046583605652444  1.0000
  Na  Na2       1.0  0.7478106136174318  0.7477199655361136  0.4953299520970377  1.0000
  Na  Na3       1.0  0.2478649061061589  0.7475879120366218  0.4953720818896699  1.0000
  Na  Na4       1.0  0.25220060753785833  0.25226726246538794  0.5046433972126607  1.0000
  H   H1        1.0  0.7501057161582736  0.7317170050193841  0.9999707396743106  1.0000
  H   H2        1.0  0.24991748511488504  0.26828839041284874  1.0140937980860122e-05  1.0000
  H   H3        1.0  0.6276340153727062  0.18458613390107811  0.7553723743137724  1.0000
  H   H4        1.0  0.8723765047991281  0.42931847955916425  0.24471096903514689  1.0000
  H   H5        1.0  0.3723209446314186  0.8154099669091509  0.2446313640864304  1.0000
  H   H6        1.0  0.12763568910514073  0.5706958319549645  0.755295013107336  1.0000
  H   H7        1.0  0.4020617154629562  0.3683692855613502  0.3041656760913156  1.0000
  H   H8        1.0  0.0980068272704173  0.06409346009389341  0.6958143729187256  1.0000
  H   H9        1.0  0.5979543686493188  0.6316255033548617  0.6958396758941917  1.0000
  H   H10       1.0  0.9020057949132791  0.9359077773600789  0.30419871836563317  1.0000
  H   H11       1.0  0.36610220971279983  0.16154338111890354  0.23229061706619805  1.0000
  H   H12       1.0  0.13388815345074082  0.9291406934765478  0.7676735393238873  1.0000
  H   H13       1.0  0.6339311544800595  0.8384566339063612  0.7677124345591011  1.0000
  H   H14       1.0  0.8660956550875838  0.07086181086850021  0.23234386482361902  1.0000
  C   C1        1.0  0.7500353950462539  0.281618016496843  3.839149283640139e-05  1.0000
  C   C2        1.0  0.2499204369765026  0.7183896550550916  0.9999839975883235  1.0000
  C   C3        1.0  0.6771498946295154  0.4536868708613042  0.8543138044921434  1.0000
  C   C4        1.0  0.8228783976757866  0.5993653591414232  0.14563245063304456  1.0000
  C   C5        1.0  0.3228742501481107  0.5463003360132178  0.14566231494364246  1.0000
  C   C6        1.0  0.17707453970023582  0.4006439355874179  0.8543488493578907  1.0000
  C   C7        1.0  0.7500363899913509  0.606628911729999  0.9999970971662221  1.0000
  C   C8        1.0  0.249955948008342  0.3933606381971232  1.2166716778827483e-05  1.0000
  S   S1        1.0  0.7501665105532638  0.08864303595388633  4.1901682550193546e-06  1.0000
  S   S2        1.0  0.24983888618339026  0.9113639565550146  5.120132549063232e-06  1.0000
  N   N1        1.0  0.6813603344644008  0.2968131821712988  0.8628142075166425  1.0000
  N   N2        1.0  0.8185955851029262  0.4340263976711185  0.13719924862565583  1.0000
  N   N3        1.0  0.31857096637276083  0.7031856392124355  0.13717446332079664  1.0000
  N   N4        1.0  0.18136699181078333  0.5659751091980139  0.8627791356174866  1.0000
  Cl  Cl1       1.0  0.499997111665202  0.9999929106638492  0.4999982125936667  1.0000
  Cl  Cl2       1.0  1.18522194370324e-05  0.49999913620338543  0.4999990265776617  1.0000
  O   O1        1.0  0.6072241420673733  0.4428768360447536  0.7145920153286411  1.0000
  O   O2        1.0  0.8928280289824215  0.7283269240238752  0.2853694499032571  1.0000
  O   O3        1.0  0.3928400375795391  0.5571011258899787  0.28540119456458507  1.0000
  O   O4        1.0  0.1071879152732933  0.27168229115446973  0.7146223578520434  1.0000
  O   O5        1.0  0.4163108653182803  0.27116697247704014  0.3328607769687721  1.0000
  O   O6        1.0  0.08377234839866791  0.9381933934993186  0.6671039635695593  1.0000
  O   O7        1.0  0.5836945825727752  0.7288460208421129  0.6671472585986677  1.0000
  O   O8        1.0  0.9162330294300459  0.06181173403130201  0.3329110650568268  1.0000
