data_image0
_chemical_formula_structural       Cu4H32C48N16
_chemical_formula_sum              "Cu4 H32 C48 N16"
_cell_length_a       8.011500499223954
_cell_length_b       8.893141737557759
_cell_length_c       16.36936787713879
_cell_angle_alpha    90.00413535638272
_cell_angle_beta     89.99341703354541
_cell_angle_gamma    114.37750328322653

_space_group_name_H-M_alt    "P 1"
_space_group_IT_number       1

loop_
  _space_group_symop_operation_xyz
  'x, y, z'

loop_
  _atom_site_type_symbol
  _atom_site_label
  _atom_site_symmetry_multiplicity
  _atom_site_fract_x
  _atom_site_fract_y
  _atom_site_fract_z
  _atom_site_occupancy
  Cu  Cu1       1.0  0.47639496877165755  0.3298881217714467  0.14910567902159505  1.0000
  Cu  Cu2       1.0  0.02357350028555775  0.6700596153118569  0.6490596005888138  1.0000
  Cu  Cu3       1.0  0.5235325670940156  0.6700786099530448  0.8509243483959497  1.0000
  Cu  Cu4       1.0  0.9763532536061276  0.32991082408528166  0.3509105590042695  1.0000
  H   H1        1.0  0.5819402716778866  0.17666710255311097  0.9987922252057191  1.0000
  H   H2        1.0  0.9180592357289471  0.8233622240131951  0.49883663128625977  1.0000
  H   H3        1.0  0.4180149086370264  0.8233650628657755  0.0011754912111925004  1.0000
  H   H4        1.0  0.0818777840094143  0.1766576266203472  0.5011933969102247  1.0000
  H   H5        1.0  0.7910369644683541  0.2796397921828273  0.8804514510917374  1.0000
  H   H6        1.0  0.7090028765485246  0.7203521262053842  0.3804981355283133  1.0000
  H   H7        1.0  0.20898801978741952  0.7203786188781011  0.11953886627194524  1.0000
  H   H8        1.0  0.2910200514493439  0.27965640342065257  0.6195098977157941  1.0000
  H   H9        1.0  0.9774751021314005  0.5887535376565723  0.8656716119261819  1.0000
  H   H10       1.0  0.5225693909582744  0.4112301531151843  0.3657123855229259  1.0000
  H   H11       1.0  0.02254091415387907  0.41125624344348216  0.13432603628690032  1.0000
  H   H12       1.0  0.4774531887032084  0.5887721980227952  0.6342907604320944  1.0000
  H   H13       1.0  0.9487681627755791  0.774297452935123  0.973803044360942  1.0000
  H   H14       1.0  0.551307450760106  0.2256920313533328  0.4738257109860273  1.0000
  H   H15       1.0  0.05129444615170093  0.2257159285290342  0.026202544266887208  1.0000
  H   H16       1.0  0.4487554695020676  0.7743003399579179  0.5261688810701843  1.0000
  H   H17       1.0  0.8972663871325892  0.9130801016570231  0.06172559127227124  1.0000
  H   H18       1.0  0.6026786493226766  0.0869429424287844  0.5617528332188187  1.0000
  H   H19       1.0  0.10270045292524091  0.08694215066000063  0.9382573970475723  1.0000
  H   H20       1.0  0.3972801368281794  0.9130780936727023  0.43826925272200173  1.0000
  H   H21       1.0  0.8192464206152649  0.06446407332014559  0.17337390024373894  1.0000
  H   H22       1.0  0.6806753700878615  0.9355514859219197  0.6733739896335822  1.0000
  H   H23       1.0  0.18070408050343198  0.9355470942224144  0.8266115319086542  1.0000
  H   H24       1.0  0.31927762143475047  0.06445967676111052  0.32664381999661884  1.0000
  H   H25       1.0  0.588640510295491  0.9015128773524594  0.278886041453241  1.0000
  H   H26       1.0  0.911302273278075  0.09849599827462899  0.778865719799903  1.0000
  H   H27       1.0  0.4113260706037777  0.09848713080807411  0.7211048880981326  1.0000
  H   H28       1.0  0.08867530775638244  0.9015089284321717  0.22114598003979327  1.0000
  H   H29       1.0  0.44272324066867  0.5925744535212943  0.26666002884305584  1.0000
  H   H30       1.0  0.05740085856778883  0.40743738578328254  0.766607790099883  1.0000
  H   H31       1.0  0.5573996557315581  0.40742890302156803  0.7333687719716481  1.0000
  H   H32       1.0  0.9427253453614028  0.5925758481683515  0.23336114289624288  1.0000
  C   C1        1.0  0.3255066659424273  0.11883921477068071  0.09870799691343282  1.0000
  C   C2        1.0  0.17452067871957405  0.8810129637070288  0.5985987722548815  1.0000
  C   C3        1.0  0.6745063034626071  0.8810284555805764  0.9013953337888768  1.0000
  C   C4        1.0  0.8254881126962843  0.1188510032078725  0.4012992970536971  1.0000
  C   C5        1.0  0.7898799606314171  0.3012714551469529  0.26867202418262803  1.0000
  C   C6        1.0  0.7100234198464221  0.6987876261782519  0.7686476734368245  1.0000
  C   C7        1.0  0.20999178250100672  0.6987584323167155  0.7313500643969634  1.0000
  C   C8        1.0  0.2898634194698815  0.3012533478460854  0.23133226303134796  1.0000
  C   C9        1.0  0.6634053072620177  0.30834983290785084  0.9903963451987112  1.0000
  C   C10       1.0  0.8365660026280538  0.6916655089667288  0.4904383385443511  1.0000
  C   C11       1.0  0.3365526949447784  0.6916749113844602  0.009584810729052203  1.0000
  C   C12       1.0  0.1633891534665395  0.3083530636360976  0.5095764166849864  1.0000
  C   C13       1.0  0.7809559388260467  0.3680286281143452  0.9238931532146213  1.0000
  C   C14       1.0  0.7190542353906154  0.6319669509708421  0.42393883644317765  1.0000
  C   C15       1.0  0.21904511584337177  0.6319811871911015  0.07609472106846482  1.0000
  C   C16       1.0  0.2809346777118478  0.36803547789818236  0.5760704194378905  1.0000
  C   C17       1.0  0.8836779339475953  0.5374949295030048  0.9166953857427703  1.0000
  C   C18       1.0  0.6163680640108069  0.46248534629503274  0.41672920445301304  1.0000
  C   C19       1.0  0.11633694586287655  0.4625123824030696  0.08329676437953992  1.0000
  C   C20       1.0  0.38363749790401874  0.5375071575800022  0.583280661658151  1.0000
  C   C21       1.0  0.8667944730906713  0.6419261433838557  0.9764082312018094  1.0000
  C   C22       1.0  0.6332784545095934  0.35806966730606854  0.47642109169743935  1.0000
  C   C23       1.0  0.13324230077327573  0.3580934765782331  0.02359063841190331  1.0000
  C   C24       1.0  0.3667529635113311  0.641930191722885  0.5235789994725197  1.0000
  C   C25       1.0  0.7970574157778857  0.846029847530403  0.10788160681080684  1.0000
  C   C26       1.0  0.7029697027267048  0.1539806803540458  0.607875882568756  1.0000
  C   C27       1.0  0.2029659717302295  0.15398238831637912  0.8921184848305546  1.0000
  C   C28       1.0  0.29704926569701956  0.8460328015221777  0.3921248201194204  1.0000
  C   C29       1.0  0.7538171411942756  0.930204784311144  0.17018805737767206  1.0000
  C   C30       1.0  0.7461734339816388  0.0698067357285979  0.6701729008756135  1.0000
  C   C31       1.0  0.24617461605030397  0.06980381676556391  0.8298065370132266  1.0000
  C   C32       1.0  0.2538158282198142  0.9302018714279044  0.32983391152883723  1.0000
  C   C33       1.0  0.6251668476463905  0.8403204362357144  0.22884277243199602  1.0000
  C   C34       1.0  0.8748271654335724  0.1596930217225037  0.7288232654520572  1.0000
  C   C35       1.0  0.37484621599203644  0.15968564422191628  0.771156708483119  1.0000
  C   C36       1.0  0.12518657650397813  0.8403118213573251  0.271176826316598  1.0000
  C   C37       1.0  0.5452082329995847  0.6688067017573543  0.2229269479819039  1.0000
  C   C38       1.0  0.9548520697664671  0.3312013389500806  0.7228968468627743  1.0000
  C   C39       1.0  0.45485719839152955  0.3311992584297839  0.7770865820825039  1.0000
  C   C40       1.0  0.04522334001774205  0.6688045973859502  0.2770849162673984  1.0000
  C   C41       1.0  0.7440396949268545  0.5741461151744501  0.04093075084158221  1.0000
  C   C42       1.0  0.7560034956664408  0.4258545653412398  0.5409486296921033  1.0000
  C   C43       1.0  0.25598743425624093  0.42586611178666806  0.9590595663394414  1.0000
  C   C44       1.0  0.24400707299240315  0.5741515211794593  0.4590624583394317  1.0000
  C   C45       1.0  0.7109965558072062  0.6735255376094288  0.10552441142515792  1.0000
  C   C46       1.0  0.7890651774088794  0.3264884902368833  0.6055218383009875  1.0000
  C   C47       1.0  0.2890574352653843  0.3264853919138773  0.894476290221178  1.0000
  C   C48       1.0  0.21098087385394132  0.6735187500346453  0.3944770308059662  1.0000
  N   N1        1.0  0.22700066421676024  0.9948769353496164  0.06750021990963972  1.0000
  N   N2        1.0  0.2730916458346542  0.0050463167603283  0.5674699937741752  1.0000
  N   N3        1.0  0.7730830921676669  0.0050251738067146005  0.9325517941079939  1.0000
  N   N4        1.0  0.7269819079585247  0.9948471620817185  0.43247144797980763  1.0000
  N   N5        1.0  0.6762758504828382  0.29136718585654353  0.22111059376533868  1.0000
  N   N6        1.0  0.8236060158609321  0.7086807137970936  0.7210716490663176  1.0000
  N   N7        1.0  0.32355459577271267  0.708638080418254  0.7789224916464124  1.0000
  N   N8        1.0  0.1762291857968421  0.29131588891083027  0.27889545914886343  1.0000
  N   N9        1.0  0.6441456637846912  0.408912169230682  0.04696537355421532  1.0000
  N   N10       1.0  0.8558466510748418  0.5911112016248267  0.5470128267218046  1.0000
  N   N11       1.0  0.35581437465404514  0.5911088625772222  0.9530047860941839  1.0000
  N   N12       1.0  0.14410804487400242  0.4089036649244093  0.4530159790816982  1.0000
  N   N13       1.0  0.5869992077107115  0.5869956102698666  0.16312159794767925  1.0000
  N   N14       1.0  0.9131022738390154  0.4130498739365933  0.6630964781509976  1.0000
  N   N15       1.0  0.4130851851765485  0.41303255123344934  0.8368931538119785  1.0000
  N   N16       1.0  0.08698461587079008  0.5869782810188865  0.3368889504751281  1.0000
