data_image0
_chemical_formula_structural       Al4H10C24Br2O24
_chemical_formula_sum              "Al4 H10 C24 Br2 O24"
_cell_length_a       6.675097290493915
_cell_length_b       14.065499275447118
_cell_length_c       17.409821102092668
_cell_angle_alpha    93.46779193244318
_cell_angle_beta     89.66840042463232
_cell_angle_gamma    89.58238686948981

_space_group_name_H-M_alt    "P 1"
_space_group_IT_number       1

loop_
  _space_group_symop_operation_xyz
  'x, y, z'

loop_
  _atom_site_type_symbol
  _atom_site_label
  _atom_site_symmetry_multiplicity
  _atom_site_fract_x
  _atom_site_fract_y
  _atom_site_fract_z
  _atom_site_occupancy
  Al  Al1       1.0  0.8600597422538813  0.4957877130218478  0.5002699442299274  1.0000
  Al  Al2       1.0  0.36037645695348886  0.5033947627462751  0.5061942518194514  1.0000
  Al  Al3       1.0  0.3879167170982143  0.9996427435758759  0.0011322717639501  1.0000
  Al  Al4       1.0  0.8875519882340371  0.0009654107804806001  0.0026360206555367006  1.0000
  H   H1        1.0  0.9947327292452429  0.31072163815151305  0.2920525253664081  1.0000
  H   H2        1.0  0.48389059983495036  0.707400312536251  0.7030932305072567  1.0000
  H   H3        1.0  0.5714392750057584  0.17654800725107825  0.24998448955727784  1.0000
  H   H4        1.0  0.08510481846995079  0.7904525471702968  0.7655255227399208  1.0000
  H   H5        1.0  0.8579025470031568  0.1720662651494322  0.16347659466536874  1.0000
  H   H6        1.0  0.3653193540666352  0.829218643787243  0.8433722025438541  1.0000
  H   H7        1.0  0.597430444151506  0.3840981283344647  0.4647414268495139  1.0000
  H   H8        1.0  0.10339863012653439  0.6158944950393277  0.47462305519471937  1.0000
  H   H9        1.0  0.6355432969494431  0.1175855747548127  0.9764424453955274  1.0000
  H   H10       1.0  0.13774906622311534  0.8812688634897866  0.024082602378769  1.0000
  C   C1        1.0  0.6081367013817953  0.6102485476344199  0.40009542597816516  1.0000
  C   C2        1.0  0.11460522140181692  0.39331065349371397  0.6059418945250884  1.0000
  C   C3        1.0  0.6161193588506039  0.6163947436630155  0.6107046117692364  1.0000
  C   C4        1.0  0.11621351796826218  0.37874391514367295  0.3965812662845352  1.0000
  C   C5        1.0  0.2940996590270899  0.1955113103034236  0.23115222298464033  1.0000
  C   C6        1.0  0.8038784116007065  0.7885200643396786  0.7797632360144249  1.0000
  C   C7        1.0  0.1306144963233038  0.17306856141475888  0.18542428590983917  1.0000
  C   C8        1.0  0.6386238787085715  0.8204228567182239  0.8225059927370141  1.0000
  C   C9        1.0  0.2828865390303079  0.2553836475671716  0.30310647306242805  1.0000
  C   C10       1.0  0.7949031156681415  0.7217473256683177  0.7116353007716255  1.0000
  C   C11       1.0  0.1281195619379716  0.3123928192442521  0.3278028005142488  1.0000
  C   C12       1.0  0.6270664893369544  0.6844937493378112  0.6779771497564369  1.0000
  C   C13       1.0  0.1338152761972893  0.1698174771109819  0.835833178767075  1.0000
  C   C14       1.0  0.6339759265435206  0.8317428251035751  0.1689030222623202  1.0000
  C   C15       1.0  0.1266417050510142  0.2216303617028856  0.7819516203632729  1.0000
  C   C16       1.0  0.6260894537827895  0.7802967293513422  0.2230015632413327  1.0000
  C   C17       1.0  0.1196380247971476  0.2790599375652291  0.7226493967049379  1.0000
  C   C18       1.0  0.617858591403909  0.7233485341190972  0.28261511188024707  1.0000
  C   C19       1.0  0.11354299800218122  0.3313874309424349  0.669124228384696  1.0000
  C   C20       1.0  0.6102918785152411  0.6715458113975643  0.33647246886365423  1.0000
  C   C21       1.0  0.6466981641665158  0.884035113824723  0.8932614448087648  1.0000
  C   C22       1.0  0.1399417081824623  0.1141000228332061  0.1119991041261699  1.0000
  C   C23       1.0  0.6373619392804956  0.8925818659329962  0.1052847532961749  1.0000
  C   C24       1.0  0.1371449678776315  0.10858498661733049  0.8990819967480945  1.0000
  Br  Br1       1.0  0.5237734670742499  0.245695767618983  0.3631991178658395  1.0000
  Br  Br2       1.0  0.0561696092855399  0.6888753292046346  0.6707750661438183  1.0000
  O   O1        1.0  0.4407593342587361  0.5980219870172689  0.5837623675928043  1.0000
  O   O2        1.0  0.9394239909700985  0.40783693800543114  0.41603114977230143  1.0000
  O   O3        1.0  0.7791196219642558  0.5868515077139591  0.4251710479262201  1.0000
  O   O4        1.0  0.2840980346815983  0.4267597788103855  0.5886375533339531  1.0000
  O   O5        1.0  0.7772624379258488  0.5799977426533475  0.5826770018524029  1.0000
  O   O6        1.0  0.2770369642756378  0.4040151820030715  0.43076588237084934  1.0000
  O   O7        1.0  0.9479295883825217  0.4076405390456798  0.5735709381026909  1.0000
  O   O8        1.0  0.4367000671780019  0.5864474014293464  0.4246229745291998  1.0000
  O   O9        1.0  0.6080290584776977  0.44176927922602266  0.49816148176649483  1.0000
  O   O10       1.0  0.1070987572312347  0.5574208076807565  0.5014277765598932  1.0000
  O   O11       1.0  0.8084986531589777  0.9179665375053645  0.08161422295303572  1.0000
  O   O12       1.0  0.3083303958753448  0.08266080587518586  0.9224609870409279  1.0000
  O   O13       1.0  0.4710875223695652  0.9066219949905304  0.9206962518449302  1.0000
  O   O14       1.0  0.9655021600857056  0.0936310852617481  0.0842879388007773  1.0000
  O   O15       1.0  0.46793320958454393  0.9148927947052458  0.07828922498922711  1.0000
  O   O16       1.0  0.9676376093003471  0.08635307741894849  0.9263132277407493  1.0000
  O   O17       1.0  0.30670472734453813  0.09044195742812627  0.0815775248522144  1.0000
  O   O18       1.0  0.8122652574225742  0.9095759295498244  0.9225439105075282  1.0000
  O   O19       1.0  0.6364239926425199  0.058079545326002305  0.0018491426006547998  1.0000
  O   O20       1.0  0.1380664384649251  0.9429841119777435  0.0021006707022693002  1.0000
  O   O21       1.0  0.4765455887664275  0.1603810773863756  0.20791181535065562  1.0000
  O   O22       1.0  0.9866647776024706  0.8207321221046371  0.8025406874890705  1.0000
  O   O23       1.0  0.9407812048048997  0.20255330145673872  0.20516569635982762  1.0000
  O   O24       1.0  0.4480342890893922  0.7948853967990744  0.8027397784684566  1.0000
